@<TRIPOS>MOLECULE
GCL
   46    46     1     0     0
SMALL
bcc


@<TRIPOS>ATOM
      1 C1         -0.8220    0.2590   -1.4550 c3        1 GCL     -0.113400
      2 C2         -0.0670   -0.3750   -0.2770 c3        1 GCL      0.130500
      3 C3         -0.7290    0.1280    1.0350 c3        1 GCL      0.118100
      4 C4          0.2540   -0.0000    2.2160 c3        1 GCL      0.104100
      5 C5         -0.4230    0.4050    3.5210 c3        1 GCL     -0.109400
      6 C6          0.4620    0.1430    4.7310 c3        1 GCL     -0.069700
      7 C7          0.0180    1.0000    5.8990 c3        1 GCL     -0.090100
      8 C8          0.4430   -1.3200    5.1200 c3        1 GCL     -0.090100
      9 C1'        -0.3150   -0.1610   -2.8240 c3        1 GCL     -0.064700
     10 C2'        -1.1900    0.4700   -3.9020 c3        1 GCL     -0.074900
     11 C3'        -0.7120    0.0970   -5.2890 c3        1 GCL     -0.076400
     12 C4'         0.7400    0.4780   -5.4920 c3        1 GCL     -0.076400
     13 C5'         1.6190   -0.1340   -4.4220 c3        1 GCL     -0.076400
     14 C6'         1.1400    0.2320   -3.0320 c3        1 GCL     -0.074900
     15 N2          0.0350   -1.8210   -0.3050 n3        1 GCL     -0.905800
     16 O3         -1.9570   -0.5210    1.3000 oh        1 GCL     -0.594800
     17 O4          1.4130    0.7770    1.9660 oh        1 GCL     -0.589800
     18 H11        -1.9100   -0.0040   -1.3690 hc        1 GCL      0.050200
     19 H12        -0.7400    1.3740   -1.3640 hc        1 GCL      0.050200
     20 H2          0.9900    0.0330   -0.2690 h1        1 GCL      0.079700
     21 H3         -1.0150    1.2110    0.9010 h1        1 GCL      0.067700
     22 H4          0.6420   -1.0560    2.2790 h1        1 GCL      0.096700
     23 H51        -1.3880   -0.1570    3.6210 hc        1 GCL      0.051200
     24 H52        -0.6760    1.4980    3.4730 hc        1 GCL      0.051200
     25 H6          1.5180    0.4280    4.4570 hc        1 GCL      0.061700
     26 H71         0.6550    0.7940    6.7930 hc        1 GCL      0.033700
     27 H72         0.1030    2.0840    5.6460 hc        1 GCL      0.033700
     28 H73        -1.0440    0.7810    6.1650 hc        1 GCL      0.033700
     29 H81        -0.5880   -1.6370    5.4100 hc        1 GCL      0.033700
     30 H82         0.7840   -1.9570    4.2690 hc        1 GCL      0.033700
     31 H83         1.1230   -1.4960    5.9880 hc        1 GCL      0.033700
     32 H1'        -0.3990   -1.2800   -2.9270 hc        1 GCL      0.040700
     33 H2'1       -2.2500    0.1320   -3.7660 hc        1 GCL      0.041700
     34 H2'2       -1.1740    1.5850   -3.7870 hc        1 GCL      0.041700
     35 H3'1       -0.8330   -1.0080   -5.4430 hc        1 GCL      0.039200
     36 H3'2       -1.3470    0.6140   -6.0550 hc        1 GCL      0.039200
     37 H4'1        1.0820    0.1350   -6.5030 hc        1 GCL      0.039200
     38 H4'2        0.8400    1.5950   -5.4640 hc        1 GCL      0.039200
     39 H5'1        1.6200   -1.2500   -4.5350 hc        1 GCL      0.039200
     40 H5'2        2.6750    0.2180   -4.5560 hc        1 GCL      0.039200
     41 H6'1        1.2520    1.3370   -2.8740 hc        1 GCL      0.041700
     42 H6'2        1.7830   -0.2850   -2.2720 hc        1 GCL      0.041700
     43 HN21       -0.8660   -2.2300   -0.4650 hn        1 GCL      0.349300
     44 HN22        0.6510   -2.1050   -1.0420 hn        1 GCL      0.349300
     45 HO3        -1.7570   -1.4210    1.5900 ho        1 GCL      0.407000
     46 HO4         1.1540    1.7050    2.0140 ho        1 GCL      0.394000
@<TRIPOS>BOND
     1    1    2 1   
     2    1    9 1   
     3    1   18 1   
     4    1   19 1   
     5    2    3 1   
     6    2   15 1   
     7    2   20 1   
     8    3    4 1   
     9    3   16 1   
    10    3   21 1   
    11    4    5 1   
    12    4   17 1   
    13    4   22 1   
    14    5    6 1   
    15    5   23 1   
    16    5   24 1   
    17    6    7 1   
    18    6    8 1   
    19    6   25 1   
    20    7   26 1   
    21    7   27 1   
    22    7   28 1   
    23    8   29 1   
    24    8   30 1   
    25    8   31 1   
    26    9   10 1   
    27    9   14 1   
    28    9   32 1   
    29   10   11 1   
    30   10   33 1   
    31   10   34 1   
    32   11   12 1   
    33   11   35 1   
    34   11   36 1   
    35   12   13 1   
    36   12   37 1   
    37   12   38 1   
    38   13   14 1   
    39   13   39 1   
    40   13   40 1   
    41   14   41 1   
    42   14   42 1   
    43   15   43 1   
    44   15   44 1   
    45   16   45 1   
    46   17   46 1   
@<TRIPOS>SUBSTRUCTURE
     1 GCL         1 TEMP              0 ****  ****    0 ROOT
