@<TRIPOS>MOLECULE
GCL
   46    46     1     0     0
SMALL
bcc


@<TRIPOS>ATOM
      1 C1         -1.4600   -0.6940   -0.3700 c3        1 GCL     -0.109400
      2 C2          0.0270   -0.4500   -0.2570 c3        1 GCL      0.166500
      3 C3          0.3980   -0.2610    1.1960 c3        1 GCL      0.110100
      4 C4          1.7620    0.3830    1.2890 c3        1 GCL      0.119100
      5 C5          2.2840    0.2570    2.7020 c3        1 GCL     -0.078400
      6 C6          3.5630    1.0520    2.8400 c3        1 GCL     -0.068700
      7 C7          3.4470    1.9950    4.0180 c3        1 GCL     -0.090600
      8 C8          4.7230    0.1070    3.0640 c3        1 GCL     -0.090600
      9 C1'        -1.9020   -0.4830   -1.8180 c3        1 GCL     -0.063700
     10 C2'        -2.7810   -1.6460   -2.2360 c3        1 GCL     -0.074400
     11 C3'        -3.4140   -1.4330   -3.5940 c3        1 GCL     -0.076400
     12 C4'        -4.1290   -0.0990   -3.6980 c3        1 GCL     -0.076400
     13 C5'        -3.2500    1.0650   -3.2800 c3        1 GCL     -0.076400
     14 C6'        -2.6180    0.8530   -1.9220 c3        1 GCL     -0.074400
     15 N2          0.7330   -1.5660   -0.7850 n3        1 GCL     -0.913800
     16 O3          0.4250   -1.5140    1.8390 oh        1 GCL     -0.606800
     17 O4          1.6630    1.7440    0.9450 oh        1 GCL     -0.599800
     18 H11        -1.9380   -0.0690    0.2110 hc        1 GCL      0.053200
     19 H12        -1.6610   -1.6120   -0.0980 hc        1 GCL      0.053200
     20 H2          0.2650    0.3540   -0.7610 h1        1 GCL      0.069700
     21 H3         -0.2640    0.3130    1.6290 h1        1 GCL      0.045700
     22 H4          2.3760   -0.0650    0.6740 h1        1 GCL      0.052700
     23 H51         2.4620   -0.6840    2.9010 hc        1 GCL      0.046700
     24 H52         1.6160    0.6020    3.3280 hc        1 GCL      0.046700
     25 H6          3.7160    1.5670    2.0250 hc        1 GCL      0.065700
     26 H71         3.2940    1.4780    4.8360 hc        1 GCL      0.033200
     27 H72         4.2760    2.5100    4.1070 hc        1 GCL      0.033200
     28 H73         2.6950    2.6070    3.8730 hc        1 GCL      0.033200
     29 H81         5.5440    0.6240    3.2020 hc        1 GCL      0.033200
     30 H82         4.5470   -0.4440    3.8550 hc        1 GCL      0.033200
     31 H83         4.8290   -0.4720    2.2800 hc        1 GCL      0.033200
     32 H1'        -1.1110   -0.4630   -2.3900 hc        1 GCL      0.041700
     33 H2'1       -2.2380   -2.4590   -2.2640 hc        1 GCL      0.040700
     34 H2'2       -3.4900   -1.7610   -1.5720 hc        1 GCL      0.040700
     35 H3'1       -2.7150   -1.4720   -4.2780 hc        1 GCL      0.039200
     36 H3'2       -4.0580   -2.1510   -3.7590 hc        1 GCL      0.039200
     37 H4'1       -4.4130    0.0370   -4.6250 hc        1 GCL      0.039200
     38 H4'2       -4.9210   -0.1190   -3.1240 hc        1 GCL      0.039200
     39 H5'1       -2.5420    1.1800   -3.9440 hc        1 GCL      0.039200
     40 H5'2       -3.7940    1.8770   -3.2520 hc        1 GCL      0.039200
     41 H6'1       -3.3160    0.8910   -1.2390 hc        1 GCL      0.040700
     42 H6'2       -1.9740    1.5700   -1.7580 hc        1 GCL      0.040700
     43 HN21        0.1390   -2.2310   -0.9960 hn        1 GCL      0.354800
     44 HN22        1.1870   -1.3120   -1.5390 hn        1 GCL      0.354800
     45 HO3        -0.1780   -1.5250    2.4920 ho        1 GCL      0.404000
     46 HO4         2.1960    1.9150    0.2540 ho        1 GCL      0.419000
@<TRIPOS>BOND
     1    1    2 1   
     2    1    9 1   
     3    1   18 1   
     4    1   19 1   
     5    2    3 1   
     6    2   15 1   
     7    2   20 1   
     8    3    4 1   
     9    3   16 1   
    10    3   21 1   
    11    4    5 1   
    12    4   17 1   
    13    4   22 1   
    14    5    6 1   
    15    5   23 1   
    16    5   24 1   
    17    6    7 1   
    18    6    8 1   
    19    6   25 1   
    20    7   26 1   
    21    7   27 1   
    22    7   28 1   
    23    8   29 1   
    24    8   30 1   
    25    8   31 1   
    26    9   10 1   
    27    9   14 1   
    28    9   32 1   
    29   10   11 1   
    30   10   33 1   
    31   10   34 1   
    32   11   12 1   
    33   11   35 1   
    34   11   36 1   
    35   12   13 1   
    36   12   37 1   
    37   12   38 1   
    38   13   14 1   
    39   13   39 1   
    40   13   40 1   
    41   14   41 1   
    42   14   42 1   
    43   15   43 1   
    44   15   44 1   
    45   16   45 1   
    46   17   46 1   
@<TRIPOS>SUBSTRUCTURE
     1 GCL         1 TEMP              0 ****  ****    0 ROOT
