@<TRIPOS>MOLECULE
GCL
   47    47     1     0     0
SMALL
bcc


@<TRIPOS>ATOM
      1 C1          0.1560   -0.3960   -0.2430 c3        1 GCL     -0.114400
      2 C2          1.6830   -0.3100   -0.2550 c3        1 GCL      0.141500
      3 C3          2.2440   -0.7940    1.1050 c3        1 GCL      0.115100
      4 C4          3.7630   -0.5460    1.2770 c3        1 GCL      0.101100
      5 C5          4.0510    0.1400    2.6070 c3        1 GCL     -0.119400
      6 C6          5.5180    0.0480    3.0060 c3        1 GCL     -0.067700
      7 C7          5.8470    1.1340    4.0120 c3        1 GCL     -0.097600
      8 C8          5.8500   -1.3130    3.5800 c3        1 GCL     -0.097600
      9 C1'        -0.5190   -0.0230   -1.5530 c3        1 GCL     -0.077700
     10 C2'        -2.0330   -0.0730   -1.3550 c3        1 GCL     -0.075900
     11 C3'        -2.7610    0.2900   -2.6320 c3        1 GCL     -0.078900
     12 C4'        -2.3360    1.6520   -3.1410 c3        1 GCL     -0.081400
     13 C5'        -0.8340    1.7250   -3.3230 c3        1 GCL     -0.078900
     14 C6'        -0.1030    1.3550   -2.0480 c3        1 GCL     -0.075900
     15 N2          2.2810   -1.1030   -1.3820 n4        1 GCL     -0.832600
     16 O3          1.9860   -2.1890    1.1660 oh        1 GCL     -0.623800
     17 O4          4.2000    0.2270    0.1650 oh        1 GCL     -0.659800
     18 H11        -0.1980    0.3060    0.5620 hc        1 GCL      0.087700
     19 H12        -0.1550   -1.4330    0.0570 hc        1 GCL      0.087700
     20 H2          2.0120    0.7650   -0.4040 hx        1 GCL      0.127700
     21 H3          1.6730   -0.2500    1.9090 h1        1 GCL      0.090700
     22 H4          4.2970   -1.5410    1.2320 h1        1 GCL      0.068700
     23 H51         3.7470    1.2180    2.5310 hc        1 GCL      0.065200
     24 H52         3.4250   -0.3350    3.4080 hc        1 GCL      0.065200
     25 H6          6.1560    0.2110    2.0900 hc        1 GCL      0.039700
     26 H71         5.2090    1.0300    4.9230 hc        1 GCL      0.045700
     27 H72         5.6760    2.1450    3.5710 hc        1 GCL      0.045700
     28 H73         6.9180    1.0580    4.3200 hc        1 GCL      0.045700
     29 H81         6.9370   -1.3670    3.8330 hc        1 GCL      0.045700
     30 H82         5.2650   -1.5000    4.5130 hc        1 GCL      0.045700
     31 H83         5.6200   -2.1230    2.8470 hc        1 GCL      0.045700
     32 H1'        -0.2620   -0.7840   -2.3440 hc        1 GCL      0.031700
     33 H2'1       -2.3320   -1.1020   -1.0290 hc        1 GCL      0.042950
     34 H2'2       -2.3240    0.6420   -0.5410 hc        1 GCL      0.042950
     35 H3'1       -2.5570   -0.4860   -3.4170 hc        1 GCL      0.051700
     36 H3'2       -3.8660    0.2890   -2.4390 hc        1 GCL      0.051700
     37 H4'1       -2.8410    1.8620   -4.1200 hc        1 GCL      0.056200
     38 H4'2       -2.6650    2.4430   -2.4170 hc        1 GCL      0.056200
     39 H5'1       -0.5420    2.7640   -3.6280 hc        1 GCL      0.051700
     40 H5'2       -0.5230    1.0320   -4.1480 hc        1 GCL      0.051700
     41 H6'1        1.0020    1.3790   -2.2400 hc        1 GCL      0.042950
     42 H6'2       -0.3240    2.1170   -1.2540 hc        1 GCL      0.042950
     43 HN21        3.3010   -0.9710   -1.3760 hn        1 GCL      0.465467
     44 HN22        2.0650   -2.0960   -1.2440 hn        1 GCL      0.465467
     45 HO3         2.1250   -2.4740    2.0790 ho        1 GCL      0.447000
     46 HO4         5.0000    0.7040    0.4230 ho        1 GCL      0.451000
     47 H23         1.8900   -0.7830   -2.2720 hn        1 GCL      0.465467
@<TRIPOS>BOND
     1    1    2 1   
     2    1    9 1   
     3    1   18 1   
     4    1   19 1   
     5    2    3 1   
     6    2   15 1   
     7    2   20 1   
     8    3    4 1   
     9    3   16 1   
    10    3   21 1   
    11    4    5 1   
    12    4   17 1   
    13    4   22 1   
    14    5    6 1   
    15    5   23 1   
    16    5   24 1   
    17    6    7 1   
    18    6    8 1   
    19    6   25 1   
    20    7   26 1   
    21    7   27 1   
    22    7   28 1   
    23    8   29 1   
    24    8   30 1   
    25    8   31 1   
    26    9   10 1   
    27    9   14 1   
    28    9   32 1   
    29   10   11 1   
    30   10   33 1   
    31   10   34 1   
    32   11   12 1   
    33   11   35 1   
    34   11   36 1   
    35   12   13 1   
    36   12   37 1   
    37   12   38 1   
    38   13   14 1   
    39   13   39 1   
    40   13   40 1   
    41   14   41 1   
    42   14   42 1   
    43   15   43 1   
    44   15   44 1   
    45   15   47 1   
    46   16   45 1   
    47   17   46 1   
@<TRIPOS>SUBSTRUCTURE
     1 GCL         1 TEMP              0 ****  ****    0 ROOT
