@<TRIPOS>MOLECULE
GCM
   12    11     1     0     0
SMALL
bcc


@<TRIPOS>ATOM
      1 N          -1.8230    0.0540   -0.7440 n3        1 GCM     -0.888800
      2 CA         -0.3980    0.1130   -0.7600 c3        1 GCM      0.053800
      3 C           0.1200    0.1950    0.6590 c         1 GCM      0.521100
      4 O          -0.6130    0.5720    1.5520 o         1 GCM     -0.537100
      5 CM          1.5500   -0.1920    0.9660 c3        1 GCM     -0.203100
      6 H          -2.1610    0.6580   -1.3440 hn        1 GCM      0.355800
      7 H2         -2.0960   -0.7890   -0.9730 hn        1 GCM      0.355800
      8 HA1        -0.0430   -0.6910   -1.1920 h1        1 GCM      0.073700
      9 HA2        -0.1100    0.9050   -1.2590 h1        1 GCM      0.073700
     10 HM1         2.1600    0.3790    0.4540 hc        1 GCM      0.065033
     11 HM2         1.6950   -1.1290    0.7180 hc        1 GCM      0.065033
     12 HM3         1.7210   -0.0770    1.9240 hc        1 GCM      0.065033
@<TRIPOS>BOND
     1    1    2 1   
     2    1    6 1   
     3    1    7 1   
     4    2    3 1   
     5    2    8 1   
     6    2    9 1   
     7    3    4 2   
     8    3    5 1   
     9    5   10 1   
    10    5   11 1   
    11    5   12 1   
@<TRIPOS>SUBSTRUCTURE
     1 GCM         1 TEMP              0 ****  ****    0 ROOT
