@<TRIPOS>MOLECULE
GCM
   12    11     1     0     0
SMALL
bcc


@<TRIPOS>ATOM
      1 N          -2.0390   -0.3310   -0.0830 n3        1 GCM     -0.888800
      2 CA         -0.7130   -0.8700    0.0450 c3        1 GCM      0.053800
      3 C           0.4520    0.0770   -0.1910 c         1 GCM      0.521100
      4 O           0.2870    1.2660   -0.4820 o         1 GCM     -0.537100
      5 CM          1.8050   -0.5380   -0.0450 c3        1 GCM     -0.203100
      6 H          -2.1820    0.4150    0.5710 hn        1 GCM      0.355800
      7 H2         -2.1870    0.0280   -1.0070 hn        1 GCM      0.355800
      8 HA1        -0.6070   -1.7250   -0.6830 h1        1 GCM      0.073700
      9 HA2        -0.6010   -1.2910    1.0860 h1        1 GCM      0.073700
     10 HM1         2.6070    0.2160   -0.2330 hc        1 GCM      0.065033
     11 HM2         1.9250   -0.9450    0.9890 hc        1 GCM      0.065033
     12 HM3         1.9190   -1.3770   -0.7740 hc        1 GCM      0.065033
@<TRIPOS>BOND
     1    1    2 1   
     2    1    6 1   
     3    1    7 1   
     4    2    3 1   
     5    2    8 1   
     6    2    9 1   
     7    3    4 2   
     8    3    5 1   
     9    5   10 1   
    10    5   11 1   
    11    5   12 1   
@<TRIPOS>SUBSTRUCTURE
     1 GCM         1 TEMP              0 ****  ****    0 ROOT
