@<TRIPOS>MOLECULE
GCN
   24    24     1     0     0
SMALL
bcc


@<TRIPOS>ATOM
      1 C1          1.1280    0.4740    1.0770 c3        1 GCN      0.289900
      2 C2         -0.2020    0.6290    1.8670 c3        1 GCN      0.162500
      3 C3         -1.2980   -0.1910    1.1780 c3        1 GCN     -0.114400
      4 C4         -1.3680    0.1790   -0.2990 c3        1 GCN      0.113100
      5 C5         -0.0050   -0.0910   -0.9600 c3        1 GCN      0.144100
      6 C6         -0.0000    0.3380   -2.4270 c3        1 GCN      0.134400
      7 N2         -0.0930    0.3210    3.2760 n3        1 GCN     -0.891800
      8 O1          1.6080   -0.8390    1.2420 oh        1 GCN     -0.634800
      9 O4         -2.3230   -0.6170   -0.9870 oh        1 GCN     -0.595800
     10 O5          1.0000    0.6940   -0.3110 os        1 GCN     -0.441600
     11 O6          0.9970   -0.4320   -3.0780 oh        1 GCN     -0.598800
     12 H1          1.8940    1.2350    1.4070 h2        1 GCN      0.066700
     13 H2         -0.4750    1.7250    1.7850 h1        1 GCN      0.068700
     14 H31        -1.0750   -1.2860    1.2730 hc        1 GCN      0.065700
     15 H32        -2.2860    0.0080    1.6670 hc        1 GCN      0.065700
     16 H4         -1.6390    1.2650   -0.4170 h1        1 GCN      0.044700
     17 H5          0.2570   -1.1810   -0.8700 h1        1 GCN      0.083700
     18 H61        -1.0070    0.1190   -2.8760 h1        1 GCN      0.044700
     19 H62         0.2320    1.4330   -2.5130 h1        1 GCN      0.044700
     20 HN21        0.0500   -0.6620    3.4080 hn        1 GCN      0.356800
     21 HN22        0.6790    0.8170    3.6760 hn        1 GCN      0.356800
     22 HO1         2.3330   -0.9650    0.6150 ho        1 GCN      0.427000
     23 HO4        -3.1320   -0.5980   -0.4620 ho        1 GCN      0.407000
     24 HO6         1.0540   -0.0990   -3.9810 ho        1 GCN      0.401000
@<TRIPOS>BOND
     1    1    2 1   
     2    1    8 1   
     3    1   10 1   
     4    1   12 1   
     5    2    3 1   
     6    2    7 1   
     7    2   13 1   
     8    3    4 1   
     9    3   14 1   
    10    3   15 1   
    11    4    5 1   
    12    4    9 1   
    13    4   16 1   
    14    5    6 1   
    15    5   10 1   
    16    5   17 1   
    17    6   11 1   
    18    6   18 1   
    19    6   19 1   
    20    7   20 1   
    21    7   21 1   
    22    8   22 1   
    23    9   23 1   
    24   11   24 1   
@<TRIPOS>SUBSTRUCTURE
     1 GCN         1 TEMP              0 ****  ****    0 ROOT
