@<TRIPOS>MOLECULE
GCO
   24    22     1     0     0
SMALL
bcc


@<TRIPOS>ATOM
      1 C1         -2.8160   -0.6500   -1.6340 c1        1 GCO      0.313000
      2 C2         -1.3040   -0.6500   -1.6340 c2        1 GCO     -0.087000
      3 C3         -0.8000   -0.6500   -0.2090 c3        1 GCO     -0.011000
      4 C4          0.5360    0.0540   -0.1470 c3        1 GCO      0.049000
      5 C5          0.7260    0.6540    1.2280 c3        1 GCO      0.014000
      6 C6          2.1200    1.2280    1.3390 c3        1 GCO     -0.055000
      7 O11        -3.4460   -1.7360   -1.5410 o         1 GCO     -0.562000
      8 O12        -3.4460    0.4360   -1.7270 o         1 GCO     -0.562000
      9 O2         -0.8350   -1.7990   -2.2970 oh        1 GCO     -0.362000
     10 O3         -0.6520   -1.9770    0.2370 oh        1 GCO     -0.375000
     11 O4          1.5660   -0.8710   -0.4020 oh        1 GCO     -0.356000
     12 O5         -0.2200    1.6770    1.4280 oh        1 GCO     -0.330000
     13 O6          2.2780    1.8400    2.6000 oh        1 GCO     -0.351000
     14 H2         -0.9790    0.1470   -2.0940 h4        1 GCO      0.108000
     15 H3         -1.4410   -0.1840    0.3630 h1        1 GCO      0.105000
     16 H4          0.5610    0.7630   -0.8170 h1        1 GCO      0.098000
     17 H5          0.6040   -0.0390    1.9050 h1        1 GCO      0.105000
     18 H61         2.2560    1.8910    0.6360 h1        1 GCO      0.079500
     19 H62         2.7760    0.5110    1.2410 h1        1 GCO      0.079500
     20 HO2        -0.8940   -1.6790   -3.1750 ho        1 GCO      0.220000
     21 HO3        -1.2580   -2.1490    0.8620 ho        1 GCO      0.247000
     22 HO4         1.9980   -0.6360   -1.1410 ho        1 GCO      0.239000
     23 HO5        -0.4450    1.7090    2.2860 ho        1 GCO      0.203000
     24 HO6         3.1180    2.1100    2.6950 ho        1 GCO      0.190000
@<TRIPOS>BOND
     1    1    7 1   
     2    1    8 1   
     3    2    3 1   
     4    2    9 1   
     5    2   14 1   
     6    3    4 1   
     7    3   10 1   
     8    3   15 1   
     9    4    5 1   
    10    4   11 1   
    11    4   16 1   
    12    5    6 1   
    13    5   12 1   
    14    5   17 1   
    15    6   13 1   
    16    6   18 1   
    17    6   19 1   
    18    9   20 1   
    19   10   21 1   
    20   11   22 1   
    21   12   23 1   
    22   13   24 1   
@<TRIPOS>SUBSTRUCTURE
     1 GCO         1 TEMP              0 ****  ****    0 ROOT
