@<TRIPOS>MOLECULE
GCO
   24    23     1     0     0
SMALL
bcc


@<TRIPOS>ATOM
      1 C1         -0.3990    0.0770   -2.8370 c         1 GCO      0.894600
      2 C2          0.3740    0.5770   -1.5850 c3        1 GCO     -0.028900
      3 C3         -0.1810   -0.1480   -0.3470 c3        1 GCO      0.100100
      4 C4          0.3950    0.4330    0.9540 c3        1 GCO      0.127100
      5 C5         -0.4000   -0.0770    2.1740 c3        1 GCO      0.122100
      6 C6          0.2680    0.4050    3.4660 c3        1 GCO      0.098400
      7 O11        -0.0160   -1.0470   -3.2830 o         1 GCO     -0.825300
      8 O12        -1.3260    0.7810   -3.3040 o         1 GCO     -0.825300
      9 O2          1.7580    0.2890   -1.7080 oh        1 GCO     -0.633800
     10 O3          0.1770   -1.5240   -0.3690 oh        1 GCO     -0.638800
     11 O4          1.7610    0.1110    1.1440 oh        1 GCO     -0.622800
     12 O5         -1.7490    0.3500    2.1140 oh        1 GCO     -0.585800
     13 O6         -0.2230   -0.3900    4.5340 oh        1 GCO     -0.595800
     14 H2          0.2930    1.6870   -1.4670 h1        1 GCO      0.063700
     15 H3         -1.3030   -0.0570   -0.3270 h1        1 GCO      0.065700
     16 H4          0.3240    1.5580    0.9120 h1        1 GCO      0.032700
     17 H5         -0.4570   -1.2010    2.1570 h1        1 GCO      0.110700
     18 H61         0.0130    1.4820    3.6570 h1        1 GCO      0.031200
     19 H62         1.3820    0.2950    3.3760 h1        1 GCO      0.031200
     20 HO2         1.8250   -0.4980   -2.2730 ho        1 GCO      0.422000
     21 HO3         0.1120   -1.8140   -1.2950 ho        1 GCO      0.448000
     22 HO4         2.0550   -0.3760    0.3590 ho        1 GCO      0.442000
     23 HO5        -1.7420    1.3050    1.9760 ho        1 GCO      0.386000
     24 HO6         0.3500   -0.2100    5.2880 ho        1 GCO      0.383000
@<TRIPOS>BOND
     1    1    2 1   
     2    1    7 1   
     3    1    8 1   
     4    2    3 1   
     5    2    9 1   
     6    2   14 1   
     7    3    4 1   
     8    3   10 1   
     9    3   15 1   
    10    4    5 1   
    11    4   11 1   
    12    4   16 1   
    13    5    6 1   
    14    5   12 1   
    15    5   17 1   
    16    6   13 1   
    17    6   18 1   
    18    6   19 1   
    19    9   20 1   
    20   10   21 1   
    21   11   22 1   
    22   12   23 1   
    23   13   24 1   
@<TRIPOS>SUBSTRUCTURE
     1 GCO         1 TEMP              0 ****  ****    0 ROOT
