@<TRIPOS>MOLECULE
GCQ
   36    37     1     0     0
SMALL
bcc


@<TRIPOS>ATOM
      1 O3B         0.0000    0.0000    0.0000 o         1 GCQ     -0.630167
      2 PB          1.6100    0.0000    0.0000 p5        1 GCQ      0.774900
      3 O1B         2.1460    0.0000    1.5180 o         1 GCQ     -0.630167
      4 O2B         2.1040    1.2100   -0.6970 o         1 GCQ     -0.630167
      5 O3A         2.1470   -1.3140   -0.7590 os        1 GCQ     -0.453800
      6 PA          3.7060   -1.0640   -1.0750 p5        1 GCQ      0.897800
      7 O1A         4.5750   -1.3540    0.2480 o         1 GCQ     -0.638500
      8 O2A         3.9050    0.3400   -1.4980 o         1 GCQ     -0.638500
      9 O5'         4.1790   -2.0520   -2.2560 os        1 GCQ     -0.469200
     10 C5'         5.5280   -1.7030   -2.5700 c3        1 GCQ      0.244400
     11 C4'         6.0420   -2.6090   -3.6910 c3        1 GCQ      0.150100
     12 C3'         7.5160   -2.2830   -4.0160 c3        1 GCQ      0.112100
     13 O3'         8.3900   -3.2040   -3.3600 oh        1 GCQ     -0.580800
     14 C2'         7.6080   -2.4480   -5.5520 c3        1 GCQ      0.299600
     15 F1          8.5200   -3.4560   -5.8830 f         1 GCQ     -0.221300
     16 O4'         5.3250   -2.3460   -4.9170 os        1 GCQ     -0.323600
     17 C1'         6.1760   -2.8520   -5.9700 c3        1 GCQ      0.187500
     18 N1          5.8250   -2.2320   -7.2500 n         1 GCQ      0.057000
     19 C6          5.5730   -3.0160   -8.3360 cc        1 GCQ     -0.301400
     20 C5          5.2440   -2.4320   -9.5130 cd        1 GCQ     -0.396600
     21 C4          5.1820   -1.0260   -9.5830 cd        1 GCQ      0.487500
     22 N4          4.8560   -0.4050  -10.7670 nv        1 GCQ     -0.525800
     23 N3          5.4360   -0.3030   -8.5000 nc        1 GCQ     -0.757100
     24 C2          5.7530   -0.8910   -7.3470 c         1 GCQ      0.738900
     25 O2          5.9810   -0.2050   -6.3660 o         1 GCQ     -0.703500
     26 F2          7.9700   -1.2390   -6.1550 f         1 GCQ     -0.221300
     27 H5'1        5.5680   -0.6700   -2.8940 h1        1 GCQ      0.017700
     28 H5'2        6.1480   -1.8290   -1.6900 h1        1 GCQ      0.017700
     29 H4'         5.9410   -3.6520   -3.4150 h1        1 GCQ      0.016700
     30 H3'         7.7480   -1.2640   -3.7330 h1        1 GCQ      0.053700
     31 H1          9.0830   -2.7300   -2.9320 ho        1 GCQ      0.380000
     32 H1'         6.0930   -3.9300   -6.0310 h2        1 GCQ      0.023700
     33 H6          5.4900   -4.0900   -8.2210 h4        1 GCQ      0.100000
     34 H5          4.8480   -3.0330  -10.3230 ha        1 GCQ      0.081000
     35 HN41        4.8160    0.5930  -10.8140 hn        1 GCQ      0.241300
     36 HN42        4.6900   -0.9520  -11.5890 hn        1 GCQ      0.241300
@<TRIPOS>BOND
     1    1    2 1   
     2    2    3 1   
     3    2    4 1   
     4    2    5 1   
     5    5    6 1   
     6    6    7 1   
     7    6    8 1   
     8    6    9 1   
     9    9   10 1   
    10   10   11 1   
    11   10   27 1   
    12   10   28 1   
    13   11   12 1   
    14   11   16 1   
    15   11   29 1   
    16   12   13 1   
    17   12   14 1   
    18   12   30 1   
    19   13   31 1   
    20   14   15 1   
    21   14   17 1   
    22   14   26 1   
    23   16   17 1   
    24   17   18 1   
    25   17   32 1   
    26   18   19 1   
    27   18   24 1   
    28   19   20 2   
    29   19   33 1   
    30   20   21 1   
    31   20   34 1   
    32   21   22 1   
    33   21   23 2   
    34   22   35 1   
    35   22   36 1   
    36   23   24 1   
    37   24   25 2   
@<TRIPOS>SUBSTRUCTURE
     1 GCQ         1 TEMP              0 ****  ****    0 ROOT
