@<TRIPOS>MOLECULE
GCS
   25    25     1     0     0
SMALL
bcc


@<TRIPOS>ATOM
      1 C1          1.3720   -0.4270    0.5680 c3        1 GCS      0.336900
      2 C2          0.3090    0.1760    1.5270 c3        1 GCS      0.086500
      3 C3         -1.0800   -0.2440    0.9920 c3        1 GCS      0.109100
      4 C4         -1.2310    0.2360   -0.4630 c3        1 GCS      0.118100
      5 C5         -0.0830   -0.3190   -1.3180 c3        1 GCS      0.111100
      6 C6         -0.1060    0.2800   -2.7270 c3        1 GCS      0.140400
      7 N2          0.5060   -0.2540    2.8970 n3        1 GCS     -0.916800
      8 O1          2.6640    0.0220    0.8720 oh        1 GCS     -0.592800
      9 O3         -2.1260    0.3860    1.7140 oh        1 GCS     -0.608800
     10 O4         -2.4380   -0.2510   -1.0220 oh        1 GCS     -0.595800
     11 O5          1.1750    0.0560   -0.7540 os        1 GCS     -0.463600
     12 O6          0.8460   -0.3400   -3.5620 oh        1 GCS     -0.593800
     13 H1          1.3950   -1.5510    0.6050 h2        1 GCS      0.090700
     14 H2          0.3730    1.3040    1.4320 h1        1 GCS      0.044700
     15 H31        -1.1980   -1.3620    1.0400 h1        1 GCS      0.062700
     16 H4         -1.2280    1.3620   -0.4890 h1        1 GCS      0.059700
     17 H5         -0.1480   -1.4410   -1.3720 h1        1 GCS      0.073700
     18 H61        -1.1040    0.0680   -3.1970 h1        1 GCS      0.064200
     19 H62         0.0760    1.3860   -2.6760 h1        1 GCS      0.064200
     20 HN21        1.4700   -0.4700    3.0620 hn        1 GCS      0.365300
     21 HN22        0.2100    0.4620    3.5290 hn        1 GCS      0.365300
     22 HO1         2.7580    0.9240    0.5340 ho        1 GCS      0.424000
     23 H32        -2.1560   -0.0280    2.5850 ho        1 GCS      0.421000
     24 HO4        -3.1450    0.0200   -0.4190 ho        1 GCS      0.425000
     25 HO6         1.7110   -0.2120   -3.1500 ho        1 GCS      0.411000
@<TRIPOS>BOND
     1    1    2 1   
     2    1    8 1   
     3    1   11 1   
     4    1   13 1   
     5    2    3 1   
     6    2    7 1   
     7    2   14 1   
     8    3    4 1   
     9    3    9 1   
    10    3   15 1   
    11    4    5 1   
    12    4   10 1   
    13    4   16 1   
    14    5    6 1   
    15    5   11 1   
    16    5   17 1   
    17    6   12 1   
    18    6   18 1   
    19    6   19 1   
    20    7   20 1   
    21    7   21 1   
    22    8   22 1   
    23    9   23 1   
    24   10   24 1   
    25   12   25 1   
@<TRIPOS>SUBSTRUCTURE
     1 GCS         1 TEMP              0 ****  ****    0 ROOT
