@<TRIPOS>MOLECULE
GCS
   25    25     1     0     0
SMALL
bcc


@<TRIPOS>ATOM
      1 C1         -0.8330   -0.7120   -1.2930 c3        1 GCS      0.347900
      2 C2          0.6790   -0.7120   -1.2930 c3        1 GCS      0.128500
      3 C3          1.2420   -0.7120    0.0780 c3        1 GCS      0.094100
      4 C4          0.6650    0.3760    0.9270 c3        1 GCS      0.086100
      5 C5         -0.8540    0.3730    0.9160 c3        1 GCS      0.115100
      6 C6         -1.3490    1.5980    1.6390 c3        1 GCS      0.139400
      7 N2          1.1510   -1.9020   -1.9980 n3        1 GCS     -0.911800
      8 O1         -1.2810   -0.5410   -2.5890 oh        1 GCS     -0.599800
      9 O3          2.6810   -0.5290   -0.0060 oh        1 GCS     -0.592800
     10 O4          1.1190    0.2020    2.2760 oh        1 GCS     -0.592800
     11 O5         -1.4040    0.3690   -0.4390 os        1 GCS     -0.471600
     12 O6         -2.7660    1.6350    1.5900 oh        1 GCS     -0.592800
     13 H1         -1.1480   -1.5740   -0.9620 h2        1 GCS      0.060700
     14 H2          0.9950    0.0820   -1.7650 h1        1 GCS      0.033700
     15 H31         1.0560   -1.5730    0.4970 h1        1 GCS      0.108700
     16 H4          0.9820    1.2380    0.5950 h1        1 GCS      0.048700
     17 H5         -1.1710   -0.4210    1.3870 h1        1 GCS      0.071700
     18 H61        -1.0560    1.5660    2.5700 h1        1 GCS      0.064700
     19 H62        -0.9870    2.3970    1.2110 h1        1 GCS      0.064700
     20 HN21        0.8400   -1.8910   -2.8560 hn        1 GCS      0.369300
     21 HN22        2.0630   -1.9100   -2.0050 hn        1 GCS      0.369300
     22 HO1        -2.1520   -0.7070   -2.6260 ho        1 GCS      0.429000
     23 H32         2.8590    0.2370   -0.4170 ho        1 GCS      0.401000
     24 HO4         1.7330    0.8150    2.4640 ho        1 GCS      0.422000
     25 HO6        -3.0630    2.2960    2.1020 ho        1 GCS      0.408000
@<TRIPOS>BOND
     1    1    2 1   
     2    1    8 1   
     3    1   11 1   
     4    1   13 1   
     5    2    3 1   
     6    2    7 1   
     7    2   14 1   
     8    3    4 1   
     9    3    9 1   
    10    3   15 1   
    11    4    5 1   
    12    4   10 1   
    13    4   16 1   
    14    5    6 1   
    15    5   11 1   
    16    5   17 1   
    17    6   12 1   
    18    6   18 1   
    19    6   19 1   
    20    7   20 1   
    21    7   21 1   
    22    8   22 1   
    23    9   23 1   
    24   10   24 1   
    25   12   25 1   
@<TRIPOS>SUBSTRUCTURE
     1 GCS         1 TEMP              0 ****  ****    0 ROOT
