@<TRIPOS>MOLECULE
GCT
   20    20     1     0     0
SMALL
bcc


@<TRIPOS>ATOM
      1 C1         -1.0150   -0.5400   -1.2830 c3        1 GCT      0.132400
      2 C2          0.4780   -0.5400   -1.2830 c3        1 GCT      0.077100
      3 O2          0.9480   -1.7350   -1.9930 oh        1 GCT     -0.614800
      4 C3          1.0500   -0.5400    0.0630 c3        1 GCT      0.099100
      5 O3          2.5060   -0.3550   -0.0410 oh        1 GCT     -0.626800
      6 C4          0.4940    0.5330    0.9190 c3        1 GCT     -0.129400
      7 C5         -1.0540    0.5300    0.9630 c3        1 GCT      0.006100
      8 C6         -1.5760    1.6700    1.7680 c         1 GCT      0.933600
      9 O6A        -1.6980    1.5560    3.0160 o         1 GCT     -0.823800
     10 O6B        -1.8970    2.7470    1.2010 o         1 GCT     -0.823800
     11 O5         -1.5870    0.5200   -0.4450 os        1 GCT     -0.384600
     12 HC11       -1.3290   -1.4040   -0.9540 h1        1 GCT      0.039700
     13 HC12       -1.3290   -0.4200   -2.1990 h1        1 GCT      0.039700
     14 HC2         0.7920    0.2520   -1.7580 h1        1 GCT      0.042700
     15 HO2         1.1940   -1.5130   -2.8160 ho        1 GCT      0.404000
     16 HC3         0.8710   -1.4030    0.4830 h1        1 GCT      0.069700
     17 HO3         2.9170   -0.9380    0.4870 ho        1 GCT      0.400000
     18 HC41        0.7970    1.3950    0.5770 hc        1 GCT      0.065700
     19 HC42        0.8340    0.4180    1.8270 hc        1 GCT      0.065700
     20 HC5        -1.3970   -0.2320    1.4680 h1        1 GCT      0.025700
@<TRIPOS>BOND
     1    1    2 1   
     2    1   11 1   
     3    1   12 1   
     4    1   13 1   
     5    2    3 1   
     6    2    4 1   
     7    2   14 1   
     8    3   15 1   
     9    4    5 1   
    10    4    6 1   
    11    4   16 1   
    12    5   17 1   
    13    6    7 1   
    14    6   18 1   
    15    6   19 1   
    16    7    8 1   
    17    7   11 1   
    18    7   20 1   
    19    8    9 1   
    20    8   10 1   
@<TRIPOS>SUBSTRUCTURE
     1 GCT         1 TEMP              0 ****  ****    0 ROOT
