@<TRIPOS>MOLECULE
GCT
   20    20     1     0     0
SMALL
bcc


@<TRIPOS>ATOM
      1 C1          1.5510   -0.4340    0.9330 c3        1 GCT      0.103400
      2 C2          0.5210    0.2340    1.8470 c3        1 GCT      0.060100
      3 O2          0.6530   -0.2090    3.1940 oh        1 GCT     -0.623800
      4 C3         -0.8970   -0.1470    1.3890 c3        1 GCT      0.147100
      5 O3         -1.8750    0.5800    2.1190 oh        1 GCT     -0.605800
      6 C4         -1.0520    0.1890   -0.0880 c3        1 GCT     -0.097400
      7 C5          0.0570   -0.4570   -0.9050 c3        1 GCT      0.001100
      8 C6         -0.0220   -0.0000   -2.4000 c         1 GCT      0.934600
      9 O6A        -0.1810    1.2240   -2.6410 o         1 GCT     -0.822800
     10 O6B         0.0350   -0.9190   -3.2590 o         1 GCT     -0.822800
     11 O5          1.3480   -0.0740   -0.4180 os        1 GCT     -0.379600
     12 HC11        2.5860   -0.0740    1.1760 h1        1 GCT      0.029700
     13 HC12        1.5010   -1.5480    1.0620 h1        1 GCT      0.029700
     14 HC2         0.6370    1.3520    1.8130 h1        1 GCT      0.057700
     15 HO2         1.5790   -0.0910    3.4310 ho        1 GCT      0.393000
     16 HC3        -1.0530   -1.2490    1.5680 h1        1 GCT      0.030700
     17 HO3        -1.6680    0.4450    3.0520 ho        1 GCT      0.397000
     18 HC41       -1.0180    1.2990   -0.2390 hc        1 GCT      0.071700
     19 HC42       -2.0450   -0.1750   -0.4540 hc        1 GCT      0.071700
     20 HC5        -0.0240   -1.5780   -0.8530 h1        1 GCT      0.023700
@<TRIPOS>BOND
     1    1    2 1   
     2    1   11 1   
     3    1   12 1   
     4    1   13 1   
     5    2    3 1   
     6    2    4 1   
     7    2   14 1   
     8    3   15 1   
     9    4    5 1   
    10    4    6 1   
    11    4   16 1   
    12    5   17 1   
    13    6    7 1   
    14    6   18 1   
    15    6   19 1   
    16    7    8 1   
    17    7   11 1   
    18    7   20 1   
    19    8    9 1   
    20    8   10 1   
@<TRIPOS>SUBSTRUCTURE
     1 GCT         1 TEMP              0 ****  ****    0 ROOT
