@<TRIPOS>MOLECULE
GCU
   22    22     1     0     0
SMALL
bcc


@<TRIPOS>ATOM
      1 C1          1.5400   -0.3720   -1.0930 c3        1 GCU      0.305900
      2 C2          0.2540   -0.6080   -1.8990 c3        1 GCU      0.080100
      3 C3         -0.9690    0.0860   -1.2770 c3        1 GCU      0.110100
      4 C4         -1.0210   -0.1650    0.2390 c3        1 GCU      0.157100
      5 C5          0.3210    0.2360    0.8660 c3        1 GCU     -0.035900
      6 C6          0.3620   -0.0180    2.4070 c         1 GCU      0.936600
      7 O1          2.0030    0.9430   -1.3450 oh        1 GCU     -0.669800
      8 O2          0.4110   -0.1900   -3.2450 oh        1 GCU     -0.615800
      9 O3         -2.1520   -0.4460   -1.8560 oh        1 GCU     -0.587800
     10 O4         -2.0650    0.6430    0.7520 oh        1 GCU     -0.627800
     11 O5          1.3930   -0.5150    0.2940 os        1 GCU     -0.399600
     12 O6A         1.4410    0.2040    3.0070 o         1 GCU     -0.818800
     13 O6B        -0.7230   -0.3730    2.9490 o         1 GCU     -0.818800
     14 H1          2.3380   -1.1120   -1.3910 h2        1 GCU      0.063700
     15 H2          0.0620   -1.7160   -1.9640 h1        1 GCU      0.085700
     16 H3         -0.9190    1.1930   -1.4750 h1        1 GCU      0.045700
     17 H4         -1.2370   -1.2470    0.4470 h1        1 GCU      0.060700
     18 H5          0.5010    1.3320    0.6890 h1        1 GCU      0.034700
     19 HO1         2.4250    1.2610   -0.5350 ho        1 GCU      0.437000
     20 HO2         0.7510    0.7140   -3.2230 ho        1 GCU      0.415000
     21 HO3        -2.0510   -0.3340   -2.8100 ho        1 GCU      0.391000
     22 HO4        -2.0870    0.4710    1.7100 ho        1 GCU      0.450000
@<TRIPOS>BOND
     1    1    2 1   
     2    1    7 1   
     3    1   11 1   
     4    1   14 1   
     5    2    3 1   
     6    2    8 1   
     7    2   15 1   
     8    3    4 1   
     9    3    9 1   
    10    3   16 1   
    11    4    5 1   
    12    4   10 1   
    13    4   17 1   
    14    5    6 1   
    15    5   11 1   
    16    5   18 1   
    17    6   12 1   
    18    6   13 1   
    19    7   19 1   
    20    8   20 1   
    21    9   21 1   
    22   10   22 1   
@<TRIPOS>SUBSTRUCTURE
     1 GCU         1 TEMP              0 ****  ****    0 ROOT
