@<TRIPOS>MOLECULE
GCU
   22    22     1     0     0
SMALL
bcc


@<TRIPOS>ATOM
      1 C1         -0.9300    0.3260   -1.1920 c3        1 GCU      0.309900
      2 C2          0.5660    0.3330   -1.2220 c3        1 GCU      0.079100
      3 C3          1.1650    0.3370    0.1150 c3        1 GCU      0.120100
      4 C4          0.6340   -0.7440    0.9860 c3        1 GCU      0.136100
      5 C5         -0.9280   -0.7540    1.0610 c3        1 GCU     -0.019900
      6 C6         -1.4450    0.3810    1.9000 c         1 GCU      0.902600
      7 O1         -1.4070    0.1510   -2.4940 oh        1 GCU     -0.630800
      8 O2          1.0370   -0.8810   -1.9540 oh        1 GCU     -0.614800
      9 O3          0.8970    1.6350    0.7530 oh        1 GCU     -0.590800
     10 O4          1.0730   -2.0030    0.4740 oh        1 GCU     -0.610800
     11 O5         -1.4860   -0.7500   -0.3300 os        1 GCU     -0.452600
     12 O6A        -2.5100    0.9800    1.5660 o         1 GCU     -0.829800
     13 O6B        -0.8570    0.6910    2.9740 o         1 GCU     -0.829800
     14 H1         -1.2440    1.1930   -0.8550 h2        1 GCU      0.105700
     15 H2          0.8720    1.1420   -1.7130 h1        1 GCU      0.076700
     16 H3          2.1230    0.2240    0.0280 h1        1 GCU      0.047700
     17 H4          0.9890   -0.6280    1.8790 h1        1 GCU      0.058700
     18 H5         -1.2440   -1.4930    1.5440 h1        1 GCU      0.074700
     19 HO1        -1.9610    0.7860   -2.6860 ho        1 GCU      0.429000
     20 HO2         1.5640   -0.6410   -2.6040 ho        1 GCU      0.417000
     21 HO3         1.6000    2.1560    0.6650 ho        1 GCU      0.394000
     22 HO4         1.4910   -2.4420    1.1030 ho        1 GCU      0.428000
@<TRIPOS>BOND
     1    1    2 1   
     2    1    7 1   
     3    1   11 1   
     4    1   14 1   
     5    2    3 1   
     6    2    8 1   
     7    2   15 1   
     8    3    4 1   
     9    3    9 1   
    10    3   16 1   
    11    4    5 1   
    12    4   10 1   
    13    4   17 1   
    14    5    6 1   
    15    5   11 1   
    16    5   18 1   
    17    6   12 1   
    18    6   13 1   
    19    7   19 1   
    20    8   20 1   
    21    9   21 1   
    22   10   22 1   
@<TRIPOS>SUBSTRUCTURE
     1 GCU         1 TEMP              0 ****  ****    0 ROOT
