@<TRIPOS>MOLECULE
GCV
   25    25     1     0     0
SMALL
bcc


@<TRIPOS>ATOM
      1 C7         -2.6890   -0.0930    1.6070 c3        1 GCV      0.108700
      2 C1          1.6560   -0.1500   -1.3440 c3        1 GCV      0.307900
      3 C2          0.3920   -0.5720   -2.1060 c3        1 GCV      0.080100
      4 C3         -0.8780   -0.0130   -1.4500 c3        1 GCV      0.103100
      5 C4         -0.8760   -0.2580    0.0690 c3        1 GCV      0.136100
      6 C5          0.4410    0.2160    0.6940 c3        1 GCV     -0.016900
      7 C6          0.5790   -0.2290    2.1930 c         1 GCV      0.939600
      8 O1          1.9010    1.2250   -1.5840 oh        1 GCV     -0.670800
      9 O2          0.4520   -0.1680   -3.4630 oh        1 GCV     -0.616800
     10 O3         -2.0180   -0.6630   -1.9940 oh        1 GCV     -0.594800
     11 O4         -1.9440    0.5460    0.5810 os        1 GCV     -0.424600
     12 O5          1.5810   -0.3480    0.0400 os        1 GCV     -0.405600
     13 H71        -3.3350    0.7190    2.0240 h1        1 GCV      0.038700
     14 H72        -3.3210   -0.9030    1.1660 h1        1 GCV      0.038700
     15 H73        -2.0100   -0.5130    2.3930 h1        1 GCV      0.038700
     16 H1          2.5480   -0.7490   -1.6890 h2        1 GCV      0.064700
     17 H2          0.3390   -1.6960   -2.1400 h1        1 GCV      0.089700
     18 H3         -0.9480    1.0930   -1.6500 h1        1 GCV      0.047700
     19 H4         -1.0380   -1.3460    0.2960 h1        1 GCV      0.090700
     20 H5          0.5000    1.3360    0.6330 h1        1 GCV      0.039700
     21 HO1         2.2300    1.6110   -0.7600 ho        1 GCV      0.437000
     22 HO2         0.6780    0.7720   -3.4670 ho        1 GCV      0.414000
     23 HO3        -1.9400   -0.5750   -2.9530 ho        1 GCV      0.393000
     24 O6A         0.0430   -1.3160    2.5340 o         1 GCV     -0.818800
     25 O6B         1.1960    0.5620    2.9510 o         1 GCV     -0.818800
@<TRIPOS>BOND
     1    1   11 1   
     2    1   13 1   
     3    1   14 1   
     4    1   15 1   
     5    2    3 1   
     6    2    8 1   
     7    2   12 1   
     8    2   16 1   
     9    3    4 1   
    10    3    9 1   
    11    3   17 1   
    12    4    5 1   
    13    4   10 1   
    14    4   18 1   
    15    5    6 1   
    16    5   11 1   
    17    5   19 1   
    18    6    7 1   
    19    6   12 1   
    20    6   20 1   
    21    7   24 1   
    22    7   25 1   
    23    8   21 1   
    24    9   22 1   
    25   10   23 1   
@<TRIPOS>SUBSTRUCTURE
     1 GCV         1 TEMP              0 ****  ****    0 ROOT
