@<TRIPOS>MOLECULE
GCW
   25    25     1     0     0
SMALL
bcc


@<TRIPOS>ATOM
      1 O1          2.3240    0.2820   -2.2790 oh        1 GCW     -0.633800
      2 C1          1.1710    0.6180   -1.5410 c3        1 GCW      0.310900
      3 C2         -0.0560   -0.1290   -2.0960 c3        1 GCW      0.051100
      4 C3         -1.2620    0.1190   -1.1830 c3        1 GCW      0.138100
      5 C4         -0.9040   -0.1990    0.2820 c3        1 GCW      0.124100
      6 C5          0.4330    0.4240    0.7120 c3        1 GCW     -0.003900
      7 C6          0.9470   -0.1990    2.0580 c         1 GCW      0.934600
      8 O2         -0.4000    0.3440   -3.3910 oh        1 GCW     -0.620800
      9 O3         -2.3310   -0.7370   -1.5570 oh        1 GCW     -0.595800
     10 O4         -1.9500    0.3950    1.0580 os        1 GCW     -0.427600
     11 O5          1.4700    0.1730   -0.2380 os        1 GCW     -0.418600
     12 O6A         0.6690   -1.4070    2.2870 o         1 GCW     -0.817800
     13 O6B         1.5710    0.5720    2.8280 o         1 GCW     -0.817800
     14 HO1         2.8060   -0.3960   -1.7840 ho        1 GCW      0.433000
     15 H1          1.0370    1.7320   -1.6050 h2        1 GCW      0.060700
     16 H2          0.1630   -1.2320   -2.1530 h1        1 GCW      0.060700
     17 H3         -1.5920    1.1910   -1.2730 h1        1 GCW      0.049700
     18 H4         -0.8640   -1.3130    0.4360 h1        1 GCW      0.096700
     19 H5          0.3130    1.5340    0.8350 h1        1 GCW      0.044700
     20 H71        -2.9820    0.2840    2.7830 h1        1 GCW      0.038367
     21 H72        -2.9440   -1.2730    1.8120 h1        1 GCW      0.038367
     22 H73        -1.4520   -0.7500    2.7480 h1        1 GCW      0.038367
     23 HO2         0.4250    0.3770   -3.8910 ho        1 GCW      0.411000
     24 HO3        -2.5180   -0.5380   -2.4830 ho        1 GCW      0.397000
     25 C7         -2.3440   -0.3980    2.1680 c3        1 GCW      0.110700
@<TRIPOS>BOND
     1    1    2 1   
     2    1   14 1   
     3    2    3 1   
     4    2   11 1   
     5    2   15 1   
     6    3    4 1   
     7    3    8 1   
     8    3   16 1   
     9    4    5 1   
    10    4    9 1   
    11    4   17 1   
    12    5    6 1   
    13    5   10 1   
    14    5   18 1   
    15    6    7 1   
    16    6   11 1   
    17    6   19 1   
    18    7   12 1   
    19    7   13 1   
    20    8   23 1   
    21    9   24 1   
    22   10   25 1   
    23   20   25 1   
    24   21   25 1   
    25   22   25 1   
@<TRIPOS>SUBSTRUCTURE
     1 GCW         1 TEMP              0 ****  ****    0 ROOT
