@<TRIPOS>MOLECULE
GCW
   25    25     1     0     0
SMALL
bcc


@<TRIPOS>ATOM
      1 O1         -3.2060    0.9660   -0.7030 oh        1 GCW     -0.633800
      2 C1         -1.8110    0.9660   -0.7030 c3        1 GCW      0.310900
      3 C2         -1.3320    0.9660    0.7070 c3        1 GCW      0.051100
      4 C3          0.1170    0.7900    0.8190 c3        1 GCW      0.138100
      5 C4          0.6140   -0.3970    0.0580 c3        1 GCW      0.124100
      6 C5          0.1570   -0.4020   -1.4240 c3        1 GCW     -0.003900
      7 C6          0.6060   -1.6380   -2.1270 c         1 GCW      0.934600
      8 C7          2.5790   -1.4500    0.8660 c3        1 GCW      0.110700
      9 O2         -1.7000    2.2440    1.3290 oh        1 GCW     -0.620800
     10 O3          0.4620    0.6230    2.2310 oh        1 GCW     -0.595800
     11 O4          2.0320   -0.4010    0.0970 os        1 GCW     -0.427600
     12 O5         -1.3320   -0.2120   -1.4800 os        1 GCW     -0.418600
     13 O6A         1.6460   -1.6170   -2.8350 o         1 GCW     -0.817800
     14 O6B        -0.0560   -2.7030   -2.0130 o         1 GCW     -0.817800
     15 HO1        -3.5020    1.1450   -1.5200 ho        1 GCW      0.433000
     16 H1         -1.4970    1.7790   -1.1410 h2        1 GCW      0.060700
     17 H2         -1.7750    0.2420    1.1890 h1        1 GCW      0.060700
     18 H3          0.5590    1.5910    0.4790 h1        1 GCW      0.049700
     19 H4          0.2850   -1.2070    0.4910 h1        1 GCW      0.096700
     20 H5          0.6130    0.2880   -1.9430 h1        1 GCW      0.044700
     21 H71         2.6380   -1.1710    1.8000 h1        1 GCW      0.038367
     22 H72         2.0060   -2.2370    0.7970 h1        1 GCW      0.038367
     23 H73         3.4700   -1.6660    0.5340 h1        1 GCW      0.038367
     24 HO2        -2.3330    2.1070    1.9350 ho        1 GCW      0.411000
     25 HO3         0.7590    1.3940    2.5570 ho        1 GCW      0.397000
@<TRIPOS>BOND
     1    1    2 1   
     2    1   15 1   
     3    2    3 1   
     4    2   12 1   
     5    2   16 1   
     6    3    4 1   
     7    3    9 1   
     8    3   17 1   
     9    4    5 1   
    10    4   10 1   
    11    4   18 1   
    12    5    6 1   
    13    5   11 1   
    14    5   19 1   
    15    6    7 1   
    16    6   12 1   
    17    6   20 1   
    18    7   13 1   
    19    7   14 1   
    20    8   11 1   
    21    8   21 1   
    22    8   22 1   
    23    8   23 1   
    24    9   24 1   
    25   10   25 1   
@<TRIPOS>SUBSTRUCTURE
     1 GCW         1 TEMP              0 ****  ****    0 ROOT
