@<TRIPOS>MOLECULE
GCZ
   45    46     1     0     0
SMALL
bcc


@<TRIPOS>ATOM
      1 O2        518.4950 -426.9360  678.6590 o         1 GCZ     -0.492100
      2 O3       -849.4270  702.1630-1116.8650 o         1 GCZ     -0.396400
      3 O4       -849.3850  699.9920-1117.8170 o         1 GCZ     -0.396400
      4 S1       -849.2460  700.8280-1116.7640 s4        1 GCZ      1.662300
      5 N5        519.0720 -423.6820  677.8230 n3        1 GCZ     -0.485400
      6 N6        518.6700 -424.6200  678.8160 ny        1 GCZ     -0.465600
      7 N7        520.6680 -426.0880  678.4930 nt        1 GCZ     -0.596000
      8 C8        517.4520 -421.8930  677.2890 c3        1 GCZ     -0.090700
      9 C9        517.3330 -422.9910  676.2080 c3        1 GCZ     -0.090700
     10 C10       517.6150 -420.5610  676.5660 c3        1 GCZ     -0.074400
     11 C11       517.4230 -422.3020  674.8510 c3        1 GCZ     -0.074400
     12 C12       518.6790 -422.2770  678.1300 c3        1 GCZ      0.102800
     13 C13       518.5000 -423.9560  676.4740 c3        1 GCZ      0.102800
     14 C14       517.8840 -420.8730  675.1000 c3        1 GCZ     -0.084400
     15 C15       519.3240 -426.0220  678.6240 c         1 GCZ      0.664100
     16 C16      -848.8700  700.2380-1115.4020 ca        1 GCZ     -0.668500
     17 C17      -848.7070  701.0610-1114.2450 ca        1 GCZ      0.050000
     18 C18      -848.6640  698.8360-1115.2200 ca        1 GCZ      0.050000
     19 C19      -848.1680  699.1420-1112.8690 ca        1 GCZ      0.131700
     20 C20      -848.3670  700.5310-1113.0220 ca        1 GCZ     -0.167000
     21 C21      -848.3240  698.3070-1113.9950 ca        1 GCZ     -0.167000
     22 C22      -847.8150  698.5800-1111.5540 c3        1 GCZ     -0.110800
     23 H1        517.6480 -424.7890  678.8410 hn        1 GCZ      0.456300
     24 H2        521.2410 -425.2840  678.3790 hn        1 GCZ      0.371500
     25 H3        516.5400 -421.8690  677.9380 hc        1 GCZ      0.075200
     26 H4        516.3610 -423.5390  676.2990 hc        1 GCZ      0.075200
     27 H5        516.6720 -419.9650  676.6670 hc        1 GCZ      0.064200
     28 H6        518.4420 -419.9500  677.0060 hc        1 GCZ      0.064200
     29 H7        518.1210 -422.8380  674.1610 hc        1 GCZ      0.064200
     30 H8        516.4120 -422.3030  674.3660 hc        1 GCZ      0.064200
     31 H9        518.5010 -422.0910  679.2230 h1        1 GCZ      0.098700
     32 H10       519.5840 -421.6790  677.8190 h1        1 GCZ      0.098700
     33 H11       518.1860 -425.0260  676.3380 h1        1 GCZ      0.098700
     34 H12       519.3590 -423.7490  675.7730 h1        1 GCZ      0.098700
     35 H13       518.9760 -420.7720  674.8750 hc        1 GCZ      0.062200
     36 H14       517.3400 -420.1570  674.4340 hc        1 GCZ      0.062200
     37 H15      -848.8590  702.1550-1114.3470 ha        1 GCZ      0.178000
     38 H16      -848.7820  698.1650-1116.0940 ha        1 GCZ      0.178000
     39 H17      -848.2460  701.1930-1112.1450 ha        1 GCZ      0.187000
     40 H18      -848.1710  697.2170-1113.8880 ha        1 GCZ      0.187000
     41 H19      -847.4110  697.5400-1111.6400 hc        1 GCZ      0.093700
     42 H20      -848.7310  698.5470-1110.9030 hc        1 GCZ      0.093700
     43 H21      -847.0540  699.2210-1111.0380 hc        1 GCZ      0.093700
     44 H62       518.9640 -424.2520  679.7340 hn        1 GCZ      0.456300
     45 H72       521.0710 -426.9950  678.3750 hn        1 GCZ      0.371500
@<TRIPOS>BOND
     1    1   15 2   
     2    2    4 1   
     3    3    4 1   
     4    4   16 1   
     5    5    6 1   
     6    5   12 1   
     7    5   13 1   
     8    6   15 1   
     9    6   23 1   
    10    6   44 1   
    11    7   15 1   
    12    7   24 1   
    13    7   45 1   
    14    8    9 1   
    15    8   10 1   
    16    8   12 1   
    17    8   25 1   
    18    9   11 1   
    19    9   13 1   
    20    9   26 1   
    21   10   14 1   
    22   10   27 1   
    23   10   28 1   
    24   11   14 1   
    25   11   29 1   
    26   11   30 1   
    27   12   31 1   
    28   12   32 1   
    29   13   33 1   
    30   13   34 1   
    31   14   35 1   
    32   14   36 1   
    33   16   17 ar  
    34   16   18 ar  
    35   17   20 ar  
    36   17   37 1   
    37   18   21 ar  
    38   18   38 1   
    39   19   20 ar  
    40   19   21 ar  
    41   19   22 1   
    42   20   39 1   
    43   21   40 1   
    44   22   41 1   
    45   22   42 1   
    46   22   43 1   
@<TRIPOS>SUBSTRUCTURE
     1 GCZ         1 TEMP              0 ****  ****    0 ROOT
