@<TRIPOS>MOLECULE
GCZ
   45    46     1     0     0
SMALL
bcc


@<TRIPOS>ATOM
      1 O2        239.2860 -464.7340  700.5840 o         1 GCZ     -0.492100
      2 O3       -389.7010  775.3760-1149.6960 o         1 GCZ     -0.396400
      3 O4       -388.3770  777.2030-1150.4240 o         1 GCZ     -0.396400
      4 S1       -388.5300  775.8930-1150.1310 s4        1 GCZ      1.662300
      5 N5        238.3630 -467.4470  698.7400 n3        1 GCZ     -0.485400
      6 N6        238.2890 -466.0380  698.9330 n4        1 GCZ     -0.465600
      7 N7        240.7670 -465.7490  699.0860 n         1 GCZ     -0.596000
      8 C8        236.2080 -468.6590  698.7210 c3        1 GCZ     -0.090700
      9 C9        236.8390 -468.8170  700.1220 c3        1 GCZ     -0.090700
     10 C10       235.8350 -470.0550  698.2330 c3        1 GCZ     -0.074400
     11 C11       236.8320 -470.3030  700.4580 c3        1 GCZ     -0.074400
     12 C12       237.2880 -467.9880  697.8580 c3        1 GCZ      0.102800
     13 C13       238.2560 -468.2320  700.0020 c3        1 GCZ      0.102800
     14 C14       236.4850 -471.0540  699.1800 c3        1 GCZ     -0.084400
     15 C15       239.5600 -465.4550  699.6210 c         1 GCZ      0.664100
     16 C16      -387.3300  774.9580-1150.2970 ca        1 GCZ     -0.668500
     17 C17      -387.4190  773.5610-1150.0060 ca        1 GCZ      0.050000
     18 C18      -386.0620  775.4340-1150.7510 ca        1 GCZ      0.050000
     19 C19      -385.0970  773.2170-1150.6070 ca        1 GCZ      0.131700
     20 C20      -386.3390  772.7210-1150.1560 ca        1 GCZ     -0.167000
     21 C21      -384.9830  774.5920-1150.9010 ca        1 GCZ     -0.167000
     22 C22      -383.9470  772.3090-1150.7610 c3        1 GCZ     -0.110800
     23 H1        238.1940 -465.5970  698.0060 hn        1 GCZ      0.456300
     24 H2        241.5710 -465.3630  699.5370 hn        1 GCZ      0.371500
     25 H3        235.2980 -468.0090  698.7620 hc        1 GCZ      0.075200
     26 H4        236.2580 -468.2450  700.8900 hc        1 GCZ      0.075200
     27 H5        236.1640 -470.2260  697.1780 hc        1 GCZ      0.064200
     28 H6        234.7200 -470.1700  698.2550 hc        1 GCZ      0.064200
     29 H7        237.8160 -470.6390  700.8690 hc        1 GCZ      0.064200
     30 H8        236.0590 -470.5030  701.2450 hc        1 GCZ      0.064200
     31 H9        237.8290 -468.7490  697.2250 h1        1 GCZ      0.098700
     32 H10       236.8440 -467.2190  697.1710 h1        1 GCZ      0.098700
     33 H11       239.0180 -469.0530  699.8710 h1        1 GCZ      0.098700
     34 H12       238.5320 -467.6380  700.9140 h1        1 GCZ      0.098700
     35 H13       235.7950 -471.9080  699.3930 hc        1 GCZ      0.062200
     36 H14       237.4110 -471.4810  698.7170 hc        1 GCZ      0.062200
     37 H15      -388.3870  773.1540-1149.6500 ha        1 GCZ      0.178000
     38 H16      -385.9540  776.5110-1150.9880 ha        1 GCZ      0.178000
     39 H17      -386.4380  771.6450-1149.9230 ha        1 GCZ      0.187000
     40 H18      -384.0150  774.9920-1151.2560 ha        1 GCZ      0.187000
     41 H19      -384.2240  771.4370-1151.4110 hc        1 GCZ      0.093700
     42 H20      -383.0630  772.8250-1151.2120 hc        1 GCZ      0.093700
     43 H21      -383.6470  771.9030-1149.7580 hc        1 GCZ      0.093700
     44 H62       237.4910 -465.7400  699.5240 hn        1 GCZ      0.456300
     45 H72       240.8910 -466.4210  698.3650 hn        1 GCZ      0.371500
@<TRIPOS>BOND
     1    1   15 2   
     2    2    4 1   
     3    3    4 1   
     4    4   16 1   
     5    5    6 1   
     6    5   12 1   
     7    5   13 1   
     8    6   15 1   
     9    6   23 1   
    10    6   44 1   
    11    7   15 1   
    12    7   24 1   
    13    7   45 1   
    14    8    9 1   
    15    8   10 1   
    16    8   12 1   
    17    8   25 1   
    18    9   11 1   
    19    9   13 1   
    20    9   26 1   
    21   10   14 1   
    22   10   27 1   
    23   10   28 1   
    24   11   14 1   
    25   11   29 1   
    26   11   30 1   
    27   12   31 1   
    28   12   32 1   
    29   13   33 1   
    30   13   34 1   
    31   14   35 1   
    32   14   36 1   
    33   16   17 ar  
    34   16   18 ar  
    35   17   20 ar  
    36   17   37 1   
    37   18   21 ar  
    38   18   38 1   
    39   19   20 ar  
    40   19   21 ar  
    41   19   22 1   
    42   20   39 1   
    43   21   40 1   
    44   22   41 1   
    45   22   42 1   
    46   22   43 1   
@<TRIPOS>SUBSTRUCTURE
     1 GCZ         1 TEMP              0 ****  ****    0 ROOT
