@<TRIPOS>MOLECULE
GD1
   20    15     1     0     0
SMALL
bcc


@<TRIPOS>ATOM
      1 O6         -2.2400   -0.0710   -1.0170 o         1 GD1     -0.349000
      2 C6         -1.0260   -0.0710   -1.0170 c1        1 GD1      0.389000
      3 C5         -0.2730   -0.0710    0.2870 c1        1 GD1     -0.170000
      4 C7         -0.6960   -0.0710    1.5950 c1        1 GD1     -0.170000
      5 C77        -1.9800   -0.2380    2.3770 c1        1 GD1      0.001000
      6 N77        -2.6770    0.8140    2.7220 n1        1 GD1     -0.231000
      7 N1         -0.3240   -0.0710   -2.2290 n3        1 GD1     -0.345000
      8 C2          1.1010   -0.0710   -2.2270 c2        1 GD1      0.234000
      9 N2          1.8110   -0.0540   -3.4550 n3        1 GD1     -0.329000
     10 N3          1.8230   -0.0710   -0.9770 n1        1 GD1     -0.253000
     11 C4          1.0960   -0.0710    0.2850 c1        1 GD1     -0.014500
     12 N9          1.5250   -0.0710    1.5980 n2        1 GD1     -0.163000
     13 C8          0.4220   -0.0710    2.4030 c1        1 GD1     -0.014500
     14 H1         -2.2890   -1.1310    2.6240 ha        1 GD1      0.176000
     15 H2         -2.3890    1.6480    2.4920 DU        1 GD1      0.187000
     16 H3         -0.7790   -0.0830   -3.0190 hn        1 GD1      0.249000
     17 H4          1.3560   -0.0560   -4.2460 hn        1 GD1      0.214500
     18 H5          2.7230   -0.0380   -3.4550 hn        1 GD1      0.214500
     19 H6          2.3920   -0.0710    1.8790 DU        1 GD1      0.187000
     20 H7          0.4250   -0.0780    3.3790 DU        1 GD1      0.187000
@<TRIPOS>BOND
     1    1    2 1   
     2    2    7 1   
     3    3    4 1   
     4    3   11 1   
     5    4   13 1   
     6    5    6 1   
     7    5   14 1   
     8    7    8 1   
     9    7   16 1   
    10    8    9 1   
    11    8   10 1   
    12    9   17 1   
    13    9   18 1   
    14   11   12 1   
    15   12   13 1   
@<TRIPOS>SUBSTRUCTURE
     1 GD1         1 TEMP              0 ****  ****    0 ROOT
