@<TRIPOS>MOLECULE
GD1
   20    21     1     0     0
SMALL
bcc


@<TRIPOS>ATOM
      1 O6         -0.2570   -2.3850    0.5430 o         1 GD1     -0.633500
      2 C6          0.2800   -1.2840    0.3240 c         1 GD1      0.752100
      3 C5         -0.3640   -0.0340    0.0150 cc        1 GD1     -0.262600
      4 C7         -1.7360    0.3650   -0.1320 cc        1 GD1     -0.152900
      5 C77        -2.8820   -0.5150    0.0100 ce        1 GD1      0.502800
      6 N77        -4.0920   -0.1090   -0.1380 n2        1 GD1     -0.784100
      7 N1          1.6980   -1.2260    0.3690 n         1 GD1     -0.504400
      8 C2          2.4050   -0.0230    0.1640 cc        1 GD1      0.672800
      9 N2          3.8070   -0.0590    0.3630 nh        1 GD1     -0.887800
     10 N3          1.8290    1.1580   -0.1530 nd        1 GD1     -0.676100
     11 C4          0.4420    1.1320   -0.2020 cd        1 GD1      0.190100
     12 N9         -0.4120    2.2020   -0.4730 na        1 GD1     -0.170100
     13 C8         -1.7280    1.7350   -0.4300 cd        1 GD1     -0.098300
     14 H1         -2.5830   -1.5620    0.2590 h4        1 GD1     -0.004200
     15 H2         -4.7860   -0.8170   -0.0130 hn        1 GD1      0.385400
     16 H3          2.1830   -2.0520    0.6440 hn        1 GD1      0.334500
     17 H4          4.2590   -0.8810    0.0280 hn        1 GD1      0.416300
     18 H5          4.2790    0.7860    0.1150 hn        1 GD1      0.416300
     19 H6         -0.1270    3.1280   -0.6600 hn        1 GD1      0.311700
     20 H7         -2.5720    2.4050   -0.6140 h4        1 GD1      0.190000
@<TRIPOS>BOND
     1    1    2 2   
     2    2    3 1   
     3    2    7 1   
     4    3    4 1   
     5    3   11 2   
     6    4    5 1   
     7    4   13 2   
     8    5    6 2   
     9    5   14 1   
    10    6   15 1   
    11    7    8 1   
    12    7   16 1   
    13    8    9 1   
    14    8   10 2   
    15    9   17 1   
    16    9   18 1   
    17   10   11 1   
    18   11   12 1   
    19   12   13 1   
    20   12   19 1   
    21   13   20 1   
@<TRIPOS>SUBSTRUCTURE
     1 GD1         1 TEMP              0 ****  ****    0 ROOT
