@<TRIPOS>MOLECULE
GD1
   21    22     1     0     0
SMALL
bcc


@<TRIPOS>ATOM
      1 O6         -0.0930   -0.0040   -0.1910 o         1 GD1     -0.549500
      2 C6          1.1310   -0.0040   -0.0290 c         1 GD1      0.752100
      3 C5          1.8880   -0.0020    1.2060 cc        1 GD1     -0.165600
      4 C7          1.5270    0.0020    2.5840 cc        1 GD1     -0.173900
      5 C77         0.2160    0.0050    3.2270 ce        1 GD1      0.477800
      6 N77        -0.9540    0.0030    2.7270 n2        1 GD1     -0.711100
      7 N1          1.9240   -0.0080   -1.2230 ns        1 GD1     -0.498400
      8 C2          3.3190   -0.0090   -1.1420 cc        1 GD1      0.492800
      9 N2          4.0820   -0.0130   -2.4330 nz        1 GD1     -0.793600
     10 N3          4.0620   -0.0060   -0.0370 nd        1 GD1     -0.527100
     11 C4          3.3300   -0.0030    1.1420 cd        1 GD1      0.086100
     12 N9          3.8240   -0.0000    2.4490 na        1 GD1     -0.112100
     13 C8          2.7440    0.0030    3.3130 cd        1 GD1     -0.063300
     14 H1          0.2780    0.0090    4.3400 h4        1 GD1      0.029800
     15 H2         -1.0580   -0.0000    1.7340 hn        1 GD1      0.414400
     16 H3          1.4420   -0.0100   -2.0970 hn        1 GD1      0.351500
     17 H4          3.8430   -0.8550   -2.9700 hn        1 GD1      0.482133
     18 H5          3.8440    0.8280   -2.9740 hn        1 GD1      0.482133
     19 H6          4.7840   -0.0000    2.7000 hn        1 GD1      0.335700
     20 H7          2.8880    0.0060    4.4000 h4        1 GD1      0.209000
     21 H23         5.0950   -0.0130   -2.2380 hn        1 GD1      0.482133
@<TRIPOS>BOND
     1    1    2 2   
     2    2    3 1   
     3    2    7 1   
     4    3    4 1   
     5    3   11 2   
     6    4    5 1   
     7    4   13 2   
     8    5    6 2   
     9    5   14 1   
    10    6   15 1   
    11    7    8 1   
    12    7   16 1   
    13    8    9 1   
    14    8   10 2   
    15    9   17 1   
    16    9   18 1   
    17    9   21 1   
    18   10   11 1   
    19   11   12 1   
    20   12   13 1   
    21   12   19 1   
    22   13   20 1   
@<TRIPOS>SUBSTRUCTURE
     1 GD1         1 TEMP              0 ****  ****    0 ROOT
