@<TRIPOS>MOLECULE
GD7
   27    25     1     0     0
SMALL
bcc


@<TRIPOS>ATOM
      1 C1          1.1830    0.5250   -1.5330 c3        1 GD7     -0.088433
      2 C2          0.7740    0.0780    0.8830 c3        1 GD7     -0.088433
      3 C3          2.8490    1.2060    0.1680 c3        1 GD7     -0.088433
      4 C4          1.5760   -2.3120   -0.8620 c3        1 GD7     -0.113100
      5 C5          2.5210   -1.2420   -0.3280 c3        1 GD7      0.144100
      6 C6          1.8300    0.1400   -0.2130 c3        1 GD7     -0.057000
      7 OH          3.6180   -1.1270   -1.2200 os        1 GD7     -0.321900
      8 P1          5.0610   -1.6900   -0.7980 p2        1 GD7      0.546600
      9 O11         4.8960   -2.2810    0.5230 o         1 GD7     -0.478500
     10 H11         1.9260    0.4290   -2.3620 hc        1 GD7      0.037478
     11 H12         0.8210    1.5810   -1.4900 hc        1 GD7      0.037478
     12 H13         0.3120   -0.1390   -1.7540 hc        1 GD7      0.037478
     13 H21        -0.0690   -0.5950    0.5950 hc        1 GD7      0.037478
     14 H22         1.2210   -0.2950    1.8360 hc        1 GD7      0.037478
     15 H23         0.3550    1.0980    1.0620 hc        1 GD7      0.037478
     16 H31         3.4260    0.8910    1.0700 hc        1 GD7      0.037478
     17 H32         2.3290    2.1660    0.4000 hc        1 GD7      0.037478
     18 H33         3.5550    1.3900   -0.6760 hc        1 GD7      0.037478
     19 H42         0.6090   -2.2820   -0.3070 hc        1 GD7      0.045367
     20 H43         2.0220   -3.3270   -0.7300 hc        1 GD7      0.045367
     21 H5          1.3790   -2.1490   -1.9500 hc        1 GD7      0.045367
     22 H71         0.8180   -1.0010   -3.8830 hc        1 GD7      0.028200
     23 H72         0.7860   -2.7930   -4.1740 hc        1 GD7      0.028200
     24 H73         1.2720   -1.6660   -5.5110 hc        1 GD7      0.028200
     25 HP1        -0.4560   -1.7250   -4.9580 hc        1 GD7      0.028200
     26 H41         2.8930   -1.5380    0.6960 h1        1 GD7      0.069700
     27 C7          0.6050   -1.7960   -4.6320 c3        1 GD7     -0.112800
@<TRIPOS>BOND
     1    1    6 1   
     2    1   10 1   
     3    1   11 1   
     4    1   12 1   
     5    2    6 1   
     6    2   13 1   
     7    2   14 1   
     8    2   15 1   
     9    3    6 1   
    10    3   16 1   
    11    3   17 1   
    12    3   18 1   
    13    4    5 1   
    14    4   19 1   
    15    4   20 1   
    16    4   21 1   
    17    5    6 1   
    18    5    7 1   
    19    5   26 1   
    20    7    8 1   
    21    8    9 2   
    22   22   27 1   
    23   23   27 1   
    24   24   27 1   
    25   25   27 1   
@<TRIPOS>SUBSTRUCTURE
     1 GD7         1 TEMP              0 ****  ****    0 ROOT
