@<TRIPOS>MOLECULE
GD7
   27    26     1     0     0
SMALL
bcc


@<TRIPOS>ATOM
      1 C1         -2.3390   -0.7990    1.2000 c3        1 GD7     -0.087767
      2 C2         -2.9390    0.5020   -0.8390 c3        1 GD7     -0.087767
      3 C3         -1.6660   -1.6030   -1.0440 c3        1 GD7     -0.087767
      4 C4         -0.6810    1.6230    0.8740 c3        1 GD7     -0.112100
      5 C5         -0.5560    0.4420   -0.0810 c3        1 GD7      0.190100
      6 C6         -1.8730   -0.3650   -0.1800 c3        1 GD7     -0.060000
      7 OH          0.4790   -0.4050    0.3890 os        1 GD7     -0.612200
      8 P1          1.8670   -0.4930   -0.4340 p5        1 GD7      1.458300
      9 O11         1.8810    0.4290   -1.5630 o         1 GD7     -0.850300
     10 H11        -2.6710    0.0830    1.7990 hc        1 GD7      0.037033
     11 H12        -3.1960   -1.5090    1.1110 hc        1 GD7      0.037033
     12 H13        -1.5020   -1.3050    1.7400 hc        1 GD7      0.037033
     13 H21        -2.5590    0.9240   -1.8000 hc        1 GD7      0.037033
     14 H22        -3.8460   -0.1140   -1.0540 hc        1 GD7      0.037033
     15 H23        -3.2440    1.3420   -0.1720 hc        1 GD7      0.037033
     16 H31        -1.0000   -2.3340   -0.5270 hc        1 GD7      0.037033
     17 H32        -2.6470   -2.1040   -1.2330 hc        1 GD7      0.037033
     18 H33        -1.2190   -1.3250   -2.0270 hc        1 GD7      0.037033
     19 H42         0.2090    2.2910    0.7870 hc        1 GD7      0.044033
     20 H43        -1.5890    2.2200    0.6280 hc        1 GD7      0.044033
     21 H5         -0.2780    0.8100   -1.1140 h1        1 GD7      0.075700
     22 H71         2.6700   -0.5440    1.7340 hc        1 GD7      0.108700
     23 H72         3.9190   -0.9810    0.5330 hc        1 GD7      0.108700
     24 H73         3.4340    0.7250    0.7300 hc        1 GD7      0.108700
     25 HP1         1.9190   -1.7440   -0.7330 hp        1 GD7     -0.169400
     26 H41        -0.7520    1.2620    1.9270 hc        1 GD7      0.044033
     27 C7          3.0340   -0.3200    0.7000 c3        1 GD7     -0.449300
@<TRIPOS>BOND
     1    1    6 1   
     2    1   10 1   
     3    1   11 1   
     4    1   12 1   
     5    2    6 1   
     6    2   13 1   
     7    2   14 1   
     8    2   15 1   
     9    3    6 1   
    10    3   16 1   
    11    3   17 1   
    12    3   18 1   
    13    4    5 1   
    14    4   19 1   
    15    4   20 1   
    16    4   26 1   
    17    5    6 1   
    18    5    7 1   
    19    5   21 1   
    20    7    8 1   
    21    8    9 2   
    22    8   25 1   
    23    8   27 1   
    24   22   27 1   
    25   23   27 1   
    26   24   27 1   
@<TRIPOS>SUBSTRUCTURE
     1 GD7         1 TEMP              0 ****  ****    0 ROOT
