@<TRIPOS>MOLECULE
GD7
   27    25     1     0     0
SMALL
bcc


@<TRIPOS>ATOM
      1 C1          0.0090    0.4410   -0.1170 c3        1 GD7     -0.087433
      2 C2          1.6930   -0.3620    1.5340 c3        1 GD7     -0.087433
      3 C3          2.2630    1.4650   -0.0260 c3        1 GD7     -0.087433
      4 C4          1.1660   -2.1550   -0.8920 c3        1 GD7     -0.110100
      5 C5          2.0110   -0.8850   -0.8920 c3        1 GD7      0.143100
      6 C6          1.4850    0.1630    0.1190 c3        1 GD7     -0.056000
      7 OH          1.9710   -0.3240   -2.1930 os        1 GD7     -0.326900
      8 P1          3.2660   -0.4060   -3.1460 p2        1 GD7      0.549600
      9 O11         4.3000   -1.0770   -2.3660 o         1 GD7     -0.491500
     10 H11        -0.1620    0.6850   -1.1930 hc        1 GD7      0.037033
     11 H12        -0.3250    1.3030    0.5080 hc        1 GD7      0.037033
     12 H13        -0.6070   -0.4510    0.1510 hc        1 GD7      0.037033
     13 H21         1.0410   -1.2440    1.7370 hc        1 GD7      0.037033
     14 H22         2.7580   -0.6590    1.6870 hc        1 GD7      0.037033
     15 H23         1.4360    0.4350    2.2740 hc        1 GD7      0.037033
     16 H31         3.3610    1.2710    0.0210 hc        1 GD7      0.037033
     17 H32         1.9920    2.1660    0.8010 hc        1 GD7      0.037033
     18 H33         2.0170    1.9610   -0.9950 hc        1 GD7      0.037033
     19 H42         1.0180   -2.5170    0.1510 hc        1 GD7      0.043700
     20 H43         1.6740   -2.9620   -1.4740 hc        1 GD7      0.043700
     21 H5          0.1710   -1.9570   -1.3570 hc        1 GD7      0.043700
     22 H71         2.0330   -2.2290   -3.7750 hc        1 GD7      0.037700
     23 H72         1.7260   -2.3360   -5.5590 hc        1 GD7      0.037700
     24 H73         2.8920   -3.4750   -4.7690 hc        1 GD7      0.037700
     25 HP1         3.3410   -1.7360   -4.9950 hc        1 GD7      0.037700
     26 H41         3.0770   -1.1370   -0.6180 h1        1 GD7      0.071700
     27 C7          2.5020   -2.4310   -4.7650 c3        1 GD7     -0.129800
@<TRIPOS>BOND
     1    1    6 1   
     2    1   10 1   
     3    1   11 1   
     4    1   12 1   
     5    2    6 1   
     6    2   13 1   
     7    2   14 1   
     8    2   15 1   
     9    3    6 1   
    10    3   16 1   
    11    3   17 1   
    12    3   18 1   
    13    4    5 1   
    14    4   19 1   
    15    4   20 1   
    16    4   21 1   
    17    5    6 1   
    18    5    7 1   
    19    5   26 1   
    20    7    8 1   
    21    8    9 2   
    22   22   27 1   
    23   23   27 1   
    24   24   27 1   
    25   25   27 1   
@<TRIPOS>SUBSTRUCTURE
     1 GD7         1 TEMP              0 ****  ****    0 ROOT
