@<TRIPOS>MOLECULE
GD7
   27    26     1     0     0
SMALL
bcc


@<TRIPOS>ATOM
      1 C1         -1.7340    0.5840    1.2370 c3        1 GD7     -0.087767
      2 C2          0.4190    0.7360    2.5290 c3        1 GD7     -0.087767
      3 C3          0.1470    2.0230    0.3870 c3        1 GD7     -0.087767
      4 C4         -0.1820   -1.7640    0.9270 c3        1 GD7     -0.112100
      5 C5          0.3530   -0.4730    0.3360 c3        1 GD7      0.190100
      6 C6         -0.2020    0.7160    1.1210 c3        1 GD7     -0.060000
      7 C7          0.0830   -0.9170   -3.7490 c3        1 GD7     -0.449300
      8 OH         -0.0420   -0.3740   -1.0050 os        1 GD7     -0.612200
      9 P1          0.9320   -0.9530   -2.1300 p5        1 GD7      1.458300
     10 O11         1.2990   -2.3520   -1.7950 o         1 GD7     -0.850300
     11 H11        -1.6680    0.9460    0.3270 hc        1 GD7      0.037033
     12 H12        -2.4490    1.2640    1.2760 hc        1 GD7      0.037033
     13 H13        -1.5360    0.9830    2.1130 hc        1 GD7      0.037033
     14 H21         0.2800    1.6210    2.9360 hc        1 GD7      0.037033
     15 H22        -0.0090    0.0490    3.0860 hc        1 GD7      0.037033
     16 H23         1.3830    0.5530    2.4650 hc        1 GD7      0.037033
     17 H31        -0.2490    2.0090   -0.5120 hc        1 GD7      0.037033
     18 H32         1.1240    2.1070    0.3150 hc        1 GD7      0.037033
     19 H33        -0.2120    2.7880    0.8920 hc        1 GD7      0.037033
     20 H41         0.0400   -1.8030    1.8840 hc        1 GD7      0.044033
     21 H42         0.2260   -2.5300    0.4640 hc        1 GD7      0.044033
     22 H43        -1.1580   -1.7960    0.8150 hc        1 GD7      0.044033
     23 H5          1.3350   -0.4710    0.3900 h1        1 GD7      0.075700
     24 H71         0.6380   -1.3720   -4.4200 hc        1 GD7      0.108700
     25 H72        -0.0620    0.0150   -4.0220 hc        1 GD7      0.108700
     26 H73        -0.7820   -1.3750   -3.6750 hc        1 GD7      0.108700
     27 HP1         2.0260   -0.2130   -2.1900 hp        1 GD7     -0.169400
@<TRIPOS>BOND
     1    1    6 1   
     2    1   11 1   
     3    1   12 1   
     4    1   13 1   
     5    2    6 1   
     6    2   14 1   
     7    2   15 1   
     8    2   16 1   
     9    3    6 1   
    10    3   17 1   
    11    3   18 1   
    12    3   19 1   
    13    4    5 1   
    14    4   20 1   
    15    4   21 1   
    16    4   22 1   
    17    5    6 1   
    18    5    8 1   
    19    5   23 1   
    20    7    9 1   
    21    7   24 1   
    22    7   25 1   
    23    7   26 1   
    24    8    9 1   
    25    9   10 2   
    26    9   27 1   
@<TRIPOS>SUBSTRUCTURE
     1 GD7         1 TEMP              0 ****  ****    0 ROOT
