@<TRIPOS>MOLECULE
GD8
   27    26     1     0     0
SMALL
bcc


@<TRIPOS>ATOM
      1 C7          2.8550   -0.6490    0.5910 c3        1 GD8     -0.087433
      2 C4          1.6670   -0.2980   -0.2960 c3        1 GD8     -0.059000
      3 C6          2.1490    0.4110   -1.5500 c3        1 GD8     -0.087433
      4 C5          0.9730   -1.5950   -0.6950 c3        1 GD8     -0.087433
      5 C2          0.6920    0.6040    0.4990 c3        1 GD8      0.189100
      6 C3          1.2920    1.9740    0.7890 c3        1 GD8     -0.113100
      7 O2         -0.4960    0.7860   -0.2530 os        1 GD8     -0.612200
      8 P          -1.9280    0.5140    0.4450 p5        1 GD8      1.459300
      9 C1         -2.7630   -0.3570   -0.6600 c3        1 GD8     -0.451300
     10 O1         -1.7760   -0.0590    1.7770 o         1 GD8     -0.851300
     11 H7          3.4820    0.2500    0.7990 hc        1 GD8      0.036700
     12 H7A         2.5050   -1.0760    1.5620 hc        1 GD8      0.036700
     13 H7B         3.4970   -1.4070    0.0800 hc        1 GD8      0.036700
     14 H6          2.7200   -0.2970   -2.1980 hc        1 GD8      0.036700
     15 H6A         1.2740    0.8020   -2.1230 hc        1 GD8      0.036700
     16 H6B         2.8160    1.2660   -1.2870 hc        1 GD8      0.036700
     17 H5          0.5180   -2.0860    0.1980 hc        1 GD8      0.036700
     18 H5A         0.1790   -1.3950   -1.4530 hc        1 GD8      0.036700
     19 H5B         1.7130   -2.3000   -1.1470 hc        1 GD8      0.036700
     20 H2          0.4280    0.0830    1.4690 h1        1 GD8      0.076700
     21 H3          0.6660    2.5290    1.5280 hc        1 GD8      0.044367
     22 H3A         2.3160    1.8620    1.2150 hc        1 GD8      0.044367
     23 H3B         1.3480    2.5760   -0.1490 hc        1 GD8      0.044367
     24 H1         -2.9790   -1.3930   -0.2950 hc        1 GD8      0.110033
     25 H1A        -3.7520    0.0840   -0.9330 hc        1 GD8      0.110033
     26 H1B        -2.2030   -0.4770   -1.6220 hc        1 GD8      0.110033
     27 H1P        -2.4750    1.6780    0.3970 hp        1 GD8     -0.170400
@<TRIPOS>BOND
     1    1    2 1   
     2    1   11 1   
     3    1   12 1   
     4    1   13 1   
     5    2    3 1   
     6    2    4 1   
     7    2    5 1   
     8    3   14 1   
     9    3   15 1   
    10    3   16 1   
    11    4   17 1   
    12    4   18 1   
    13    4   19 1   
    14    5    6 1   
    15    5    7 1   
    16    5   20 1   
    17    6   21 1   
    18    6   22 1   
    19    6   23 1   
    20    7    8 1   
    21    8    9 1   
    22    8   10 2   
    23    8   27 1   
    24    9   24 1   
    25    9   25 1   
    26    9   26 1   
@<TRIPOS>SUBSTRUCTURE
     1 GD8         1 TEMP              0 ****  ****    0 ROOT
