@<TRIPOS>MOLECULE
GD8
   27    26     1     0     0
SMALL
bcc


@<TRIPOS>ATOM
      1 C7          0.2000    0.2220   -0.1480 c3        1 GD8     -0.087433
      2 C4          1.6840   -0.0920   -0.0100 c3        1 GD8     -0.059000
      3 C6          1.9770   -1.4690   -0.5830 c3        1 GD8     -0.087433
      4 C5          2.4650    0.9500   -0.8000 c3        1 GD8     -0.087433
      5 C2          2.0760   -0.0310    1.4860 c3        1 GD8      0.189100
      6 C3          1.4330   -1.1540    2.2900 c3        1 GD8     -0.113100
      7 O2          3.4840   -0.1440    1.6070 os        1 GD8     -0.612200
      8 P           4.2960    0.9390    2.4880 p5        1 GD8      1.459300
      9 C1          5.5890    1.3330    1.5650 c3        1 GD8     -0.451300
     10 O1          3.4320    2.0260    2.9330 o         1 GD8     -0.851300
     11 H7         -0.0450    1.1840    0.3620 hc        1 GD8      0.036700
     12 H7A        -0.0670    0.3150   -1.2290 hc        1 GD8      0.036700
     13 H7B        -0.4270   -0.5890    0.2920 hc        1 GD8      0.036700
     14 H6          1.2860   -2.2310   -0.1490 hc        1 GD8      0.036700
     15 H6A         1.8450   -1.4610   -1.6910 hc        1 GD8      0.036700
     16 H6B         3.0280   -1.7620   -0.3440 hc        1 GD8      0.036700
     17 H5          3.5480    0.6800   -0.8370 hc        1 GD8      0.036700
     18 H5A         2.0850    0.9980   -1.8490 hc        1 GD8      0.036700
     19 H5B         2.3510    1.9580   -0.3370 hc        1 GD8      0.036700
     20 H2          1.7590    0.9730    1.9010 h1        1 GD8      0.076700
     21 H3          1.5600   -0.9760    3.3850 hc        1 GD8      0.044367
     22 H3A         1.9080   -2.1310    2.0340 hc        1 GD8      0.044367
     23 H3B         0.3420   -1.2080    2.0700 hc        1 GD8      0.044367
     24 H1          5.6460    0.7240    0.6270 hc        1 GD8      0.110033
     25 H1A         6.5710    1.1980    2.0780 hc        1 GD8      0.110033
     26 H1B         5.5550    2.4030    1.2390 hc        1 GD8      0.110033
     27 H1P         4.7950    0.2060    3.4210 hp        1 GD8     -0.170400
@<TRIPOS>BOND
     1    1    2 1   
     2    1   11 1   
     3    1   12 1   
     4    1   13 1   
     5    2    3 1   
     6    2    4 1   
     7    2    5 1   
     8    3   14 1   
     9    3   15 1   
    10    3   16 1   
    11    4   17 1   
    12    4   18 1   
    13    4   19 1   
    14    5    6 1   
    15    5    7 1   
    16    5   20 1   
    17    6   21 1   
    18    6   22 1   
    19    6   23 1   
    20    7    8 1   
    21    8    9 1   
    22    8   10 2   
    23    8   27 1   
    24    9   24 1   
    25    9   25 1   
    26    9   26 1   
@<TRIPOS>SUBSTRUCTURE
     1 GD8         1 TEMP              0 ****  ****    0 ROOT
