@<TRIPOS>MOLECULE
GD8
   27    26     1     0     0
SMALL
bcc


@<TRIPOS>ATOM
      1 C7          0.3670   -0.6310   -2.0180 c3        1 GD8     -0.087433
      2 C4         -0.1560    0.5600   -1.2450 c3        1 GD8     -0.059000
      3 C6         -1.6690    0.5350   -1.2430 c3        1 GD8     -0.087433
      4 C5          0.3260    1.8370   -1.8990 c3        1 GD8     -0.087433
      5 C2          0.3520    0.4990    0.1780 c3        1 GD8      0.189100
      6 C3         -0.2850    1.6070    0.9880 c3        1 GD8     -0.113100
      7 O2          0.0180   -0.7450    0.7420 os        1 GD8     -0.612200
      8 P           0.9380   -1.3220    1.8910 p5        1 GD8      1.459300
      9 C1          0.0930   -2.7080    2.7040 c3        1 GD8     -0.451300
     10 O1          2.2150   -1.7940    1.3100 o         1 GD8     -0.851300
     11 H7          0.1630   -0.5170   -2.9700 hc        1 GD8      0.036700
     12 H7A        -0.0610   -1.4480   -1.6880 hc        1 GD8      0.036700
     13 H7B         1.3370   -0.6980   -1.8980 hc        1 GD8      0.036700
     14 H6         -1.9950    0.4310   -2.1610 hc        1 GD8      0.036700
     15 H6A        -1.9820   -0.2170   -0.6980 hc        1 GD8      0.036700
     16 H6B        -2.0090    1.3740   -0.8680 hc        1 GD8      0.036700
     17 H5         -0.2070    2.5920   -1.5720 hc        1 GD8      0.036700
     18 H5A         0.2270    1.7630   -2.8710 hc        1 GD8      0.036700
     19 H5B         1.2690    1.9820   -1.6760 hc        1 GD8      0.036700
     20 H2          1.3230    0.6090    0.1820 h1        1 GD8      0.076700
     21 H3         -0.3150    2.4270    0.4520 hc        1 GD8      0.044367
     22 H3A        -1.1960    1.3470    1.2380 hc        1 GD8      0.044367
     23 H3B         0.2450    1.7650    1.7970 hc        1 GD8      0.044367
     24 H1         -0.7250   -2.3840    3.1360 hc        1 GD8      0.110033
     25 H1A         0.6850   -3.1020    3.3780 hc        1 GD8      0.110033
     26 H1B        -0.1380   -3.3870    2.0350 hc        1 GD8      0.110033
     27 H1P         1.1800   -0.3760    2.7760 hp        1 GD8     -0.170400
@<TRIPOS>BOND
     1    1    2 1   
     2    1   11 1   
     3    1   12 1   
     4    1   13 1   
     5    2    3 1   
     6    2    4 1   
     7    2    5 1   
     8    3   14 1   
     9    3   15 1   
    10    3   16 1   
    11    4   17 1   
    12    4   18 1   
    13    4   19 1   
    14    5    6 1   
    15    5    7 1   
    16    5   20 1   
    17    6   21 1   
    18    6   22 1   
    19    6   23 1   
    20    7    8 1   
    21    8    9 1   
    22    8   10 2   
    23    8   27 1   
    24    9   24 1   
    25    9   25 1   
    26    9   26 1   
@<TRIPOS>SUBSTRUCTURE
     1 GD8         1 TEMP              0 ****  ****    0 ROOT
