@<TRIPOS>MOLECULE
GD8
   27    26     1     0     0
SMALL
bcc


@<TRIPOS>ATOM
      1 C7          0.2090    0.1620   -0.1770 c3        1 GD8     -0.087433
      2 C4          1.6960   -0.1280   -0.0130 c3        1 GD8     -0.059000
      3 C6          2.0140   -1.5180   -0.5400 c3        1 GD8     -0.087433
      4 C5          2.4730    0.8990   -0.8250 c3        1 GD8     -0.087433
      5 C2          2.0700   -0.0160    1.4850 c3        1 GD8      0.189100
      6 C3          1.4330   -1.1230    2.3160 c3        1 GD8     -0.113100
      7 O2          3.4780   -0.1070    1.6240 os        1 GD8     -0.612200
      8 P           4.2660    1.0130    2.4820 p5        1 GD8      1.459300
      9 C1          5.5630    1.3960    1.5600 c3        1 GD8     -0.451300
     10 O1          3.3830    2.1010    2.8840 o         1 GD8     -0.851300
     11 H7         -0.0530    1.1360    0.3020 hc        1 GD8      0.036700
     12 H7A        -0.0460    0.2180   -1.2630 hc        1 GD8      0.036700
     13 H7B        -0.4120   -0.6430    0.2820 hc        1 GD8      0.036700
     14 H6          1.3280   -2.2760   -0.0920 hc        1 GD8      0.036700
     15 H6A         1.8940   -1.5450   -1.6500 hc        1 GD8      0.036700
     16 H6B         3.0660   -1.7890   -0.2810 hc        1 GD8      0.036700
     17 H5          3.5590    0.6440   -0.8430 hc        1 GD8      0.036700
     18 H5A         2.1040    0.9110   -1.8790 hc        1 GD8      0.036700
     19 H5B         2.3400    1.9200   -0.3940 hc        1 GD8      0.036700
     20 H2          1.7360    0.9960    1.8660 h1        1 GD8      0.076700
     21 H3          1.5450   -0.9100    3.4060 hc        1 GD8      0.044367
     22 H3A         1.9230   -2.1020    2.0950 hc        1 GD8      0.044367
     23 H3B         0.3450   -1.1980    2.0850 hc        1 GD8      0.044367
     24 H1          5.6410    0.7570    0.6440 hc        1 GD8      0.110033
     25 H1A         6.5420    1.2960    2.0890 hc        1 GD8      0.110033
     26 H1B         5.5170    2.4540    1.1980 hc        1 GD8      0.110033
     27 H1P         4.7640    0.3150    3.4410 hp        1 GD8     -0.169400
@<TRIPOS>BOND
     1    1    2 1   
     2    1   11 1   
     3    1   12 1   
     4    1   13 1   
     5    2    3 1   
     6    2    4 1   
     7    2    5 1   
     8    3   14 1   
     9    3   15 1   
    10    3   16 1   
    11    4   17 1   
    12    4   18 1   
    13    4   19 1   
    14    5    6 1   
    15    5    7 1   
    16    5   20 1   
    17    6   21 1   
    18    6   22 1   
    19    6   23 1   
    20    7    8 1   
    21    8    9 1   
    22    8   10 2   
    23    8   27 1   
    24    9   24 1   
    25    9   25 1   
    26    9   26 1   
@<TRIPOS>SUBSTRUCTURE
     1 GD8         1 TEMP              0 ****  ****    0 ROOT
