@<TRIPOS>MOLECULE
GD9
   62    62     1     0     0
SMALL
bcc


@<TRIPOS>ATOM
      1 O3          1.1500    0.0770   -0.4620 os        1 GD9     -0.379900
      2 C4          1.5170   -1.5590    3.4720 ca        1 GD9      0.639200
      3 C5          0.2820   -4.8730    4.9020 cc        1 GD9     -0.190600
      4 C6          0.9040   -4.2110    5.9340 cd        1 GD9     -0.232800
      5 N1          2.0650   -1.9610    6.1890 nb        1 GD9     -0.630000
      6 C7         -0.3270   -6.2290    4.9910 c3        1 GD9      0.270000
      7 C8          3.1230    0.2270    6.2250 ce        1 GD9     -0.042000
      8 N2          2.1760   -0.5900    4.1380 nb        1 GD9     -0.696000
      9 C9         -0.3020   -7.7750    6.8880 c3        1 GD9      0.193100
     10 C10        -1.9920   -2.9830    9.6300 c1        1 GD9     -0.106500
     11 C11        -2.9500   -5.3620    5.9690 c2        1 GD9     -0.350000
     12 C12        -2.1860   -6.2860    6.5790 c2        1 GD9      0.048000
     13 N3          1.1510   -1.5010    2.0840 nh        1 GD9     -0.515700
     14 C13        -4.7790   -2.6120   10.1610 c3        1 GD9     -0.364300
     15 C14         2.2530    1.8540    0.5950 c2        1 GD9     -0.272000
     16 C15         1.7270    1.3410   -0.5200 c2        1 GD9      0.002100
     17 N4         -0.8520   -6.5850    6.2950 nh        1 GD9     -0.676400
     18 O2         -4.2410   -5.0930   10.2590 o         1 GD9     -0.652300
     19 O1         -5.1010   -4.2090    8.2280 o         1 GD9     -0.652300
     20 N5         -2.7450   -3.6520    8.7980 n3        1 GD9     -0.534900
     21 S1          0.2850   -4.0170    3.4170 ss        1 GD9      0.311500
     22 C2          1.4110   -2.9260    5.4950 ca        1 GD9      0.460100
     23 C1          1.1040   -2.7630    4.1040 ca        1 GD9     -0.359700
     24 C3          2.4100   -0.8500    5.4810 ca        1 GD9      0.655800
     25 C18         4.3730    0.7550    5.5700 c3        1 GD9     -0.040000
     26 C19         5.2710    1.3630    6.6060 c2        1 GD9     -0.158300
     27 C20         4.6440    1.9470    7.6130 c1        1 GD9     -0.204800
     28 C21         3.3240    1.9180    7.9520 cf        1 GD9      0.186900
     29 N6          2.6200    2.8700    8.6230 nh        1 GD9     -0.828600
     30 C22         2.6470    0.7000    7.4110 cf        1 GD9      0.000300
     31 C23         1.5030    0.1920    8.0710 ch        1 GD9      0.207500
     32 N7          0.5660   -0.2280    8.6200 n1        1 GD9     -0.366800
     33 C16         0.5710   -0.3490   -1.6920 c3        1 GD9      0.118700
     34 C17         0.5050   -2.5570    1.6490 c1        1 GD9     -0.144500
     35 H6          1.0170   -4.5650    6.9610 ha        1 GD9      0.167000
     36 H7          0.4720   -6.9760    4.7010 h1        1 GD9      0.051200
     37 H7A        -1.1490   -6.2990    4.2160 h1        1 GD9      0.051200
     38 H9          0.8170   -7.6880    6.9040 h1        1 GD9      0.036700
     39 H9A        -0.5810   -8.7050    6.3190 h1        1 GD9      0.036700
     40 H10        -0.6680   -7.8780    7.9430 h1        1 GD9      0.036700
     41 H10A       -0.9540   -2.7230    9.3600 ha        1 GD9      0.039500
     42 H11        -2.4660   -3.9780    7.8870 hn        1 GD9      0.422800
     43 H11A       -2.6170   -4.7630    5.1140 ha        1 GD9      0.133500
     44 H12        -3.9770   -5.1730    6.3090 ha        1 GD9      0.133500
     45 H12A       -2.5920   -6.8570    7.4400 h4        1 GD9      0.134000
     46 H13        -5.1570   -1.8220    9.4670 h1        1 GD9      0.132367
     47 H13A       -5.6100   -2.8310   10.8800 h1        1 GD9      0.132367
     48 H13B       -3.9630   -2.1340   10.7700 h1        1 GD9      0.132367
     49 H14         1.4040   -0.6790    1.5630 hn        1 GD9      0.448800
     50 H14A        2.7230    2.8450    0.5880 ha        1 GD9      0.132500
     51 H15         2.2490    1.3330    1.5600 ha        1 GD9      0.132500
     52 H15A        1.7130    1.8380   -1.5010 h4        1 GD9      0.137000
     53 H18         4.0760    1.4770    4.7620 hc        1 GD9      0.085200
     54 H19         4.9200   -0.0950    5.0790 hc        1 GD9      0.085200
     55 H20         6.3520    1.2160    6.5240 ha        1 GD9      0.147000
     56 HN6         3.1100    3.6660    8.9530 hn        1 GD9      0.434300
     57 H23         1.7790    2.6140    9.0780 hn        1 GD9      0.434300
     58 H16         1.3510   -0.4080   -2.4900 h1        1 GD9      0.044033
     59 H16A       -0.2490    0.3440   -1.9990 h1        1 GD9      0.044033
     60 H17         0.1640   -1.3660   -1.4620 h1        1 GD9      0.044033
     61 H17A        0.1950   -2.5690    0.5910 ha        1 GD9      0.048500
     62 S2         -4.2890   -4.0140    9.3650 s6        1 GD9      1.444900
@<TRIPOS>BOND
     1    1   16 1   
     2    1   33 1   
     3    2    8 ar  
     4    2   13 1   
     5    2   23 ar  
     6    3    4 2   
     7    3    6 1   
     8    3   21 1   
     9    4   22 1   
    10    4   35 1   
    11    5   22 ar  
    12    5   24 ar  
    13    6   17 1   
    14    6   36 1   
    15    6   37 1   
    16    7   24 1   
    17    7   25 1   
    18    7   30 2   
    19    8   24 ar  
    20    9   17 1   
    21    9   38 1   
    22    9   39 1   
    23    9   40 1   
    24   10   20 3   
    25   10   41 1   
    26   11   12 2   
    27   11   43 1   
    28   11   44 1   
    29   12   17 1   
    30   12   45 1   
    31   13   34 3   
    32   13   49 1   
    33   14   46 1   
    34   14   47 1   
    35   14   48 1   
    36   14   62 1   
    37   15   16 2   
    38   15   50 1   
    39   15   51 1   
    40   16   52 1   
    41   18   62 2   
    42   19   62 2   
    43   20   42 1   
    44   20   62 1   
    45   21   23 1   
    46   22   23 ar  
    47   25   26 1   
    48   25   53 1   
    49   25   54 1   
    50   26   27 2   
    51   26   55 1   
    52   27   28 2   
    53   28   29 1   
    54   28   30 1   
    55   29   56 1   
    56   29   57 1   
    57   30   31 1   
    58   31   32 3   
    59   33   58 1   
    60   33   59 1   
    61   33   60 1   
    62   34   61 1   
@<TRIPOS>SUBSTRUCTURE
     1 GD9         1 TEMP              0 ****  ****    0 ROOT
