@<TRIPOS>MOLECULE
GD9
   62    67     1     0     0
SMALL
bcc


@<TRIPOS>ATOM
      1 O3         -2.9620    6.0990   -0.2380 os        1 GD9     -0.410600
      2 C4         -2.3430    1.9440    0.3530 ca        1 GD9      0.699200
      3 C5          1.1280    0.4980    1.3410 cc        1 GD9     -0.098600
      4 C6          0.2910   -0.5510    1.0700 cd        1 GD9     -0.225800
      5 N1         -2.0930   -0.8750    0.3710 nb        1 GD9     -0.668000
      6 C7          2.5350    0.4030    1.8090 c3        1 GD9      0.237000
      7 C8         -4.4350   -1.0220   -0.2800 cp        1 GD9     -0.069500
      8 N2         -3.4040    1.1620    0.0370 nb        1 GD9     -0.739000
      9 C9          4.5950   -0.8490    1.7860 c3        1 GD9      0.153800
     10 C10         5.4630   -1.8980    1.0570 c3        1 GD9      0.222300
     11 C11         4.3590   -1.3680   -1.0290 c3        1 GD9      0.222300
     12 C12         3.4900   -0.3200   -0.3030 c3        1 GD9      0.153800
     13 N3         -2.4650    3.3600    0.4370 nh        1 GD9     -0.732300
     14 C13         7.2230   -3.2240   -1.6590 c3        1 GD9     -0.360300
     15 C14        -3.8210    3.9000    0.4130 c3        1 GD9      0.146300
     16 C15        -3.8280    5.4150    0.6600 c3        1 GD9      0.122900
     17 N4          3.3240   -0.6080    1.1150 n3        1 GD9     -0.724600
     18 O2          8.0720   -1.3650   -0.1820 o         1 GD9     -0.653300
     19 O1          6.9820   -0.7850   -2.2440 o         1 GD9     -0.653300
     20 N5          5.6010   -1.6480   -0.3550 n3        1 GD9     -0.824500
     21 S1          0.3800    2.0060    1.1530 ss        1 GD9      0.084500
     22 C2         -1.0300   -0.0900    0.6880 ca        1 GD9      0.456100
     23 C1         -1.0870    1.3430    0.6950 ca        1 GD9     -0.345700
     24 C3         -3.2370   -0.2090    0.0670 cp        1 GD9      0.721500
     25 C18        -5.7000   -0.6510    0.1750 ca        1 GD9     -0.118000
     26 C19        -6.8420   -1.4010   -0.1510 ca        1 GD9     -0.111000
     27 C20        -6.7740   -2.5400   -0.9410 ca        1 GD9     -0.126000
     28 C21        -5.5090   -2.9270   -1.3980 ca        1 GD9     -0.066200
     29 N6         -5.0860   -3.9680   -2.2500 na        1 GD9     -0.018100
     30 C22        -4.3220   -2.1710   -1.0650 ca        1 GD9     -0.178900
     31 C23        -3.2480   -2.9040   -1.7310 cc        1 GD9      0.368800
     32 N7         -3.7470   -3.9710   -2.3780 nd        1 GD9     -0.520100
     33 C16        -1.6280    5.6120   -0.1700 c3        1 GD9      0.122900
     34 C17        -1.5620    4.1030   -0.4370 c3        1 GD9      0.146300
     35 H6          0.5540   -1.6120    1.1250 ha        1 GD9      0.184000
     36 H7          3.0130    1.4280    1.7320 h1        1 GD9      0.048700
     37 H7A         2.5170    0.1210    2.9040 h1        1 GD9      0.048700
     38 H9          4.3730   -1.2490    2.8140 h1        1 GD9      0.045700
     39 H9A         5.1940    0.1010    1.9030 h1        1 GD9      0.045700
     40 H10         6.4830   -1.8930    1.5390 h1        1 GD9      0.061700
     41 H10A        4.9970   -2.9140    1.2080 h1        1 GD9      0.061700
     42 H11         3.7670   -2.3240   -1.1230 h1        1 GD9      0.061700
     43 H11A        4.5780   -0.9750   -2.0640 h1        1 GD9      0.061700
     44 H12         3.9380    0.7030   -0.4730 h1        1 GD9      0.045700
     45 H12A        2.4670   -0.3350   -0.7750 h1        1 GD9      0.045700
     46 H13         7.2580   -3.9760   -0.8340 h1        1 GD9      0.114033
     47 H13A        6.4180   -3.5500   -2.3600 h1        1 GD9      0.114033
     48 H13B        8.1870   -3.3300   -2.2190 h1        1 GD9      0.114033
     49 H14        -4.3290    3.6950   -0.5730 h1        1 GD9      0.058700
     50 H14A       -4.4150    3.4010    1.2280 h1        1 GD9      0.058700
     51 H15        -3.5350    5.6490    1.7170 h1        1 GD9      0.058450
     52 H15A       -4.8460    5.8300    0.4380 h1        1 GD9      0.058450
     53 H18        -5.8190    0.2470    0.8000 ha        1 GD9      0.148000
     54 H19        -7.8190   -1.0690    0.2340 ha        1 GD9      0.136000
     55 H20        -7.6750   -3.1130   -1.1980 ha        1 GD9      0.140000
     56 HN6        -5.5830   -4.8170   -2.3900 hn        1 GD9      0.312700
     57 H23        -2.1830   -2.6630   -1.7230 h4        1 GD9      0.065800
     58 H16        -1.0840    6.1650   -0.9800 h1        1 GD9      0.058450
     59 H16A       -1.1870    5.8580    0.8320 h1        1 GD9      0.058450
     60 H17        -0.5050    3.7550   -0.2540 h1        1 GD9      0.058700
     61 H17A       -1.8090    3.9190   -1.5230 h1        1 GD9      0.058700
     62 S2          7.0400   -1.6220   -1.1090 s6        1 GD9      1.460900
@<TRIPOS>BOND
     1    1   16 1   
     2    1   33 1   
     3    2    8 ar  
     4    2   13 1   
     5    2   23 ar  
     6    3    4 2   
     7    3    6 1   
     8    3   21 1   
     9    4   22 1   
    10    4   35 1   
    11    5   22 ar  
    12    5   24 ar  
    13    6   17 1   
    14    6   36 1   
    15    6   37 1   
    16    7   24 1   
    17    7   25 ar  
    18    7   30 ar  
    19    8   24 ar  
    20    9   10 1   
    21    9   17 1   
    22    9   38 1   
    23    9   39 1   
    24   10   20 1   
    25   10   40 1   
    26   10   41 1   
    27   11   12 1   
    28   11   20 1   
    29   11   42 1   
    30   11   43 1   
    31   12   17 1   
    32   12   44 1   
    33   12   45 1   
    34   13   15 1   
    35   13   34 1   
    36   14   46 1   
    37   14   47 1   
    38   14   48 1   
    39   14   62 1   
    40   15   16 1   
    41   15   49 1   
    42   15   50 1   
    43   16   51 1   
    44   16   52 1   
    45   18   62 2   
    46   19   62 2   
    47   20   62 1   
    48   21   23 1   
    49   22   23 ar  
    50   25   26 ar  
    51   25   53 1   
    52   26   27 ar  
    53   26   54 1   
    54   27   28 ar  
    55   27   55 1   
    56   28   29 1   
    57   28   30 ar  
    58   29   32 1   
    59   29   56 1   
    60   30   31 1   
    61   31   32 2   
    62   31   57 1   
    63   33   34 1   
    64   33   58 1   
    65   33   59 1   
    66   34   60 1   
    67   34   61 1   
@<TRIPOS>SUBSTRUCTURE
     1 GD9         1 TEMP              0 ****  ****    0 ROOT
