@<TRIPOS>MOLECULE
GD9
   62    53     1     0     0
SMALL
bcc


@<TRIPOS>ATOM
      1 O3         -0.6520    1.3100   -6.3030 os        1 GD9     -0.275000
      2 C4          0.6120    1.2590   -2.4990 c1        1 GD9      0.199000
      3 C5         -0.4490   -1.5570   -0.0190 c1        1 GD9     -0.337000
      4 C6          0.5250   -0.7730    0.7130 c1        1 GD9     -0.147000
      5 N1          1.9300    1.4470   -0.0470 n1        1 GD9     -0.157000
      6 C7         -1.0370   -2.8660    0.5160 c2        1 GD9     -0.008000
      7 C8          3.0220    3.4030   -0.5650 c1        1 GD9      0.038000
      8 N2          1.5170    2.2750   -2.2900 n1        1 GD9     -0.227000
      9 C9         -1.1310   -3.4150    2.8170 c3        1 GD9     -0.084500
     10 C10        -1.8880   -3.3220    4.1390 c3        1 GD9     -0.012500
     11 C11        -3.8740   -2.7710    2.9630 c3        1 GD9     -0.012500
     12 C12        -3.1250   -2.8650    1.6480 c3        1 GD9     -0.084500
     13 N3          0.0350    1.0460   -3.7770 n2        1 GD9     -0.238000
     14 C13        -4.1850   -5.8090    5.3120 c3        1 GD9     -0.943000
     15 C14         1.1320    1.1340   -4.8540 c3        1 GD9     -0.079000
     16 C15         0.5790    1.0410   -6.2730 c3        1 GD9     -0.033000
     17 N4         -1.7220   -2.6140    1.7990 n3        1 GD9     -0.261000
     18 O2         -5.4720   -3.5150    5.1830 o         1 GD9     -0.536900
     19 S2         -4.1530   -4.0540    5.2340 s4        1 GD9      2.033800
     20 O1         -3.6610   -3.4770    6.4750 o         1 GD9     -0.536900
     21 N5         -3.2810   -3.5700    3.9850 n2        1 GD9     -0.841000
     22 S1         -0.6090   -0.9260   -1.4150 ss        1 GD9      0.604000
     23 C2          1.0330    0.4370   -0.2500 c1        1 GD9      0.030000
     24 C1          0.3590    0.3320   -1.4900 c2        1 GD9     -0.475000
     25 C3          2.1820    2.3800   -1.0690 c1        1 GD9      0.097000
     26 C18         2.2500    4.3690    0.0640 c1        1 GD9     -0.118000
     27 C19         2.8670    5.4030    0.7700 c1        1 GD9     -0.119000
     28 C20         4.2470    5.4650    0.8430 c1        1 GD9     -0.119000
     29 C21         5.0340    4.4820    0.2030 c1        1 GD9     -0.057500
     30 N6          6.3870    4.3500    0.0610 n1        1 GD9     -0.192000
     31 C22         4.4320    3.4670   -0.4900 c1        1 GD9     -0.057500
     32 C23         5.4250    2.7040   -1.0630 c1        1 GD9     -0.133000
     33 N7          6.6270    3.2500   -0.7220 n2        1 GD9     -0.054000
     34 C16        -1.2540    2.2120   -5.6490 c3        1 GD9     -0.033000
     35 C17        -0.7160    2.3130   -4.2190 c3        1 GD9     -0.079000
     36 H6          0.7700   -0.8980    1.6450 DU        1 GD9      0.208333
     37 H7         -0.3130   -3.5160    0.6540 h4        1 GD9      0.093000
     38 H7A        -1.6780   -3.2250   -0.1310 h4        1 GD9      0.093000
     39 H9         -0.2520   -3.1340    2.9510 h1        1 GD9      0.081500
     40 H9A        -1.1230   -4.3460    2.5200 h1        1 GD9      0.081500
     41 H10        -1.5060   -4.0000    4.7850 h1        1 GD9      0.104250
     42 H10A       -1.7630   -2.4070    4.5170 h1        1 GD9      0.104250
     43 H11        -3.8820   -1.8450    3.2530 h1        1 GD9      0.104250
     44 H11A       -4.8180   -3.0740    2.8210 h1        1 GD9      0.104250
     45 H12        -3.5100   -2.1970    1.0070 h1        1 GD9      0.081500
     46 H12A       -3.2390   -3.7150    1.2990 h1        1 GD9      0.081500
     47 H13        -4.7490   -6.0990    6.0960 h1        1 GD9      0.151667
     48 H13A       -3.2530   -6.1550    5.4260 h1        1 GD9      0.151667
     49 H13B       -4.5750   -6.1730    4.4660 h1        1 GD9      0.151667
     50 H14         1.6080    1.9970   -4.7540 h1        1 GD9      0.106000
     51 H14A        1.8100    0.3590   -4.7080 h1        1 GD9      0.106000
     52 H15         0.7210    0.1160   -6.6170 h1        1 GD9      0.097250
     53 H15A        1.0820    1.7040   -6.8730 h1        1 GD9      0.097250
     54 H18         1.2700    4.3270    0.0130 ha        1 GD9      0.150000
     55 H19         2.3190    6.0910    1.2170 ha        1 GD9      0.138000
     56 H20         4.6780    6.1930    1.3400 ha        1 GD9      0.138000
     57 HN6         7.0310    4.9070    0.4300 DU        1 GD9      0.208333
     58 H23         5.2920    1.9130   -1.6150 DU        1 GD9      0.208333
     59 H16        -2.2140    2.0020   -5.6190 h1        1 GD9      0.097250
     60 H16A       -1.1280    3.0610   -6.0940 h1        1 GD9      0.097250
     61 H17        -0.0850    3.1050   -4.1620 h1        1 GD9      0.106000
     62 H17A       -1.4800    2.4640   -3.5980 h1        1 GD9      0.106000
@<TRIPOS>BOND
     1    1   16 1   
     2    1   34 1   
     3    2    8 1   
     4    2   24 1   
     5    3    4 1   
     6    3   22 1   
     7    4   23 1   
     8    5   25 1   
     9    6   17 1   
    10    6   37 1   
    11    6   38 1   
    12    7   26 1   
    13    9   10 1   
    14    9   17 1   
    15    9   39 1   
    16    9   40 1   
    17   10   21 1   
    18   10   41 1   
    19   10   42 1   
    20   11   12 1   
    21   11   21 1   
    22   11   43 1   
    23   11   44 1   
    24   12   17 1   
    25   12   45 1   
    26   12   46 1   
    27   13   15 1   
    28   13   35 1   
    29   14   19 1   
    30   14   47 1   
    31   14   48 1   
    32   14   49 1   
    33   15   16 1   
    34   15   50 1   
    35   15   51 1   
    36   16   52 1   
    37   16   53 1   
    38   18   19 1   
    39   19   20 1   
    40   22   24 1   
    41   23   24 1   
    42   26   54 1   
    43   27   28 1   
    44   27   55 1   
    45   28   56 1   
    46   29   31 1   
    47   30   33 1   
    48   32   33 1   
    49   34   35 1   
    50   34   59 1   
    51   34   60 1   
    52   35   61 1   
    53   35   62 1   
@<TRIPOS>SUBSTRUCTURE
     1 GD9         1 TEMP              0 ****  ****    0 ROOT
