@<TRIPOS>MOLECULE
GDA
   26    26     1     0     0
SMALL
bcc


@<TRIPOS>ATOM
      1 C1          0.3130    0.3920   -0.3290 c3        1 GDA      0.296900
      2 C2          1.7960    0.1180   -0.0140 c3        1 GDA      0.103100
      3 C3          1.9700   -0.1650    1.4900 c3        1 GDA      0.091100
      4 C4          1.3550    1.0080    2.2850 c3        1 GDA      0.081500
      5 C5         -0.1470    1.1070    1.9150 c3        1 GDA      0.123100
      6 C6         -0.8490    2.2820    2.6110 c3        1 GDA      0.119400
      7 N4          1.5720    0.8290    3.7530 n4        1 GDA     -0.821600
      8 O2          2.3060   -0.9610   -0.7560 oh        1 GDA     -0.567800
      9 O3          3.3310   -0.2480    1.8650 oh        1 GDA     -0.625800
     10 O5         -0.2500    1.3790    0.5230 os        1 GDA     -0.415600
     11 O6         -0.9080    1.9700    3.9930 oh        1 GDA     -0.662800
     12 O1         -0.3980   -0.7920   -0.0840 oh        1 GDA     -0.629800
     13 HA_1        0.1710    0.8030   -1.3680 h2        1 GDA      0.124700
     14 HA          2.4200    1.0060   -0.3210 h1        1 GDA      0.116700
     15 HB          1.4540   -1.1350    1.7480 h1        1 GDA      0.080700
     16 HC          1.8790    1.9680    1.9900 hx        1 GDA      0.126700
     17 H5         -0.6640    0.1360    2.1550 h1        1 GDA      0.087700
     18 H6C1       -0.2610    3.2290    2.4800 h1        1 GDA      0.077200
     19 H6C2       -1.8700    2.4150    2.1650 h1        1 GDA      0.077200
     20 H4N1        2.5730    0.6770    3.9250 hn        1 GDA      0.470467
     21 H4N2        1.0410    0.0190    4.0870 hn        1 GDA      0.470467
     22 H2          1.6710   -1.6920   -0.7050 ho        1 GDA      0.436000
     23 H3          3.8120   -0.6790    1.1400 ho        1 GDA      0.466000
     24 H6         -1.7500    2.2930    4.3370 ho        1 GDA      0.456000
     25 H1         -1.2610   -0.7250   -0.5150 ho        1 GDA      0.449000
     26 H43         1.2370    1.6630    4.2550 hn        1 GDA      0.470467
@<TRIPOS>BOND
     1    1    2 1   
     2    1   10 1   
     3    1   12 1   
     4    1   13 1   
     5    2    3 1   
     6    2    8 1   
     7    2   14 1   
     8    3    4 1   
     9    3    9 1   
    10    3   15 1   
    11    4    5 1   
    12    4    7 1   
    13    4   16 1   
    14    5    6 1   
    15    5   10 1   
    16    5   17 1   
    17    6   11 1   
    18    6   18 1   
    19    6   19 1   
    20    7   20 1   
    21    7   21 1   
    22    7   26 1   
    23    8   22 1   
    24    9   23 1   
    25   11   24 1   
    26   12   25 1   
@<TRIPOS>SUBSTRUCTURE
     1 GDA         1 TEMP              0 ****  ****    0 ROOT
