@<TRIPOS>MOLECULE
GDA
   25    25     1     0     0
SMALL
bcc


@<TRIPOS>ATOM
      1 C1         -2.5500    1.3370    0.0090 c3        1 GDA      0.342900
      2 C2         -1.7570    0.6410   -1.1110 c3        1 GDA      0.099100
      3 C3         -0.2620    0.6790   -0.7680 c3        1 GDA      0.062100
      4 C4          0.1770    2.1600   -0.6100 c3        1 GDA      0.150500
      5 C5         -0.6860    2.7710    0.5200 c3        1 GDA      0.106100
      6 C6         -0.4340    4.2750    0.6690 c3        1 GDA      0.144400
      7 N4          1.5910    2.3460   -0.3780 n3        1 GDA     -0.894800
      8 O2         -2.2280   -0.6880   -1.2210 oh        1 GDA     -0.578800
      9 O3          0.4970    0.1170   -1.8270 oh        1 GDA     -0.603800
     10 O5         -2.0810    2.6590    0.2120 os        1 GDA     -0.465600
     11 O6         -1.2320    4.8220    1.6970 oh        1 GDA     -0.599800
     12 O1         -2.3490    0.6560    1.2200 oh        1 GDA     -0.606800
     13 HA_1       -3.6380    1.4460   -0.2560 h2        1 GDA      0.083700
     14 HA         -1.9420    1.2020   -2.0710 h1        1 GDA      0.061700
     15 HB         -0.0870    0.1100    0.1880 h1        1 GDA      0.070700
     16 HC         -0.0720    2.6930   -1.5750 h1        1 GDA      0.079700
     17 H5         -0.4930    2.2390    1.4920 h1        1 GDA      0.065700
     18 H6C1       -0.6390    4.7930   -0.3040 h1        1 GDA      0.062700
     19 H6C2        0.6250    4.4580    0.9910 h1        1 GDA      0.062700
     20 H4N1        2.1100    1.9520   -1.1400 hn        1 GDA      0.358300
     21 H4N2        1.8740    1.9020    0.4740 hn        1 GDA      0.358300
     22 H2         -1.8700   -1.0320   -2.0490 ho        1 GDA      0.405000
     23 H3          0.4130   -0.8410   -1.7470 ho        1 GDA      0.408000
     24 H6         -2.1540    4.6650    1.4570 ho        1 GDA      0.409000
     25 H1         -2.9000    1.0880    1.8860 ho        1 GDA      0.418000
@<TRIPOS>BOND
     1    1    2 1   
     2    1   10 1   
     3    1   12 1   
     4    1   13 1   
     5    2    3 1   
     6    2    8 1   
     7    2   14 1   
     8    3    4 1   
     9    3    9 1   
    10    3   15 1   
    11    4    5 1   
    12    4    7 1   
    13    4   16 1   
    14    5    6 1   
    15    5   10 1   
    16    5   17 1   
    17    6   11 1   
    18    6   18 1   
    19    6   19 1   
    20    7   20 1   
    21    7   21 1   
    22    8   22 1   
    23    9   23 1   
    24   11   24 1   
    25   12   25 1   
@<TRIPOS>SUBSTRUCTURE
     1 GDA         1 TEMP              0 ****  ****    0 ROOT
