@<TRIPOS>MOLECULE
GDA
   25    25     1     0     0
SMALL
bcc


@<TRIPOS>ATOM
      1 C1         -0.8550   -0.6350   -1.5600 c3        1 GDA      0.308900
      2 C2          0.6580   -0.6350   -1.5600 c3        1 GDA      0.096100
      3 C3          1.2210   -0.6350   -0.1880 c3        1 GDA      0.069100
      4 C4          0.6450    0.4500    0.6590 c3        1 GDA      0.151500
      5 C5         -0.8740    0.4470    0.6470 c3        1 GDA      0.103100
      6 C6         -1.3660    1.6630    1.3650 c3        1 GDA      0.145400
      7 N4          1.1030    0.2730    2.0210 n3        1 GDA     -0.892800
      8 O2          1.1230   -1.8090   -2.2550 oh        1 GDA     -0.593800
      9 O3          2.6590   -0.4520   -0.2710 oh        1 GDA     -0.602800
     10 O5         -1.4250    0.4420   -0.7080 os        1 GDA     -0.456600
     11 O6         -2.7620    1.7750    1.1990 oh        1 GDA     -0.599800
     12 O1         -1.3020   -1.8560   -1.0940 oh        1 GDA     -0.638800
     13 HA_1       -1.1710   -0.5120   -2.4760 h2        1 GDA      0.084700
     14 HA          0.9740    0.1590   -2.0320 h1        1 GDA      0.100700
     15 HB          1.0350   -1.4970    0.2310 h1        1 GDA      0.050700
     16 HC          0.9620    1.3120    0.3280 h1        1 GDA      0.080700
     17 H5         -1.1910   -0.3470    1.1190 h1        1 GDA      0.063700
     18 H6C1       -1.1560    1.5870    2.3150 h1        1 GDA      0.064700
     19 H6C2       -0.9300    2.4560    0.9980 h1        1 GDA      0.064700
     20 H4N1        1.4240   -0.5740    2.1270 hn        1 GDA      0.359300
     21 H4N2        1.7660    0.8740    2.2000 hn        1 GDA      0.359300
     22 H2          1.4450   -1.5750   -3.0480 ho        1 GDA      0.422000
     23 H3          3.0650   -1.2260   -0.1170 ho        1 GDA      0.422000
     24 H6         -3.0660    2.4470    1.6920 ho        1 GDA      0.408000
     25 H1         -1.9840   -2.1310   -1.5920 ho        1 GDA      0.429000
@<TRIPOS>BOND
     1    1    2 1   
     2    1   10 1   
     3    1   12 1   
     4    1   13 1   
     5    2    3 1   
     6    2    8 1   
     7    2   14 1   
     8    3    4 1   
     9    3    9 1   
    10    3   15 1   
    11    4    5 1   
    12    4    7 1   
    13    4   16 1   
    14    5    6 1   
    15    5   10 1   
    16    5   17 1   
    17    6   11 1   
    18    6   18 1   
    19    6   19 1   
    20    7   20 1   
    21    7   21 1   
    22    8   22 1   
    23    9   23 1   
    24   11   24 1   
    25   12   25 1   
@<TRIPOS>SUBSTRUCTURE
     1 GDA         1 TEMP              0 ****  ****    0 ROOT
