@<TRIPOS>MOLECULE
GDA
   26    26     1     0     0
SMALL
bcc


@<TRIPOS>ATOM
      1 C1          0.3530    0.4070   -0.3390 c3        1 GDA      0.296900
      2 C2          1.8350    0.1600   -0.0020 c3        1 GDA      0.103100
      3 C3          1.9890   -0.1390    1.5010 c3        1 GDA      0.091100
      4 C4          1.3350    1.0120    2.3000 c3        1 GDA      0.081500
      5 C5         -0.1610    1.0850    1.9050 c3        1 GDA      0.123100
      6 C6         -0.8990    2.2360    2.6020 c3        1 GDA      0.119400
      7 N4          1.5310    0.8190    3.7680 nz        1 GDA     -0.821600
      8 O2          2.3800   -0.8990   -0.7480 oh        1 GDA     -0.567800
      9 O3          3.3440   -0.1990    1.8990 oh        1 GDA     -0.625800
     10 O5         -0.2450    1.3720    0.5150 os        1 GDA     -0.415600
     11 O6         -0.9760    1.9060    3.9800 oh        1 GDA     -0.662800
     12 O1         -0.3390   -0.7930   -0.1210 oh        1 GDA     -0.629800
     13 HA_1        0.2200    0.8290   -1.3760 h2        1 GDA      0.124700
     14 HA          2.4460    1.0640   -0.2870 h1        1 GDA      0.116700
     15 HB          1.4880   -1.1220    1.7380 h1        1 GDA      0.080700
     16 HC          1.8450    1.9850    2.0250 hx        1 GDA      0.126700
     17 H5         -0.6620    0.1000    2.1240 h1        1 GDA      0.087700
     18 H6C1       -1.9150    2.3540    2.1400 h1        1 GDA      0.077200
     19 H6C2       -0.3280    3.1970    2.4940 h1        1 GDA      0.077200
     20 H4N1        1.0110   -0.0060    4.0830 hn        1 GDA      0.470467
     21 H4N2        1.1710    1.6390    4.2750 hn        1 GDA      0.470467
     22 H2          1.7590   -1.6440   -0.7170 ho        1 GDA      0.436000
     23 H3          3.8470   -0.6100    1.1770 ho        1 GDA      0.466000
     24 H6         -1.8310    2.2050    4.3120 ho        1 GDA      0.456000
     25 H1         -1.1950   -0.7390   -0.5670 ho        1 GDA      0.449000
     26 H43         2.5320    0.6850    3.9570 hn        1 GDA      0.470467
@<TRIPOS>BOND
     1    1    2 1   
     2    1   10 1   
     3    1   12 1   
     4    1   13 1   
     5    2    3 1   
     6    2    8 1   
     7    2   14 1   
     8    3    4 1   
     9    3    9 1   
    10    3   15 1   
    11    4    5 1   
    12    4    7 1   
    13    4   16 1   
    14    5    6 1   
    15    5   10 1   
    16    5   17 1   
    17    6   11 1   
    18    6   18 1   
    19    6   19 1   
    20    7   20 1   
    21    7   21 1   
    22    7   26 1   
    23    8   22 1   
    24    9   23 1   
    25   11   24 1   
    26   12   25 1   
@<TRIPOS>SUBSTRUCTURE
     1 GDA         1 TEMP              0 ****  ****    0 ROOT
