@<TRIPOS>MOLECULE
GDA
   26    26     1     0     0
SMALL
bcc


@<TRIPOS>ATOM
      1 C1          0.2890    0.2170   -0.2500 c3        1 GDA      0.296900
      2 C2          1.7850    0.0190    0.0600 c3        1 GDA      0.103100
      3 C3          1.9860   -0.1670    1.5760 c3        1 GDA      0.091100
      4 C4          1.3340    1.0280    2.3080 c3        1 GDA      0.081500
      5 C5         -0.1740    1.0480    1.9530 c3        1 GDA      0.123100
      6 C6         -0.9130    2.2350    2.5870 c3        1 GDA      0.119400
      7 N4          1.5750    0.9450    3.7810 n4        1 GDA     -0.821600
      8 O2          2.3280   -1.0820   -0.6230 oh        1 GDA     -0.567800
      9 O3          3.3530   -0.1750    1.9370 oh        1 GDA     -0.625800
     10 O5         -0.3020    1.2310    0.5490 os        1 GDA     -0.415600
     11 O6         -0.9450    2.0040    3.9860 oh        1 GDA     -0.662800
     12 O1         -0.3730   -0.9760    0.0740 oh        1 GDA     -0.629800
     13 HA_1        0.1200    0.5600   -1.3100 h2        1 GDA      0.124700
     14 HA          2.3700    0.9100   -0.3070 h1        1 GDA      0.116700
     15 HB          1.5100   -1.1380    1.8980 h1        1 GDA      0.080700
     16 HC          1.8170    1.9870    1.9500 hx        1 GDA      0.126700
     17 H5         -0.6500    0.0730    2.2570 h1        1 GDA      0.087700
     18 H6C1       -1.9430    2.3020    2.1480 h1        1 GDA      0.077200
     19 H6C2       -0.3630    3.1940    2.3930 h1        1 GDA      0.077200
     20 H4N1        1.0790    0.1380    4.1690 hn        1 GDA      0.470467
     21 H4N2        2.5830    0.8420    3.9490 hn        1 GDA      0.470467
     22 H2          1.7220   -1.8330   -0.5200 ho        1 GDA      0.436000
     23 H3          3.8420   -0.6300    1.2320 ho        1 GDA      0.466000
     24 H6         -1.7970    2.3110    4.3210 ho        1 GDA      0.456000
     25 H1         -1.2430   -0.9670   -0.3490 ho        1 GDA      0.449000
     26 H43         1.2140    1.7940    4.2370 hn        1 GDA      0.470467
@<TRIPOS>BOND
     1    1    2 1   
     2    1   10 1   
     3    1   12 1   
     4    1   13 1   
     5    2    3 1   
     6    2    8 1   
     7    2   14 1   
     8    3    4 1   
     9    3    9 1   
    10    3   15 1   
    11    4    5 1   
    12    4    7 1   
    13    4   16 1   
    14    5    6 1   
    15    5   10 1   
    16    5   17 1   
    17    6   11 1   
    18    6   18 1   
    19    6   19 1   
    20    7   20 1   
    21    7   21 1   
    22    7   26 1   
    23    8   22 1   
    24    9   23 1   
    25   11   24 1   
    26   12   25 1   
@<TRIPOS>SUBSTRUCTURE
     1 GDA         1 TEMP              0 ****  ****    0 ROOT
