@<TRIPOS>MOLECULE
GDB
   52    52     1     0     0
SMALL
bcc


@<TRIPOS>ATOM
      1 N1          0.4190    1.9670   -0.0660 nz        1 GDB     -0.833600
      2 CA1         1.7880    1.4830   -0.4350 c3        1 GDB     -0.043500
      3 C1          2.6720    2.7120   -0.8860 c         1 GDB      0.942600
      4 O11         3.8900    2.4630   -1.0920 o         1 GDB     -0.796800
      5 O12         2.1010    3.8170   -1.0160 o         1 GDB     -0.796800
      6 CB1         1.7460    0.4220   -1.5360 c3        1 GDB     -0.086400
      7 CG1         3.1360   -0.0910   -1.8720 c3        1 GDB     -0.128400
      8 CD1         3.7700    0.7320   -2.9680 c         1 GDB      0.578100
      9 OE1         3.1950    1.2020   -3.9380 o         1 GDB     -0.429100
     10 N2          5.2590    0.9370   -2.8470 ny        1 GDB     -0.664800
     11 CA2         5.8360    1.9850   -3.7650 c3        1 GDB      0.062500
     12 C2          6.9520    1.3470   -4.6410 c         1 GDB      0.649100
     13 O2          7.3140    0.1730   -4.4080 o         1 GDB     -0.610100
     14 CB2         6.3740    3.1850   -2.9870 c3        1 GDB     -0.167300
     15 SG2         6.5430    4.5910   -4.0210 ss        1 GDB      0.039000
     16 N3          7.5140    2.1370   -5.6070 ns        1 GDB     -0.502900
     17 CA3         8.3310    1.5660   -6.6440 c3        1 GDB     -0.016000
     18 C3          7.5420    1.0720   -7.8460 c         1 GDB      0.600100
     19 O31         8.2250    0.6070   -8.9250 oh        1 GDB     -0.549100
     20 O32         6.3170    1.0360   -7.9570 o         1 GDB     -0.486000
     21 C1'         5.1500    5.5370   -3.8730 ca        1 GDB      0.033900
     22 C2'         5.0490    6.6760   -4.7150 ca        1 GDB     -0.194200
     23 N2'         6.1260    6.9600   -5.6960 no        1 GDB      0.314200
     24 O21         7.0630    6.1950   -5.7420 o         1 GDB     -0.184000
     25 O22         6.0430    7.9130   -6.4140 o         1 GDB     -0.184000
     26 C3'         3.9510    7.5450   -4.6530 ca        1 GDB      0.011000
     27 C4'         2.9250    7.2670   -3.7410 ca        1 GDB     -0.199200
     28 N4'         1.7400    8.1660   -3.6690 no        1 GDB      0.320200
     29 O41         1.7180    9.1490   -4.3550 o         1 GDB     -0.188500
     30 O42         0.8430    7.8690   -2.9280 o         1 GDB     -0.188500
     31 C5'         3.0000    6.1480   -2.8970 ca        1 GDB      0.003000
     32 C6'         4.1030    5.3040   -2.9740 ca        1 GDB     -0.167000
     33 HN11       -0.3090    1.4030   -0.5040 hn        1 GDB      0.463133
     34 HN12        0.3000    1.9540    0.9480 hn        1 GDB      0.463133
     35 HA1         2.2620    1.0500    0.4920 hx        1 GDB      0.108700
     36 HB11        1.1310   -0.4560   -1.1940 hc        1 GDB      0.082700
     37 HB12        1.2610    0.8390   -2.4610 hc        1 GDB      0.082700
     38 HG11        3.0590   -1.1460   -2.2620 hc        1 GDB      0.106700
     39 HG12        3.7720   -0.1000   -0.9460 hc        1 GDB      0.106700
     40 HN2         5.4380    1.2280   -1.8690 hn        1 GDB      0.486800
     41 HA2         5.0050    2.3270   -4.4610 hx        1 GDB      0.147700
     42 HB21        7.4150    2.9680   -2.6240 h1        1 GDB      0.128700
     43 HB22        5.7480    3.3910   -2.0750 h1        1 GDB      0.128700
     44 HN3         9.1800    0.6640   -8.7720 ho        1 GDB      0.435000
     45 HA31        9.0560    2.3600   -6.9890 h1        1 GDB      0.108200
     46 HA32        8.9120    0.6920   -6.2250 h1        1 GDB      0.108200
     47 H3'         3.8970    8.4340   -5.3160 ha        1 GDB      0.213000
     48 H5'         2.1950    5.9230   -2.1680 ha        1 GDB      0.205000
     49 H6'         4.1150    4.4390   -2.2830 ha        1 GDB      0.187000
     50 H13         0.3390    2.9540   -0.3970 hn        1 GDB      0.463133
     51 H22         5.7360    0.0350   -3.0250 hn        1 GDB      0.486800
     52 H32         7.1070    3.0340   -5.7960 hn        1 GDB      0.351500
@<TRIPOS>BOND
     1    1    2 1   
     2    1   33 1   
     3    1   34 1   
     4    1   50 1   
     5    2    3 1   
     6    2    6 1   
     7    2   35 1   
     8    3    4 1   
     9    3    5 1   
    10    6    7 1   
    11    6   36 1   
    12    6   37 1   
    13    7    8 1   
    14    7   38 1   
    15    7   39 1   
    16    8    9 2   
    17    8   10 1   
    18   10   11 1   
    19   10   40 1   
    20   10   51 1   
    21   11   12 1   
    22   11   14 1   
    23   11   41 1   
    24   12   13 2   
    25   12   16 1   
    26   14   15 1   
    27   14   42 1   
    28   14   43 1   
    29   15   21 1   
    30   16   17 1   
    31   16   52 1   
    32   17   18 1   
    33   17   45 1   
    34   17   46 1   
    35   18   19 1   
    36   18   20 2   
    37   19   44 1   
    38   21   22 ar  
    39   21   32 ar  
    40   22   23 1   
    41   22   26 ar  
    42   23   24 1   
    43   23   25 1   
    44   26   27 ar  
    45   26   47 1   
    46   27   28 1   
    47   27   31 ar  
    48   28   29 1   
    49   28   30 1   
    50   31   32 ar  
    51   31   48 1   
    52   32   49 1   
@<TRIPOS>SUBSTRUCTURE
     1 GDB         1 TEMP              0 ****  ****    0 ROOT
