@<TRIPOS>MOLECULE
GDB
   49    49     1     0     0
SMALL
bcc


@<TRIPOS>ATOM
      1 N1         15.1230   10.4360   23.1320 n3        1 GDB     -0.887800
      2 CA1        14.8660    9.6480   24.3340 c3        1 GDB      0.019500
      3 C1         15.7670    8.3750   24.4590 c         1 GDB      0.887600
      4 O11        15.7670    7.7580   25.5610 o         1 GDB     -0.846800
      5 O12        16.4700    8.0410   23.4620 o         1 GDB     -0.846800
      6 CB1        13.3900    9.2480   24.4530 c3        1 GDB     -0.044400
      7 CG1        13.0540    8.9090   25.8890 c3        1 GDB     -0.163400
      8 CD1        11.6470    8.3730   26.0240 c         1 GDB      0.668100
      9 OE1        10.8680    8.2230   25.0550 o         1 GDB     -0.662100
     10 N2         11.2120    8.0650   27.3080 n         1 GDB     -0.560900
     11 CA2         9.9460    7.4140   27.5400 c3        1 GDB      0.045700
     12 C2          9.6230    7.4610   29.0630 c         1 GDB      0.630100
     13 O2         10.3440    6.7930   29.8430 o         1 GDB     -0.663100
     14 CB2         9.9340    5.9410   27.1000 c3        1 GDB     -0.145300
     15 SG2         8.3750    5.1460   27.0380 ss        1 GDB      0.086000
     16 N3          8.5920    8.2410   29.4640 n         1 GDB     -0.503900
     17 CA3         8.1520    8.3370   30.8310 c3        1 GDB     -0.048000
     18 C3          6.8450    9.1700   30.9980 c         1 GDB      0.911600
     19 O31         6.2870    9.6480   29.9710 o         1 GDB     -0.835800
     20 O32         6.4310    9.3080   32.1810 o         1 GDB     -0.835800
     21 C1'         7.6310    5.5560   25.6110 ca        1 GDB      0.053900
     22 C2'         6.4140    4.9240   25.2370 ca        1 GDB     -0.223200
     23 N2'         5.8070    3.8700   26.0810 no        1 GDB      0.317200
     24 O21         6.3360    3.5530   27.1130 o         1 GDB     -0.213500
     25 O22         4.7960    3.3320   25.7030 o         1 GDB     -0.213500
     26 C3'         5.7410    5.2600   24.0500 ca        1 GDB      0.013000
     27 C4'         6.2900    6.2240   23.2030 ca        1 GDB     -0.234200
     28 N4'         5.5960    6.5750   21.9460 no        1 GDB      0.322200
     29 O41         4.5690    6.0110   21.6630 o         1 GDB     -0.224500
     30 O42         6.0710    7.4120   21.2240 o         1 GDB     -0.224500
     31 C5'         7.5050    6.8620   23.5410 ca        1 GDB     -0.005000
     32 C6'         8.1450    6.5240   24.7150 ca        1 GDB     -0.184000
     33 HN11       14.7120    9.9600   22.3470 hn        1 GDB      0.330800
     34 HN12       16.1180   10.4240   22.9760 hn        1 GDB      0.330800
     35 HA1        15.1270   10.3150   25.2070 h1        1 GDB      0.040700
     36 HB11       12.7190   10.0750   24.1030 hc        1 GDB      0.039700
     37 HB12       13.1910    8.3570   23.8020 hc        1 GDB      0.039700
     38 HG11       13.7950    8.1380   26.2580 hc        1 GDB      0.098200
     39 HG12       13.1610    9.8210   26.5340 hc        1 GDB      0.098200
     40 HN2        11.8870    7.9870   28.0350 hn        1 GDB      0.326500
     41 HA2         9.1670    7.9700   26.9360 h1        1 GDB      0.075700
     42 HB21       10.4840    5.8390   26.1290 h1        1 GDB      0.111700
     43 HB22       10.4860    5.3360   27.8750 h1        1 GDB      0.111700
     44 HN3         8.0340    8.7420   28.8040 hn        1 GDB      0.340500
     45 HA31        7.9730    7.3060   31.2440 h1        1 GDB      0.040200
     46 HA32        8.9610    8.8160   31.4490 h1        1 GDB      0.040200
     47 H3'         4.7870    4.7610   23.7900 ha        1 GDB      0.192000
     48 H5'         7.9380    7.6270   22.8710 ha        1 GDB      0.183000
     49 H6'         9.0950    7.0460   24.9580 ha        1 GDB      0.211000
@<TRIPOS>BOND
     1    1    2 1   
     2    1   33 1   
     3    1   34 1   
     4    2    3 1   
     5    2    6 1   
     6    2   35 1   
     7    3    4 1   
     8    3    5 1   
     9    6    7 1   
    10    6   36 1   
    11    6   37 1   
    12    7    8 1   
    13    7   38 1   
    14    7   39 1   
    15    8    9 2   
    16    8   10 1   
    17   10   11 1   
    18   10   40 1   
    19   11   12 1   
    20   11   14 1   
    21   11   41 1   
    22   12   13 2   
    23   12   16 1   
    24   14   15 1   
    25   14   42 1   
    26   14   43 1   
    27   15   21 1   
    28   16   17 1   
    29   16   44 1   
    30   17   18 1   
    31   17   45 1   
    32   17   46 1   
    33   18   19 1   
    34   18   20 1   
    35   21   22 ar  
    36   21   32 ar  
    37   22   23 1   
    38   22   26 ar  
    39   23   24 1   
    40   23   25 1   
    41   26   27 ar  
    42   26   47 1   
    43   27   28 1   
    44   27   31 ar  
    45   28   29 1   
    46   28   30 1   
    47   31   32 ar  
    48   31   48 1   
    49   32   49 1   
@<TRIPOS>SUBSTRUCTURE
     1 GDB         1 TEMP              0 ****  ****    0 ROOT
