@<TRIPOS>MOLECULE
GDB
   49    47     1     0     0
SMALL
bcc


@<TRIPOS>ATOM
      1 N1          1.0350   -7.2840    0.3950 n3        1 GDB     -0.321000
      2 CA1         0.4820   -6.1250   -0.1720 c3        1 GDB     -0.128000
      3 C1          0.7600   -6.1100   -1.6770 c2        1 GDB      0.307000
      4 O11        -0.2040   -6.0500   -2.4960 o         1 GDB     -0.581500
      5 O12         1.9380   -6.2760   -2.1020 o         1 GDB     -0.581500
      6 CB1         1.1050   -4.8990    0.4690 c3        1 GDB     -0.123000
      7 CG1        -0.0070   -3.9960    1.0340 c3        1 GDB     -0.194000
      8 CD1         0.5590   -2.5810    1.2890 c2        1 GDB      0.300000
      9 OE1         1.7150   -2.4450    1.6950 o         1 GDB     -0.389000
     10 N2         -0.3090   -1.4170    1.1610 n         1 GDB     -0.366000
     11 CA2         0.2260   -0.1730    0.6910 c3        1 GDB      0.026000
     12 C2          1.1170    0.4300    1.7560 c2        1 GDB      0.272000
     13 O2          0.7450    0.4600    2.9120 o         1 GDB     -0.428000
     14 CB2        -0.9120    0.7820    0.3790 c3        1 GDB     -0.418000
     15 SG2        -0.6470    1.5250   -1.2180 ss        1 GDB      0.560000
     16 N3          2.4560    0.9600    1.3920 n         1 GDB     -0.311000
     17 CA3         3.3370    1.4590    2.4200 c3        1 GDB     -0.114000
     18 C3          4.2190    2.6110    1.8390 c2        1 GDB      0.332000
     19 O31         3.9110    3.8280    2.0680 o         1 GDB     -0.570000
     20 O32         5.2690    2.3370    1.1910 o         1 GDB     -0.570000
     21 C1'        -1.7050    2.9250   -1.3960 c2        1 GDB     -0.178000
     22 C2'        -1.1400    4.2410   -1.5650 c2        1 GDB     -0.190000
     23 N2'         0.2460    4.4050   -1.6070 no        1 GDB      0.572000
     24 O21         0.9510    3.5490   -2.1360 o         1 GDB     -0.359000
     25 O22         0.7610    5.4000   -1.1020 o         1 GDB     -0.359000
     26 C3'        -1.9620    5.3140   -1.8100 c1        1 GDB      0.025000
     27 C4'        -3.3340    5.1320   -1.8940 c1        1 GDB     -0.202000
     28 N4'        -4.1900    6.2520   -2.1030 no        1 GDB      0.580000
     29 O41        -3.7210    7.3830   -2.1420 o         1 GDB     -0.376500
     30 O42        -5.4150    6.0840   -2.2080 o         1 GDB     -0.376500
     31 C5'        -3.8910    3.8360   -1.7280 c1        1 GDB     -0.009000
     32 C6'        -3.0620    2.7480   -1.4800 c1        1 GDB     -0.188000
     33 HN11        0.5100   -7.5600    1.1020 hn        1 GDB      0.125000
     34 HN12        1.0700   -7.9530   -0.2420 hn        1 GDB      0.125000
     35 HA1        -0.4970   -6.1170   -0.0170 h1        1 GDB      0.081000
     36 HB11        1.6150   -4.4060   -0.2000 hc        1 GDB      0.079500
     37 HB12        1.6970   -5.1750    1.1900 hc        1 GDB      0.079500
     38 HG11       -0.3380   -4.3740    1.8790 hc        1 GDB      0.135500
     39 HG12       -0.7550   -3.9420    0.3790 hc        1 GDB      0.135500
     40 HN2        -1.2200   -1.5070    1.2870 hn        1 GDB      0.232000
     41 HA2         0.7430   -0.3290   -0.1100 h1        1 GDB      0.130000
     42 HB21       -1.7680    0.2850    0.3740 h1        1 GDB      0.143000
     43 HB22       -0.9470    1.4930    1.0730 h1        1 GDB      0.143000
     44 HN3         2.7120    0.9900    0.5220 hn        1 GDB      0.258000
     45 HA31        2.8070    1.8000    3.1660 h1        1 GDB      0.078500
     46 HA32        3.9180    0.7280    2.7370 h1        1 GDB      0.078500
     47 H3'        -1.5870    6.1900   -1.9220 ha        1 GDB      0.193000
     48 H5'        -4.8400    3.7110   -1.7870 ha        1 GDB      0.172000
     49 H6'        -3.4570    1.8610   -1.2850 ha        1 GDB      0.170000
@<TRIPOS>BOND
     1    1    2 1   
     2    1   33 1   
     3    1   34 1   
     4    2    3 1   
     5    2    6 1   
     6    2   35 1   
     7    3    4 1   
     8    3    5 1   
     9    6    7 1   
    10    6   36 1   
    11    6   37 1   
    12    7    8 1   
    13    7   38 1   
    14    7   39 1   
    15    8    9 1   
    16    8   10 1   
    17   10   11 1   
    18   10   40 1   
    19   11   12 1   
    20   11   14 1   
    21   11   41 1   
    22   12   13 1   
    23   12   16 1   
    24   14   15 1   
    25   14   42 1   
    26   14   43 1   
    27   15   21 1   
    28   16   17 1   
    29   16   44 1   
    30   17   18 1   
    31   17   45 1   
    32   17   46 1   
    33   18   19 1   
    34   18   20 1   
    35   21   22 1   
    36   21   32 1   
    37   22   23 1   
    38   22   26 1   
    39   23   24 1   
    40   23   25 1   
    41   26   47 1   
    42   27   28 1   
    43   27   31 1   
    44   28   29 1   
    45   28   30 1   
    46   31   48 1   
    47   32   49 1   
@<TRIPOS>SUBSTRUCTURE
     1 GDB         1 TEMP              0 ****  ****    0 ROOT
