@<TRIPOS>MOLECULE
GDB
   49    49     1     0     0
SMALL
bcc


@<TRIPOS>ATOM
      1 N1          0.0790    0.1170    0.3660 n3        1 GDB     -0.887800
      2 CA1         1.5240    0.1020    0.1610 c3        1 GDB      0.019500
      3 C1          2.3490    0.3770    1.4610 c         1 GDB      0.887600
      4 O11         3.5960    0.1690    1.4250 o         1 GDB     -0.846800
      5 O12         1.7280    0.7660    2.4910 o         1 GDB     -0.846800
      6 CB1         1.9580    1.0780   -0.9400 c3        1 GDB     -0.044400
      7 CG1         3.3160    0.6860   -1.4820 c3        1 GDB     -0.163400
      8 CD1         3.8410    1.7050   -2.4670 c         1 GDB      0.668100
      9 OE1         3.2220    2.7470   -2.7810 o         1 GDB     -0.662100
     10 N2          5.0670    1.4300   -3.0630 n         1 GDB     -0.560900
     11 CA2         5.7300    2.3940   -3.9050 c3        1 GDB      0.045700
     12 C2          6.9170    1.6990   -4.6360 c         1 GDB      0.630100
     13 O2          7.8960    1.3180   -3.9480 o         1 GDB     -0.663100
     14 CB2         6.2930    3.5940   -3.1250 c3        1 GDB     -0.145300
     15 SG2         6.8330    4.9680   -4.0650 ss        1 GDB      0.086000
     16 N3          6.8170    1.5220   -5.9740 n         1 GDB     -0.503900
     17 CA3         7.8590    0.9430   -6.7800 c3        1 GDB     -0.048000
     18 C3          7.5600    1.0070   -8.3080 c         1 GDB      0.911600
     19 O31         6.4950    1.5600   -8.7030 o         1 GDB     -0.835800
     20 O32         8.4290    0.4890   -9.0590 o         1 GDB     -0.835800
     21 C1'         5.5060    5.8820   -4.4710 ca        1 GDB      0.053900
     22 C2'         5.6790    7.1420   -5.1070 ca        1 GDB     -0.223200
     23 N2'         7.0300    7.6800   -5.3850 no        1 GDB      0.317200
     24 O21         8.0020    7.0370   -5.0910 o         1 GDB     -0.213500
     25 O22         7.1280    8.7720   -5.8890 o         1 GDB     -0.213500
     26 C3'         4.5830    7.9340   -5.4880 ca        1 GDB      0.013000
     27 C4'         3.2890    7.4860   -5.2160 ca        1 GDB     -0.234200
     28 N4'         2.1300    8.3180   -5.6020 no        1 GDB      0.322200
     29 O41         2.3210    9.3820   -6.1340 o         1 GDB     -0.224500
     30 O42         1.0180    7.9210   -5.3720 o         1 GDB     -0.224500
     31 C5'         3.0850    6.2430   -4.5740 ca        1 GDB     -0.005000
     32 C6'         4.1740    5.4760   -4.2180 ca        1 GDB     -0.184000
     33 HN11       -0.0990   -0.3180    1.2570 hn        1 GDB      0.330800
     34 HN12       -0.2180    1.0730    0.4580 hn        1 GDB      0.330800
     35 HA1         1.7830   -0.9470   -0.1700 h1        1 GDB      0.040700
     36 HB11        2.0080    2.1160   -0.5200 hc        1 GDB      0.039700
     37 HB12        1.2160    1.0920   -1.7800 hc        1 GDB      0.039700
     38 HG11        4.0340    0.5880   -0.6130 hc        1 GDB      0.098200
     39 HG12        3.2540   -0.3140   -1.9880 hc        1 GDB      0.098200
     40 HN2         5.6430    0.7220   -2.6660 hn        1 GDB      0.326500
     41 HA2         4.9630    2.7810   -4.6420 h1        1 GDB      0.075700
     42 HB21        5.5590    3.9000   -2.3360 h1        1 GDB      0.111700
     43 HB22        7.2390    3.2650   -2.6070 h1        1 GDB      0.111700
     44 HN3         6.0250    1.8580   -6.4830 hn        1 GDB      0.340500
     45 HA31        7.9980   -0.1350   -6.4890 h1        1 GDB      0.040200
     46 HA32        8.8290    1.4770   -6.5840 h1        1 GDB      0.040200
     47 H3'         4.7470    8.9060   -5.9940 ha        1 GDB      0.192000
     48 H5'         2.0600    5.8870   -4.3620 ha        1 GDB      0.183000
     49 H6'         3.9830    4.5020   -3.7200 ha        1 GDB      0.211000
@<TRIPOS>BOND
     1    1    2 1   
     2    1   33 1   
     3    1   34 1   
     4    2    3 1   
     5    2    6 1   
     6    2   35 1   
     7    3    4 1   
     8    3    5 1   
     9    6    7 1   
    10    6   36 1   
    11    6   37 1   
    12    7    8 1   
    13    7   38 1   
    14    7   39 1   
    15    8    9 2   
    16    8   10 1   
    17   10   11 1   
    18   10   40 1   
    19   11   12 1   
    20   11   14 1   
    21   11   41 1   
    22   12   13 2   
    23   12   16 1   
    24   14   15 1   
    25   14   42 1   
    26   14   43 1   
    27   15   21 1   
    28   16   17 1   
    29   16   44 1   
    30   17   18 1   
    31   17   45 1   
    32   17   46 1   
    33   18   19 1   
    34   18   20 1   
    35   21   22 ar  
    36   21   32 ar  
    37   22   23 1   
    38   22   26 ar  
    39   23   24 1   
    40   23   25 1   
    41   26   27 ar  
    42   26   47 1   
    43   27   28 1   
    44   27   31 ar  
    45   28   29 1   
    46   28   30 1   
    47   31   32 ar  
    48   31   48 1   
    49   32   49 1   
@<TRIPOS>SUBSTRUCTURE
     1 GDB         1 TEMP              0 ****  ****    0 ROOT
