@<TRIPOS>MOLECULE
GDE
   17    16     1     0     0
SMALL
bcc


@<TRIPOS>ATOM
      1 OAA         2.6900   -1.9880   -1.5220 o         1 GDE     -0.532000
      2 OAB         0.9560   -0.5710   -1.4120 o         1 GDE     -0.532000
      3 OAD         1.8670   -0.1100    5.5060 oh        1 GDE     -0.328000
      4 OAE         3.8430   -1.0360    3.9700 oh        1 GDE     -0.223000
      5 CAF         3.1440    0.0880    1.1820 c1        1 GDE     -0.397000
      6 CAG         1.3960    1.7670    4.1000 c1        1 GDE     -0.188000
      7 CAH         2.0510   -1.0350   -1.0000 c2        1 GDE      0.407000
      8 CAI         3.7580    0.6970    2.3290 c3        1 GDE      0.209000
      9 CAJ         2.1550    0.6340    4.3470 c2        1 GDE     -0.179000
     10 CAK         2.6480   -0.4070    0.2070 c1        1 GDE     -0.004000
     11 CAL         3.1920    0.0880    3.6050 c2        1 GDE      0.176000
     12 HOAC        5.3910   -0.3300    2.0920 ho        1 GDE      0.222000
     13 HOAD        1.0370    0.2470    5.8510 ho        1 GDE      0.238000
     14 HOAE        3.4150   -1.4250    4.7540 ho        1 GDE      0.254000
     15 HAF         3.5740    1.8140    2.3510 h1        1 GDE      0.134000
     16 HAG         1.6050    2.3780    3.2160 ha        1 GDE      0.069000
     17 OAC         5.1720    0.5750    2.3480 oh        1 GDE     -0.324000
@<TRIPOS>BOND
     1    1    7 1   
     2    2    7 1   
     3    3    9 1   
     4    3   13 1   
     5    4   11 1   
     6    4   14 1   
     7    5    8 1   
     8    5   10 1   
     9    6    9 1   
    10    6   16 1   
    11    7   10 1   
    12    8   11 1   
    13    8   15 1   
    14    8   17 1   
    15    9   11 1   
    16   12   17 1   
@<TRIPOS>SUBSTRUCTURE
     1 GDE         1 TEMP              0 ****  ****    0 ROOT
