@<TRIPOS>MOLECULE
GDE
   17    16     1     0     0
SMALL
bcc


@<TRIPOS>ATOM
      1 OAA         1.1990   -1.9850   -0.7960 o         1 GDE     -0.534500
      2 OAB         1.7150   -0.1300   -1.9420 o         1 GDE     -0.534500
      3 OAD         1.9070   -0.0670    5.4360 oh        1 GDE     -0.327000
      4 OAE         4.1950   -0.7560    4.2560 oh        1 GDE     -0.239000
      5 CAF         3.1530    0.0530    1.1850 c1        1 GDE     -0.353000
      6 CAG         1.1670    1.3260    3.6340 c1        1 GDE     -0.163000
      7 CAH         1.7600   -0.8650   -0.9190 c2        1 GDE      0.408000
      8 CAI         3.9030    0.5760    2.2920 c3        1 GDE      0.216000
      9 CAJ         2.1390    0.4810    4.1630 c2        1 GDE     -0.171000
     10 CAK         2.5410   -0.3640    0.2400 c1        1 GDE     -0.008000
     11 CAL         3.3420    0.0770    3.6140 c2        1 GDE      0.143000
     12 HOAC        5.7060    0.3810    2.9890 ho        1 GDE      0.194000
     13 HOAD        0.9730    0.0960    5.6290 ho        1 GDE      0.239000
     14 HOAE        3.7560   -1.1250    5.0450 ho        1 GDE      0.255000
     15 HAF         3.8330    1.7090    2.3140 h1        1 GDE      0.093000
     16 HAG         1.3290    1.7660    2.6440 ha        1 GDE      0.080000
     17 OAC         5.2740    0.2140    2.1420 oh        1 GDE     -0.298000
@<TRIPOS>BOND
     1    1    7 1   
     2    2    7 1   
     3    3    9 1   
     4    3   13 1   
     5    4   11 1   
     6    4   14 1   
     7    5    8 1   
     8    5   10 1   
     9    6    9 1   
    10    6   16 1   
    11    7   10 1   
    12    8   11 1   
    13    8   15 1   
    14    8   17 1   
    15    9   11 1   
    16   12   17 1   
@<TRIPOS>SUBSTRUCTURE
     1 GDE         1 TEMP              0 ****  ****    0 ROOT
