@<TRIPOS>MOLECULE
GDE
   17    17     1     0     0
SMALL
bcc


@<TRIPOS>ATOM
      1 OAA         3.0840    1.1750   -0.2590 o         1 GDE     -0.826300
      2 OAB         3.2130   -1.0520   -0.1190 o         1 GDE     -0.826300
      3 OAD        -1.9010    2.2100    0.0030 oh        1 GDE     -0.526100
      4 OAE        -3.1340   -0.2740    0.2510 oh        1 GDE     -0.535100
      5 CAF         0.4020   -1.2800    0.0830 ca        1 GDE     -0.153500
      6 CAG         0.2960    1.1340   -0.0710 ca        1 GDE     -0.153500
      7 CAH         2.5630    0.0290   -0.1480 c         1 GDE      0.911200
      8 CAI        -0.9950   -1.3360    0.1790 ca        1 GDE      0.071600
      9 CAJ        -1.0960    1.0800    0.0250 ca        1 GDE      0.071600
     10 CAK         1.0430   -0.0460   -0.0420 ca        1 GDE     -0.093600
     11 CAL        -1.7570   -0.1530    0.1510 ca        1 GDE     -0.011900
     12 HOAC       -2.5400   -2.4420    0.3550 ho        1 GDE      0.419500
     13 HOAD       -1.3100    2.9700   -0.0860 ho        1 GDE      0.419500
     14 HOAE       -3.4980    0.6210    0.2150 ho        1 GDE      0.428000
     15 HAF         1.0040   -2.2020    0.1040 ha        1 GDE      0.165000
     16 HAG         0.8290    2.0930   -0.1700 ha        1 GDE      0.165000
     17 OAC        -1.5840   -2.5790    0.3010 oh        1 GDE     -0.526100
@<TRIPOS>BOND
     1    1    7 1   
     2    2    7 1   
     3    3    9 1   
     4    3   13 1   
     5    4   11 1   
     6    4   14 1   
     7    5    8 ar  
     8    5   10 ar  
     9    5   15 1   
    10    6    9 ar  
    11    6   10 ar  
    12    6   16 1   
    13    7   10 1   
    14    8   11 ar  
    15    8   17 1   
    16    9   11 ar  
    17   12   17 1   
@<TRIPOS>SUBSTRUCTURE
     1 GDE         1 TEMP              0 ****  ****    0 ROOT
