@<TRIPOS>MOLECULE
GDI
   52    54     1     0     0
SMALL
bcc


@<TRIPOS>ATOM
      1 N1         -0.1090   -1.3470    1.6020 n3        1 GDI     -0.855200
      2 C2          1.5560   -2.1120   -0.1170 c3        1 GDI     -0.090400
      3 C3          1.2380   -1.8330    1.3470 c3        1 GDI      0.160800
      4 C4         -0.6160   -0.3500    0.6760 c3        1 GDI      0.120500
      5 C5         -0.2800   -0.5970   -0.8060 c3        1 GDI     -0.082400
      6 C6          1.1870   -0.9240   -0.9760 c3        1 GDI     -0.084400
      7 C7         -2.1520   -0.2760    0.7590 c         1 GDI      0.538100
      8 O8         -2.8250    0.7380    0.6620 o         1 GDI     -0.429100
      9 N9         -2.8720   -1.5880    0.9330 n4        1 GDI     -0.663800
     10 C10        -4.3630   -1.5210    0.7440 c3        1 GDI      0.017200
     11 C11        -5.0460   -1.0050    2.0080 c2        1 GDI      0.381200
     12 C12        -4.9340   -2.8960    0.3730 c3        1 GDI     -0.049100
     13 C13        -4.3000   -3.4440   -0.8540 ca        1 GDI     -0.158300
     14 C14        -3.3250   -4.4450   -0.7620 ca        1 GDI     -0.128500
     15 C15        -2.7600   -4.9860   -1.9130 ca        1 GDI     -0.112000
     16 C16        -3.1590   -4.5360   -3.1810 cp        1 GDI     -0.002000
     17 C17        -4.1370   -3.5340   -3.2690 ca        1 GDI     -0.112000
     18 C18        -4.7030   -2.9950   -2.1170 ca        1 GDI     -0.128500
     19 C19        -2.5750   -5.1120   -4.3900 cp        1 GDI     -0.049000
     20 C20        -3.3770   -5.3620   -5.5130 ca        1 GDI     -0.117500
     21 C21        -1.2080   -5.4230   -4.4390 ca        1 GDI     -0.117500
     22 C22        -2.8240   -5.9120   -6.6670 ca        1 GDI     -0.089000
     23 C23        -0.6490   -5.9690   -5.5910 ca        1 GDI     -0.089000
     24 C24        -1.4560   -6.2150   -6.7110 ca        1 GDI      0.012000
     25 C25        -0.8870   -6.7730   -7.8880 cg        1 GDI      0.213800
     26 N26        -0.4200   -7.2280   -8.8510 n1        1 GDI     -0.323800
     27 N27        -5.2500    0.1980    2.3530 n2        1 GDI     -0.672100
     28 H11        -5.4300   -1.8110    2.6710 h4        1 GDI      0.049800
     29 H1         -0.1470   -0.9780    2.5380 hn        1 GDI      0.381800
     30 H31C        1.3380   -2.7880    1.9390 h1        1 GDI      0.061700
     31 H32C        2.0080   -1.1030    1.7390 h1        1 GDI      0.061700
     32 H4         -0.2670    0.6990    0.9430 h1        1 GDI      0.100700
     33 H21C        1.0050   -3.0240   -0.4660 hc        1 GDI      0.066700
     34 H22C        2.6530   -2.3260   -0.2050 hc        1 GDI      0.066700
     35 H61C        1.8130   -0.0360   -0.6960 hc        1 GDI      0.071700
     36 H62C        1.3920   -1.1510   -2.0560 hc        1 GDI      0.071700
     37 H51C       -0.8930   -1.4460   -1.2070 hc        1 GDI      0.062700
     38 H52C       -0.5420    0.3270   -1.3850 hc        1 GDI      0.062700
     39 H9         -2.4820   -2.2620    0.2520 hn        1 GDI      0.472800
     40 H10        -4.5480   -0.8110   -0.1210 hx        1 GDI      0.117700
     41 H121       -6.0390   -2.7550    0.2090 hc        1 GDI      0.092700
     42 H122       -4.8160   -3.6110    1.2320 hc        1 GDI      0.092700
     43 H27        -4.9260    0.9360    1.7600 hn        1 GDI      0.419400
     44 H14        -3.0310   -4.8410    0.2230 ha        1 GDI      0.138500
     45 H18        -5.4860   -2.2250   -2.2030 ha        1 GDI      0.138500
     46 H15        -2.0120   -5.7910   -1.8300 ha        1 GDI      0.156500
     47 H17        -4.4640   -3.1750   -4.2590 ha        1 GDI      0.156500
     48 H20        -4.4540   -5.1360   -5.4820 ha        1 GDI      0.139500
     49 H21        -0.5690   -5.2320   -3.5640 ha        1 GDI      0.139500
     50 H22        -3.4610   -6.1110   -7.5430 ha        1 GDI      0.157000
     51 H23         0.4250   -6.2100   -5.6230 ha        1 GDI      0.157000
     52 H92        -2.6660   -1.9450    1.8740 hn        1 GDI      0.472800
@<TRIPOS>BOND
     1    1    3 1   
     2    1    4 1   
     3    1   29 1   
     4    2    3 1   
     5    2    6 1   
     6    2   33 1   
     7    2   34 1   
     8    3   30 1   
     9    3   31 1   
    10    4    5 1   
    11    4    7 1   
    12    4   32 1   
    13    5    6 1   
    14    5   37 1   
    15    5   38 1   
    16    6   35 1   
    17    6   36 1   
    18    7    8 2   
    19    7    9 1   
    20    9   10 1   
    21    9   39 1   
    22    9   52 1   
    23   10   11 1   
    24   10   12 1   
    25   10   40 1   
    26   11   27 2   
    27   11   28 1   
    28   12   13 1   
    29   12   41 1   
    30   12   42 1   
    31   13   14 ar  
    32   13   18 ar  
    33   14   15 ar  
    34   14   44 1   
    35   15   16 ar  
    36   15   46 1   
    37   16   17 ar  
    38   16   19 1   
    39   17   18 ar  
    40   17   47 1   
    41   18   45 1   
    42   19   20 ar  
    43   19   21 ar  
    44   20   22 ar  
    45   20   48 1   
    46   21   23 ar  
    47   21   49 1   
    48   22   24 ar  
    49   22   50 1   
    50   23   24 ar  
    51   23   51 1   
    52   24   25 1   
    53   25   26 3   
    54   27   43 1   
@<TRIPOS>SUBSTRUCTURE
     1 GDI         1 TEMP              0 ****  ****    0 ROOT
