@<TRIPOS>MOLECULE
GDI
   52    54     1     0     0
SMALL
bcc


@<TRIPOS>ATOM
      1 N1          0.0000    0.0000    0.0000 n7        1 GDI     -0.540200
      2 C2          1.9800    0.0000    1.4420 c3        1 GDI     -0.029400
      3 C3          1.4690    0.0000    0.0000 c3        1 GDI      0.149800
      4 C4         -0.5310   -1.2060    0.6490 c3        1 GDI      0.056500
      5 C5         -0.0790   -1.2410    2.1100 c3        1 GDI     -0.022400
      6 C6          1.4510   -1.2410    2.1670 c3        1 GDI     -0.016400
      7 C7         -2.0370   -1.1870    0.5890 c         1 GDI      0.329100
      8 O8         -2.6230   -0.1420    0.4040 o         1 GDI     -0.388100
      9 N9         -2.7310   -2.3310    0.7420 ny        1 GDI      0.078200
     10 C10        -4.1950   -2.3120    0.6840 c3        1 GDI     -0.141800
     11 C11        -4.7480   -1.9650    2.0420 c2        1 GDI      0.407200
     12 C12        -4.7070   -3.6910    0.2630 c3        1 GDI      0.045900
     13 C13        -4.2550   -3.9870   -1.1440 ca        1 GDI     -0.183300
     14 C14        -3.0470   -4.6240   -1.3610 ca        1 GDI     -0.096500
     15 C15        -2.6290   -4.8960   -2.6470 ca        1 GDI     -0.082000
     16 C16        -3.4270   -4.5290   -3.7300 cp        1 GDI      0.018000
     17 C17        -4.6440   -3.8880   -3.5050 ca        1 GDI     -0.082000
     18 C18        -5.0550   -3.6250   -2.2140 ca        1 GDI     -0.096500
     19 C19        -2.9830   -4.8190   -5.1140 cp        1 GDI     -0.060000
     20 C20        -3.7840   -4.4490   -6.1950 ca        1 GDI     -0.086000
     21 C21        -1.7610   -5.4560   -5.3350 ca        1 GDI     -0.086000
     22 C22        -3.3740   -4.7190   -7.4810 ca        1 GDI     -0.066500
     23 C23        -1.3480   -5.7250   -6.6200 ca        1 GDI     -0.066500
     24 C24        -2.1530   -5.3620   -7.7040 ca        1 GDI      0.066000
     25 C25        -1.7240   -5.6420   -9.0410 cg        1 GDI      0.200800
     26 N26        -1.3730   -5.8480  -10.1010 n1        1 GDI     -0.332800
     27 N27        -3.9520   -1.7420    3.0190 n2        1 GDI     -0.573100
     28 H11        -5.8190   -1.9030    2.1920 h4        1 GDI      0.041800
     29 H1         -0.3340    0.0460   -0.9420 hn        1 GDI      0.263800
     30 H31C        1.8280   -0.8860   -0.5090 h1        1 GDI      0.023200
     31 H32C        1.8280    0.8860   -0.5090 h1        1 GDI      0.023200
     32 H4         -0.1560   -2.0830    0.1370 h1        1 GDI      0.024700
     33 H21C        3.0630   -0.0180    1.4410 hc        1 GDI      0.039700
     34 H22C        1.6280    0.8900    1.9490 hc        1 GDI      0.039700
     35 H61C        1.7740   -1.2210    3.2000 hc        1 GDI      0.028700
     36 H62C        1.8300   -2.1320    1.6800 hc        1 GDI      0.028700
     37 H51C       -0.4570   -2.1400    2.5830 hc        1 GDI      0.025700
     38 H52C       -0.4590   -0.3680    2.6270 hc        1 GDI      0.025700
     39 H9         -2.4800   -2.7070    1.6350 hn        1 GDI      0.282800
     40 H10        -4.5180   -1.5710   -0.0370 hx        1 GDI      0.118700
     41 H121       -4.3110   -4.4430    0.9350 hc        1 GDI      0.054700
     42 H122       -5.7890   -3.7030    0.3050 hc        1 GDI      0.054700
     43 H27        -2.9620   -1.7990    2.8800 hn        1 GDI      0.292400
     44 H14        -2.4510   -4.9530   -0.5180 ha        1 GDI      0.106500
     45 H18        -6.0120   -3.1480   -2.0380 ha        1 GDI      0.106500
     46 H15        -1.6830   -5.3950   -2.8160 ha        1 GDI      0.129500
     47 H17        -5.2690   -3.6000   -4.3420 ha        1 GDI      0.129500
     48 H20        -4.7310   -3.9510   -6.0220 ha        1 GDI      0.113500
     49 H21        -1.1480   -5.7590   -4.4950 ha        1 GDI      0.113500
     50 H22        -4.0130   -4.4660   -8.3180 ha        1 GDI      0.123000
     51 H23        -0.3980   -6.2170   -6.7920 ha        1 GDI      0.123000
     52 H92        -2.4200   -2.9590    0.0280 hn        1 GDI      0.282800
@<TRIPOS>BOND
     1    1    3 1   
     2    1    4 1   
     3    1   29 1   
     4    2    3 1   
     5    2    6 1   
     6    2   33 1   
     7    2   34 1   
     8    3   30 1   
     9    3   31 1   
    10    4    5 1   
    11    4    7 1   
    12    4   32 1   
    13    5    6 1   
    14    5   37 1   
    15    5   38 1   
    16    6   35 1   
    17    6   36 1   
    18    7    8 2   
    19    7    9 1   
    20    9   10 1   
    21    9   39 1   
    22    9   52 1   
    23   10   11 1   
    24   10   12 1   
    25   10   40 1   
    26   11   27 2   
    27   11   28 1   
    28   12   13 1   
    29   12   41 1   
    30   12   42 1   
    31   13   14 ar  
    32   13   18 ar  
    33   14   15 ar  
    34   14   44 1   
    35   15   16 ar  
    36   15   46 1   
    37   16   17 ar  
    38   16   19 1   
    39   17   18 ar  
    40   17   47 1   
    41   18   45 1   
    42   19   20 ar  
    43   19   21 ar  
    44   20   22 ar  
    45   20   48 1   
    46   21   23 ar  
    47   21   49 1   
    48   22   24 ar  
    49   22   50 1   
    50   23   24 ar  
    51   23   51 1   
    52   24   25 1   
    53   25   26 3   
    54   27   43 1   
@<TRIPOS>SUBSTRUCTURE
     1 GDI         1 TEMP              0 ****  ****    0 ROOT
