@<TRIPOS>MOLECULE
GDL
   29    28     1     0     0
SMALL
bcc


@<TRIPOS>ATOM
      1 C1         -0.9650    1.2630   -0.0990 c2        1 GDL      0.318000
      2 C2          0.4380    0.9060   -0.4380 c3        1 GDL     -0.233000
      3 C3          1.3160    0.5860    0.7630 c3        1 GDL      0.032000
      4 C4          1.0150    1.5860    1.8900 c3        1 GDL     -0.001000
      5 C5         -0.4630    1.4110    2.2810 c3        1 GDL     -0.037000
      6 C6         -0.8710    2.3670    3.3560 c2        1 GDL      0.301000
      7 C8          4.0630   -2.5180   -1.7340 c3        1 GDL     -0.247000
      8 N1          1.8590   -3.6200   -1.9630 n         1 GDL     -0.408000
      9 O1         -1.9350    1.3480   -0.8370 o         1 GDL     -0.215000
     10 O3          2.6850    0.7680    0.4630 oh        1 GDL     -0.340000
     11 O4          1.7610    1.3250    3.0640 oh        1 GDL     -0.388000
     12 O5         -1.3520    1.6220    1.2060 os        1 GDL     -0.284000
     13 O6         -0.2220    2.5540    4.4540 oh        1 GDL     -0.093000
     14 O7          1.9950   -1.6570   -0.8350 o         1 GDL     -0.481000
     15 H2          0.4280    0.0110   -1.1270 hc        1 GDL      0.172000
     16 H3          0.8810    1.7650   -1.0180 hc        1 GDL      0.172000
     17 H4          1.1370   -0.4710    1.1110 h1        1 GDL      0.127000
     18 H5          1.2230    2.6360    1.5410 h1        1 GDL      0.133000
     19 H6C1       -0.6270    0.3600    2.6900 h1        1 GDL      0.181000
     20 H6C2       -1.8150    2.9670    3.2680 h4        1 GDL      0.253000
     21 H8C1        4.2710   -2.4970   -2.8320 hc        1 GDL      0.115333
     22 H8C2        4.5660   -3.4110   -1.2880 hc        1 GDL      0.115333
     23 H8C3        4.4830   -1.5940   -1.2680 hc        1 GDL      0.115333
     24 HB          2.2950   -4.3430   -2.4780 hn        1 GDL      0.237000
     25 HC          2.9440    0.0520   -0.1420 ho        1 GDL      0.264000
     26 HD          2.6680    1.1020    2.7960 ho        1 GDL      0.287000
     27 H6          0.6340    2.0480    4.5440 ho        1 GDL      0.341000
     28 C7          2.5790   -2.5670   -1.4810 c2        1 GDL      0.326000
     29 H12         0.8810   -3.6680   -1.8110 hn        1 GDL      0.237000
@<TRIPOS>BOND
     1    1    2 1   
     2    1    9 1   
     3    1   12 1   
     4    2    3 1   
     5    2   15 1   
     6    2   16 1   
     7    3    4 1   
     8    3   10 1   
     9    3   17 1   
    10    4    5 1   
    11    4   11 1   
    12    4   18 1   
    13    5    6 1   
    14    5   12 1   
    15    5   19 1   
    16    6   13 1   
    17    6   20 1   
    18    7   21 1   
    19    7   22 1   
    20    7   23 1   
    21    7   28 1   
    22    8   24 1   
    23    8   28 1   
    24    8   29 1   
    25   10   25 1   
    26   11   26 1   
    27   13   27 1   
    28   14   28 1   
@<TRIPOS>SUBSTRUCTURE
     1 GDL         1 TEMP              0 ****  ****    0 ROOT
