@<TRIPOS>MOLECULE
GDL
   28    26     1     0     0
SMALL
bcc


@<TRIPOS>ATOM
      1 C1         -1.3420   -0.2600   -0.6760 c1        1 GDL      0.293000
      2 C2          0.2660   -0.2600   -0.6760 c2        1 GDL     -0.038000
      3 C3          0.7550   -0.2600    0.7060 c3        1 GDL     -0.006000
      4 C4          0.1230    0.8350    1.5560 c3        1 GDL      0.009000
      5 C5         -1.3370    0.7990    1.5300 c3        1 GDL     -0.008000
      6 C6         -1.8680    2.0410    2.2560 c3        1 GDL     -0.012000
      7 C7          1.0640   -1.1980   -2.8750 c1        1 GDL      0.301000
      8 C8          1.6660   -2.3410   -3.6910 c2        1 GDL     -0.242000
      9 N1          0.8240   -1.3680   -1.4670 n3        1 GDL     -0.372000
     10 O1         -1.9500   -0.6580   -1.6510 o         1 GDL     -0.299000
     11 O3          2.1920   -0.0660    0.6910 oh        1 GDL     -0.340000
     12 O4          0.5690    0.6770    2.9290 oh        1 GDL     -0.318000
     13 O5         -1.9150    0.7670    0.1630 os        1 GDL     -0.256000
     14 O6         -3.2830    2.0660    2.1770 oh        1 GDL     -0.318000
     15 O7          0.8050   -0.1370   -3.4120 o         1 GDL     -0.369000
     16 H2          0.6110    0.5120   -1.1650 h4        1 GDL      0.154000
     17 H3          0.5580   -1.1260    1.1100 h1        1 GDL      0.107000
     18 H4          0.4230    1.7030    1.2260 h1        1 GDL      0.104000
     19 H5         -1.6370    0.0050    2.0120 h1        1 GDL      0.124000
     20 H6C1       -1.5050    2.8440    1.8360 h1        1 GDL      0.108000
     21 H6C2       -1.5950    2.0130    3.1930 h1        1 GDL      0.108000
     22 H8C1        1.1020   -3.1330   -3.6080 ha        1 GDL      0.113667
     23 H8C2        1.7200   -2.0780   -4.6300 ha        1 GDL      0.113667
     24 H8C3        2.5610   -2.5430   -3.3580 ha        1 GDL      0.113667
     25 HB          0.9930   -2.1710   -1.0700 hn        1 GDL      0.237000
     26 HC          2.5820   -0.7000    1.1750 ho        1 GDL      0.243000
     27 HD          1.2120    1.2640    3.1010 ho        1 GDL      0.233000
     28 H6         -3.5920    2.7710    2.6190 ho        1 GDL      0.213000
@<TRIPOS>BOND
     1    1   10 1   
     2    1   13 1   
     3    2    3 1   
     4    2    9 1   
     5    2   16 1   
     6    3    4 1   
     7    3   11 1   
     8    3   17 1   
     9    4    5 1   
    10    4   12 1   
    11    4   18 1   
    12    5    6 1   
    13    5   13 1   
    14    5   19 1   
    15    6   14 1   
    16    6   20 1   
    17    6   21 1   
    18    7    9 1   
    19    7   15 1   
    20    8   22 1   
    21    8   23 1   
    22    8   24 1   
    23    9   25 1   
    24   11   26 1   
    25   12   27 1   
    26   14   28 1   
@<TRIPOS>SUBSTRUCTURE
     1 GDL         1 TEMP              0 ****  ****    0 ROOT
