@<TRIPOS>MOLECULE
GDL
   28    28     1     0     0
SMALL
bcc


@<TRIPOS>ATOM
      1 C1          1.3310   -0.0640   -0.0840 c         1 GDL      0.708600
      2 C2          0.0730    0.1910    0.7370 c3        1 GDL     -0.011300
      3 C3         -1.2210   -0.0840   -0.0650 c3        1 GDL      0.105100
      4 C4         -1.0560    0.4180   -1.5110 c3        1 GDL      0.120100
      5 C5          0.1230   -0.3000   -2.1630 c3        1 GDL      0.103100
      6 C6          0.3730    0.2110   -3.5870 c3        1 GDL      0.138400
      7 C8          0.0030   -0.6870    4.4500 c3        1 GDL     -0.174100
      8 N1          0.1230   -0.5480    1.9810 n         1 GDL     -0.562900
      9 O1          2.4570   -0.2180    0.3940 o         1 GDL     -0.574500
     10 O3         -2.3190    0.6490    0.4460 oh        1 GDL     -0.612800
     11 O4         -2.2070    0.1090   -2.2750 oh        1 GDL     -0.590800
     12 O5          1.3420   -0.0500   -1.4490 os        1 GDL     -0.417900
     13 O6          1.3370   -0.5760   -4.2470 oh        1 GDL     -0.590800
     14 O7         -1.1090    1.0000    3.1310 o         1 GDL     -0.608100
     15 H2          0.0720    1.3060    0.9720 h1        1 GDL      0.114700
     16 H3         -1.4740   -1.1810   -0.0660 h1        1 GDL      0.067700
     17 H4         -0.8910    1.5320   -1.5070 h1        1 GDL      0.064700
     18 H5         -0.0460   -1.4130   -2.1760 h1        1 GDL      0.084700
     19 H6C1       -0.5730    0.0960   -4.1820 h1        1 GDL      0.068700
     20 H6C2        0.6910    1.2870   -3.5560 h1        1 GDL      0.068700
     21 H8C1       -0.5100   -0.1650    5.2940 hc        1 GDL      0.074367
     22 H8C2       -0.3220   -1.7560    4.4300 hc        1 GDL      0.074367
     23 H8C3        1.1080   -0.6450    4.6130 hc        1 GDL      0.074367
     24 HB          0.8340   -1.2420    2.0490 hn        1 GDL      0.323500
     25 HC         -2.3270    0.5650    1.4100 ho        1 GDL      0.444000
     26 HD         -2.9640    0.4690   -1.7900 ho        1 GDL      0.434000
     27 H6          2.1620   -0.4940   -3.7510 ho        1 GDL      0.414000
     28 C7         -0.3610    0.0040    3.1620 c         1 GDL      0.657100
@<TRIPOS>BOND
     1    1    2 1   
     2    1    9 2   
     3    1   12 1   
     4    2    3 1   
     5    2    8 1   
     6    2   15 1   
     7    3    4 1   
     8    3   10 1   
     9    3   16 1   
    10    4    5 1   
    11    4   11 1   
    12    4   17 1   
    13    5    6 1   
    14    5   12 1   
    15    5   18 1   
    16    6   13 1   
    17    6   19 1   
    18    6   20 1   
    19    7   21 1   
    20    7   22 1   
    21    7   23 1   
    22    7   28 1   
    23    8   24 1   
    24    8   28 1   
    25   10   25 1   
    26   11   26 1   
    27   13   27 1   
    28   14   28 2   
@<TRIPOS>SUBSTRUCTURE
     1 GDL         1 TEMP              0 ****  ****    0 ROOT
