@<TRIPOS>MOLECULE
GDL
   29    28     1     0     0
SMALL
bcc


@<TRIPOS>ATOM
      1 C1         -1.0570    0.9660    0.2320 c2        1 GDL      0.315000
      2 C2          0.3200    0.7350   -0.2800 c3        1 GDL     -0.234000
      3 C3          1.3770    0.5400    0.7980 c3        1 GDL      0.028000
      4 C4          1.1190    1.5300    1.9460 c3        1 GDL      0.008000
      5 C5         -0.2750    1.1880    2.5190 c3        1 GDL      0.000000
      6 C6         -0.5520    2.0910    3.6790 c2        1 GDL      0.287000
      7 C8          4.1150   -2.3150   -1.9780 c3        1 GDL     -0.247000
      8 N1          2.0380   -3.6610   -1.9310 n         1 GDL     -0.409000
      9 O1         -2.1130    0.9510   -0.3840 o         1 GDL     -0.220000
     10 O3          2.6660    0.8580    0.3160 oh        1 GDL     -0.338000
     11 O4          2.0310    1.4020    3.0150 oh        1 GDL     -0.353000
     12 O5         -1.3120    1.3000    1.5740 os        1 GDL     -0.278000
     13 O6         -1.6580    2.7640    3.6830 oh        1 GDL     -0.065000
     14 O7          2.0810   -1.6670   -0.8510 o         1 GDL     -0.477000
     15 H2          0.3110   -0.1770   -0.9450 hc        1 GDL      0.170500
     16 H3          0.5970    1.6140   -0.9280 hc        1 GDL      0.170500
     17 H4          1.3600   -0.5210    1.1790 h1        1 GDL      0.125000
     18 H5          1.1410    2.5860    1.5560 h1        1 GDL      0.127000
     19 H6C1       -0.2660    0.1320    2.9450 h1        1 GDL      0.185000
     20 H6C2        0.2040    2.1440    4.4990 h4        1 GDL      0.220000
     21 H8C1        4.1910   -2.2980   -3.0930 hc        1 GDL      0.115000
     22 H8C2        4.4780   -1.3380   -1.5760 hc        1 GDL      0.115000
     23 H8C3        4.7640   -3.1340   -1.5830 hc        1 GDL      0.115000
     24 HB          2.4910   -4.3430   -2.4850 hn        1 GDL      0.237000
     25 HC          2.9200    0.1540   -0.3050 ho        1 GDL      0.261000
     26 HD          2.9040    1.2160    2.6310 ho        1 GDL      0.271000
     27 H6         -1.7770    3.3260    4.4890 ho        1 GDL      0.310000
     28 C7          2.6850   -2.5220   -1.5500 c2        1 GDL      0.325000
     29 H12         1.0970   -3.8130   -1.6640 hn        1 GDL      0.237000
@<TRIPOS>BOND
     1    1    2 1   
     2    1    9 1   
     3    1   12 1   
     4    2    3 1   
     5    2   15 1   
     6    2   16 1   
     7    3    4 1   
     8    3   10 1   
     9    3   17 1   
    10    4    5 1   
    11    4   11 1   
    12    4   18 1   
    13    5    6 1   
    14    5   12 1   
    15    5   19 1   
    16    6   13 1   
    17    6   20 1   
    18    7   21 1   
    19    7   22 1   
    20    7   23 1   
    21    7   28 1   
    22    8   24 1   
    23    8   28 1   
    24    8   29 1   
    25   10   25 1   
    26   11   26 1   
    27   13   27 1   
    28   14   28 1   
@<TRIPOS>SUBSTRUCTURE
     1 GDL         1 TEMP              0 ****  ****    0 ROOT
