@<TRIPOS>MOLECULE
GDL
   29    28     1     0     0
SMALL
bcc


@<TRIPOS>ATOM
      1 C1         -0.5980    1.3930   -0.0940 c2        1 GDL      0.331000
      2 C2          0.8410    1.0710   -0.2690 c3        1 GDL     -0.233000
      3 C3          1.5610    0.6190    0.9950 c3        1 GDL      0.027000
      4 C4          1.0650    1.4410    2.1950 c3        1 GDL      0.016000
      5 C5         -0.4440    1.1590    2.3330 c3        1 GDL     -0.045000
      6 C6         -1.0240    1.9330    3.4670 c2        1 GDL      0.299000
      7 C8          2.1800   -3.2350   -2.2790 c3        1 GDL     -0.244000
      8 N1          4.3970   -2.4490   -1.5120 nt        1 GDL     -0.414000
      9 O1         -1.4510    1.6290   -0.9360 o         1 GDL     -0.220000
     10 O3          2.9460    0.8820    0.9090 oh        1 GDL     -0.334000
     11 O4          1.6500    1.0540    3.4190 oh        1 GDL     -0.343000
     12 O5         -1.1840    1.5160    1.1830 os        1 GDL     -0.341000
     13 O6         -2.0670    2.6850    3.3490 oh        1 GDL     -0.086000
     14 O7          2.5370   -1.3710   -0.7870 o         1 GDL     -0.482000
     15 H2          0.9380    0.2590   -1.0480 hc        1 GDL      0.174500
     16 H3          1.3480    1.9880   -0.6860 hc        1 GDL      0.174500
     17 H4          1.3900   -0.4820    1.1710 h1        1 GDL      0.126000
     18 H5          1.2530    2.5370    2.0170 h1        1 GDL      0.124000
     19 H6C1       -0.6040    0.0550    2.5560 h1        1 GDL      0.194000
     20 H6C2       -0.5760    1.8890    4.4920 h4        1 GDL      0.259000
     21 H8C1        2.3380   -4.2890   -1.9440 hc        1 GDL      0.116000
     22 H8C2        2.4260   -3.1590   -3.3670 hc        1 GDL      0.116000
     23 H8C3        1.1070   -2.9650   -2.1310 hc        1 GDL      0.116000
     24 HB          4.8150   -3.1650   -2.0510 hn        1 GDL      0.235500
     25 HC          3.3180    0.2530    0.2690 ho        1 GDL      0.261000
     26 HD          2.5880    0.8690    3.2450 ho        1 GDL      0.270000
     27 H6         -2.4440    2.7210    2.4240 ho        1 GDL      0.337000
     28 C7          3.0410   -2.2930   -1.4800 c2        1 GDL      0.329000
     29 H12         4.9840   -1.8410   -0.9960 hn        1 GDL      0.235500
@<TRIPOS>BOND
     1    1    2 1   
     2    1    9 1   
     3    1   12 1   
     4    2    3 1   
     5    2   15 1   
     6    2   16 1   
     7    3    4 1   
     8    3   10 1   
     9    3   17 1   
    10    4    5 1   
    11    4   11 1   
    12    4   18 1   
    13    5    6 1   
    14    5   12 1   
    15    5   19 1   
    16    6   13 1   
    17    6   20 1   
    18    7   21 1   
    19    7   22 1   
    20    7   23 1   
    21    7   28 1   
    22    8   24 1   
    23    8   28 1   
    24    8   29 1   
    25   10   25 1   
    26   11   26 1   
    27   13   27 1   
    28   14   28 1   
@<TRIPOS>SUBSTRUCTURE
     1 GDL         1 TEMP              0 ****  ****    0 ROOT
