@<TRIPOS>MOLECULE
GDN
   49    49     1     0     0
SMALL
bcc


@<TRIPOS>ATOM
      1 N1         -2.3290   -6.4750    1.3170 n3        1 GDN     -0.894800
      2 CA1        -3.0870   -5.4730    2.0570 c3        1 GDN      0.017500
      3 C1         -4.6270   -5.7470    2.1140 c         1 GDN      0.889600
      4 O11        -5.0750   -6.7580    1.4970 o         1 GDN     -0.846800
      5 O12        -5.3370   -4.9640    2.8020 o         1 GDN     -0.846800
      6 CB1        -2.8610   -4.0470    1.5480 c3        1 GDN     -0.056400
      7 CG1        -1.4400   -3.5900    1.8000 c3        1 GDN     -0.142400
      8 CD1        -1.1630   -2.2230    1.2060 c         1 GDN      0.659100
      9 OE1        -1.9850   -1.5890    0.5150 o         1 GDN     -0.618100
     10 N2          0.0820   -1.6640    1.4920 n         1 GDN     -0.570900
     11 CA2         0.5480   -0.4740    0.8380 c3        1 GDN      0.032700
     12 C2          1.8900   -0.6830    0.0830 c         1 GDN      0.611100
     13 O2          2.7090   -1.5440    0.4600 o         1 GDN     -0.615100
     14 CB2         0.7400    0.7260    1.7820 c3        1 GDN     -0.132300
     15 SG2         1.2910    0.3280    3.4050 ss        1 GDN      0.059000
     16 N3          2.0790    0.0970   -1.0530 n         1 GDN     -0.485900
     17 CA3         3.4100    0.5690   -1.3730 c3        1 GDN     -0.076000
     18 C3          3.7120    1.9930   -0.8370 c         1 GDN      0.886600
     19 O31         2.8220    2.5770   -0.1380 o         1 GDN     -0.843800
     20 O32         4.8320    2.4930   -1.1090 o         1 GDN     -0.843800
     21 C1'         2.8420    0.8760    3.6540 ca        1 GDN      0.062900
     22 C2'         3.4310    0.7080    4.9400 ca        1 GDN     -0.230200
     23 C3'         4.7380    1.1460    5.2160 ca        1 GDN      0.003000
     24 C4'         5.4780    1.7720    4.2120 ca        1 GDN     -0.235200
     25 C5'         4.9200    1.9570    2.9260 ca        1 GDN      0.000000
     26 C6'         3.6360    1.5150    2.6770 ca        1 GDN     -0.178000
     27 N2'         2.6920    0.0690    6.0500 no        1 GDN      0.315200
     28 O2A         3.2390   -0.0550    7.1200 o         1 GDN     -0.219000
     29 O2B         1.5620   -0.3080    5.8830 o         1 GDN     -0.219000
     30 N4'         6.8470    2.2420    4.5050 no        1 GDN      0.321200
     31 O4A         7.4820    2.7980    3.6480 o         1 GDN     -0.228000
     32 O4B         7.3070    2.0650    5.6060 o         1 GDN     -0.228000
     33 HN1        -2.7290   -7.3730    1.5360 hn        1 GDN      0.330300
     34 HN2A       -2.4870   -6.3320    0.3340 hn        1 GDN      0.330300
     35 HA1        -2.7210   -5.5260    3.1250 h1        1 GDN      0.039700
     36 HB11       -3.0920   -3.9760    0.4540 hc        1 GDN      0.061700
     37 HB12       -3.5830   -3.3760    2.0850 hc        1 GDN      0.061700
     38 HG11       -1.2470   -3.5590    2.9050 hc        1 GDN      0.067200
     39 HG12       -0.7150   -4.3190    1.3470 hc        1 GDN      0.067200
     40 HN2         0.7840   -2.2400    1.9000 hn        1 GDN      0.322500
     41 HA2        -0.2490   -0.1640    0.0870 h1        1 GDN      0.104700
     42 HB21        1.3490    1.5100    1.2530 h1        1 GDN      0.118700
     43 HB22       -0.2750    1.1720    1.9720 h1        1 GDN      0.118700
     44 HN3         1.4100    0.8420   -1.1350 hn        1 GDN      0.289500
     45 HA31        3.5010    0.5860   -2.4940 h1        1 GDN      0.059200
     46 HA32        4.1780   -0.1400   -0.9650 h1        1 GDN      0.059200
     47 H3'         5.1730    0.9950    6.2230 ha        1 GDN      0.187000
     48 H5'         5.4990    2.4490    2.1200 ha        1 GDN      0.201000
     49 H6'         3.2360    1.6890    1.6500 ha        1 GDN      0.230000
@<TRIPOS>BOND
     1    1    2 1   
     2    1   33 1   
     3    1   34 1   
     4    2    3 1   
     5    2    6 1   
     6    2   35 1   
     7    3    4 1   
     8    3    5 1   
     9    6    7 1   
    10    6   36 1   
    11    6   37 1   
    12    7    8 1   
    13    7   38 1   
    14    7   39 1   
    15    8    9 2   
    16    8   10 1   
    17   10   11 1   
    18   10   40 1   
    19   11   12 1   
    20   11   14 1   
    21   11   41 1   
    22   12   13 2   
    23   12   16 1   
    24   14   15 1   
    25   14   42 1   
    26   14   43 1   
    27   15   21 1   
    28   16   17 1   
    29   16   44 1   
    30   17   18 1   
    31   17   45 1   
    32   17   46 1   
    33   18   19 1   
    34   18   20 1   
    35   21   22 ar  
    36   21   26 ar  
    37   22   23 ar  
    38   22   27 1   
    39   23   24 ar  
    40   23   47 1   
    41   24   25 ar  
    42   24   30 1   
    43   25   26 ar  
    44   25   48 1   
    45   26   49 1   
    46   27   28 1   
    47   27   29 1   
    48   30   31 1   
    49   30   32 1   
@<TRIPOS>SUBSTRUCTURE
     1 GDN         1 TEMP              0 ****  ****    0 ROOT
