@<TRIPOS>MOLECULE
GDN
   49    49     1     0     0
SMALL
bcc


@<TRIPOS>ATOM
      1 N1          1.1190    3.4100   -0.1740 n3        1 GDN     -0.894800
      2 CA1         1.8480    2.3180    0.4610 c3        1 GDN      0.017500
      3 C1          2.9760    2.7840    1.4410 c         1 GDN      0.889600
      4 O11         3.1790    4.0270    1.5660 o         1 GDN     -0.846800
      5 O12         3.6010    1.8950    2.0810 o         1 GDN     -0.846800
      6 CB1         2.4460    1.3280   -0.5410 c3        1 GDN     -0.056400
      7 CG1         1.3650    0.5690   -1.2810 c3        1 GDN     -0.142400
      8 CD1         1.9320   -0.3320   -2.3590 c         1 GDN      0.660100
      9 OE1         3.1330   -0.3390   -2.6950 o         1 GDN     -0.619100
     10 N2          1.0350   -1.2060   -2.9720 n         1 GDN     -0.569900
     11 CA2         1.3930   -1.9690   -4.1350 c3        1 GDN      0.032700
     12 C2          0.4440   -1.7160   -5.3380 c         1 GDN      0.608100
     13 O2         -0.7320   -1.3420   -5.1570 o         1 GDN     -0.614100
     14 CB2         1.4460   -3.4860   -3.8850 c3        1 GDN     -0.119300
     15 SG2         0.1940   -4.1540   -2.8420 ss        1 GDN      0.037000
     16 N3          1.0060   -1.8580   -6.6010 n         1 GDN     -0.490900
     17 CA3         0.1890   -2.3290   -7.6990 c3        1 GDN     -0.074000
     18 C3          0.3050   -3.8580   -7.9350 c         1 GDN      0.880600
     19 O31         1.2660   -4.4790   -7.3810 o         1 GDN     -0.842800
     20 O32        -0.5850   -4.4180   -8.6270 o         1 GDN     -0.842800
     21 C1'        -0.9320   -4.9820   -3.7530 ca        1 GDN      0.063900
     22 C2'        -2.0090   -5.6490   -3.1030 ca        1 GDN     -0.226200
     23 C3'        -2.9900   -6.3420   -3.8320 ca        1 GDN      0.001000
     24 C4'        -2.9060   -6.3930   -5.2250 ca        1 GDN     -0.232200
     25 C5'        -1.8470   -5.7480   -5.9010 ca        1 GDN      0.011000
     26 C6'        -0.8930   -5.0760   -5.1570 ca        1 GDN     -0.179000
     27 N2'        -2.1410   -5.6440   -1.6310 no        1 GDN      0.316200
     28 O2A        -3.0790   -6.2140   -1.1260 o         1 GDN     -0.220500
     29 O2B        -1.3170   -5.0880   -0.9540 o         1 GDN     -0.220500
     30 N4'        -3.9380   -7.1330   -5.9830 no        1 GDN      0.320200
     31 O4A        -3.8510   -7.2260   -7.1770 o         1 GDN     -0.226000
     32 O4B        -4.8520   -7.6430   -5.3810 o         1 GDN     -0.226000
     33 HN1         0.9950    4.1280    0.5210 hn        1 GDN      0.330800
     34 HN2A        1.7030    3.8090   -0.8880 hn        1 GDN      0.330800
     35 HA1         1.0950    1.7630    1.0950 h1        1 GDN      0.039700
     36 HB11        3.1060    1.8580   -1.2750 hc        1 GDN      0.061700
     37 HB12        3.0950    0.6130    0.0330 hc        1 GDN      0.061700
     38 HG11        0.7750   -0.0460   -0.5510 hc        1 GDN      0.066700
     39 HG12        0.6560    1.2890   -1.7710 hc        1 GDN      0.066700
     40 HN2         0.0600   -1.0830   -2.8140 hn        1 GDN      0.323500
     41 HA2         2.4480   -1.6610   -4.4330 h1        1 GDN      0.104700
     42 HB21        1.5580   -4.0110   -4.8700 h1        1 GDN      0.111200
     43 HB22        2.3790   -3.6960   -3.2910 h1        1 GDN      0.111200
     44 HN3         1.8980   -2.3210   -6.5970 hn        1 GDN      0.295500
     45 HA31        0.5360   -1.8020   -8.6290 h1        1 GDN      0.059700
     46 HA32       -0.8880   -2.0670   -7.5190 h1        1 GDN      0.059700
     47 H3'        -3.8220   -6.8450   -3.3010 ha        1 GDN      0.187000
     48 H5'        -1.7590   -5.7560   -7.0120 ha        1 GDN      0.228000
     49 H6'        -0.0660   -4.5990   -5.7260 ha        1 GDN      0.216000
@<TRIPOS>BOND
     1    1    2 1   
     2    1   33 1   
     3    1   34 1   
     4    2    3 1   
     5    2    6 1   
     6    2   35 1   
     7    3    4 1   
     8    3    5 1   
     9    6    7 1   
    10    6   36 1   
    11    6   37 1   
    12    7    8 1   
    13    7   38 1   
    14    7   39 1   
    15    8    9 2   
    16    8   10 1   
    17   10   11 1   
    18   10   40 1   
    19   11   12 1   
    20   11   14 1   
    21   11   41 1   
    22   12   13 2   
    23   12   16 1   
    24   14   15 1   
    25   14   42 1   
    26   14   43 1   
    27   15   21 1   
    28   16   17 1   
    29   16   44 1   
    30   17   18 1   
    31   17   45 1   
    32   17   46 1   
    33   18   19 1   
    34   18   20 1   
    35   21   22 ar  
    36   21   26 ar  
    37   22   23 ar  
    38   22   27 1   
    39   23   24 ar  
    40   23   47 1   
    41   24   25 ar  
    42   24   30 1   
    43   25   26 ar  
    44   25   48 1   
    45   26   49 1   
    46   27   28 1   
    47   27   29 1   
    48   30   31 1   
    49   30   32 1   
@<TRIPOS>SUBSTRUCTURE
     1 GDN         1 TEMP              0 ****  ****    0 ROOT
