@<TRIPOS>MOLECULE
GDO
   35    37     1     0     0
SMALL
bcc


@<TRIPOS>ATOM
      1 C4          3.0790    0.2170   -0.3140 cc        1 GDO      0.015500
      2 C5          3.8670   -0.6310   -1.1890 cd        1 GDO     -0.036600
      3 C6          5.1140   -1.1650   -0.6850 c         1 GDO      0.727700
      4 N1          5.4220   -0.7980    0.6440 n         1 GDO     -0.476400
      5 C8          2.0890   -0.0440   -2.3570 c1        1 GDO      0.034400
      6 O6          5.9470   -1.9000   -1.2620 o         1 GDO     -0.703500
      7 N3          3.4260    0.5570    0.9760 nc        1 GDO     -0.581300
      8 P          -4.6640   -0.1150    0.6270 p5        1 GDO      1.426800
      9 OP1        -4.5650    0.9250   -0.6360 oh        1 GDO     -0.787400
     10 OP2        -4.6030   -1.4310   -0.0490 o         1 GDO     -0.840500
     11 O5'        -3.1830    0.1820    1.2920 os        1 GDO     -0.580200
     12 C5'        -2.0570   -0.2180    0.5720 c3        1 GDO      0.185400
     13 C4'        -1.2930    1.0160    0.0720 c3        1 GDO      0.109100
     14 O4'         0.1010    0.8740    0.3920 os        1 GDO     -0.432600
     15 C3'        -1.3920    1.2600   -1.4320 c3        1 GDO     -0.145400
     16 C2'        -0.0520    1.8890   -1.8090 c3        1 GDO      0.115100
     17 O2'        -0.1260    3.3020   -1.8760 oh        1 GDO     -0.612800
     18 C1'         0.9170    1.4580   -0.6550 c3        1 GDO      0.242800
     19 N9          1.9540    0.5710   -1.0840 nh        1 GDO     -0.127600
     20 N7          3.2410   -0.7650   -2.4190 nf        1 GDO     -0.613000
     21 C2          4.5850    0.0420    1.4100 cd        1 GDO      0.485800
     22 OP3        -5.6890    0.3310    1.5880 o         1 GDO     -0.840500
     23 H1          6.2720   -1.1270    1.0380 hn        1 GDO      0.308500
     24 H2         -4.2380    0.4960   -1.4180 ho        1 GDO      0.422000
     25 H3          4.8290    1.2840    2.9850 hn        1 GDO      0.356800
     26 H4          4.5920   -0.2740    3.3940 hn        1 GDO      0.356800
     27 H6         -1.3830   -0.7930    1.2680 h1        1 GDO      0.045200
     28 H7         -2.3580   -0.8800   -0.2860 h1        1 GDO      0.045200
     29 H8         -1.6600    1.9220    0.6350 h1        1 GDO      0.044700
     30 H9         -1.5230    0.2960   -1.9830 hc        1 GDO      0.069700
     31 H10        -2.2550    1.9270   -1.6710 hc        1 GDO      0.069700
     32 H11         0.3220    1.5660   -2.8190 h1        1 GDO      0.135700
     33 H12        -0.5070    3.6050   -1.0420 ho        1 GDO      0.389000
     34 H13         1.3900    2.3710   -0.1800 h2        1 GDO      0.045700
     35 N2          5.0630    0.3370    2.7500 nh        1 GDO     -0.854800
@<TRIPOS>BOND
     1    1    2 2   
     2    1    7 1   
     3    1   19 1   
     4    2    3 1   
     5    2   20 1   
     6    3    4 1   
     7    3    6 2   
     8    4   21 1   
     9    4   23 1   
    10    5   19 2   
    11    5   20 2   
    12    7   21 2   
    13    8    9 1   
    14    8   10 1   
    15    8   11 1   
    16    8   22 1   
    17    9   24 1   
    18   11   12 1   
    19   12   13 1   
    20   12   27 1   
    21   12   28 1   
    22   13   14 1   
    23   13   15 1   
    24   13   29 1   
    25   14   18 1   
    26   15   16 1   
    27   15   30 1   
    28   15   31 1   
    29   16   17 1   
    30   16   18 1   
    31   16   32 1   
    32   17   33 1   
    33   18   19 1   
    34   18   34 1   
    35   21   35 1   
    36   25   35 1   
    37   26   35 1   
@<TRIPOS>SUBSTRUCTURE
     1 GDO         1 TEMP              0 ****  ****    0 ROOT
