@<TRIPOS>MOLECULE
GDO
   35    33     1     0     0
SMALL
bcc


@<TRIPOS>ATOM
      1 C4          2.3610    0.3320    0.0650 c1        1 GDO     -0.014000
      2 C5          3.2360   -0.4840    0.7210 c1        1 GDO     -0.210000
      3 C6          4.6960   -0.1120    0.8070 c1        1 GDO      0.389000
      4 N1          5.1500    1.0710    0.2130 n3        1 GDO     -0.334000
      5 C8          1.2370   -1.3890    0.8320 c1        1 GDO     -0.016000
      6 N2          4.6770    3.1620   -1.0010 n3        1 GDO     -0.302000
      7 O6          5.4940   -0.8940    1.2880 o         1 GDO     -0.375000
      8 N3          2.8360    1.5620   -0.5530 n1        1 GDO     -0.188000
      9 P          -5.9390   -0.8980    1.3360 p3        1 GDO      2.506000
     10 OP1        -5.6620   -2.0560    2.2610 o         1 GDO     -1.231333
     11 OP2        -6.2370    0.3520    2.1590 o         1 GDO     -1.231333
     12 O5'        -4.6620   -0.6370    0.4180 o         1 GDO     -0.740000
     13 C5'        -3.3790   -0.6880    1.0160 c3        1 GDO      0.042000
     14 C4'        -2.3810    0.1260    0.1610 c3        1 GDO     -0.008000
     15 O4'        -1.2430    0.2130    0.7630 os        1 GDO     -0.303000
     16 C3'        -2.0760   -0.6160   -1.1790 c3        1 GDO     -0.275000
     17 C2'        -0.5340   -0.6210   -1.3030 c3        1 GDO      0.021000
     18 O2'        -0.1230   -0.1460   -2.6610 oh        1 GDO     -0.341000
     19 C1'        -0.1200    0.2080   -0.3940 c3        1 GDO      0.123000
     20 N9          1.1290   -0.2310    0.1360 n3        1 GDO     -0.136000
     21 N7          2.5430   -1.5440    1.1930 n2        1 GDO     -0.117000
     22 C2          4.2330    1.9220   -0.4720 c2        1 GDO      0.128000
     23 OP3        -7.1310   -1.2230    0.4660 o         1 GDO     -1.231333
     24 H1          6.0600    1.2800    0.2250 hn        1 GDO      0.233000
     25 H2          0.5290   -1.9920    1.0280 DU        1 GDO      0.314000
     26 H3          4.0890    3.7070   -1.4470 hn        1 GDO      0.169500
     27 H4          5.5270    3.4340   -0.8630 hn        1 GDO      0.169500
     28 H6         -3.0830   -1.6130    1.0710 h1        1 GDO      0.061000
     29 H7         -3.4230   -0.3030    1.9200 h1        1 GDO      0.061000
     30 H8         -2.7310    1.0000   -0.0170 h1        1 GDO      0.065000
     31 H9         -2.4800   -0.1260   -1.9420 hc        1 GDO      0.162000
     32 H10        -2.4210   -1.5440   -1.1440 hc        1 GDO      0.162000
     33 H11        -0.1780   -1.5210   -1.1330 h1        1 GDO      0.154000
     34 H12         0.0340   -0.8520   -3.1880 ho        1 GDO      0.184000
     35 H13        -0.0260    1.1200   -0.7810 h2        1 GDO      0.108000
@<TRIPOS>BOND
     1    1    2 1   
     2    1   20 1   
     3    2   21 1   
     4    3    4 1   
     5    3    7 1   
     6    4   22 1   
     7    4   24 1   
     8    5   20 1   
     9    5   21 1   
    10    6   22 1   
    11    6   26 1   
    12    6   27 1   
    13    8   22 1   
    14    9   10 1   
    15    9   11 1   
    16    9   23 1   
    17   12   13 1   
    18   13   14 1   
    19   13   28 1   
    20   13   29 1   
    21   14   15 1   
    22   14   16 1   
    23   14   30 1   
    24   15   19 1   
    25   16   17 1   
    26   16   31 1   
    27   16   32 1   
    28   17   18 1   
    29   17   19 1   
    30   17   33 1   
    31   18   34 1   
    32   19   20 1   
    33   19   35 1   
@<TRIPOS>SUBSTRUCTURE
     1 GDO         1 TEMP              0 ****  ****    0 ROOT
