@<TRIPOS>MOLECULE
GDS
   68    60     1     0     0
SMALL
bcc


@<TRIPOS>ATOM
      1 N1          2.1500  -62.2120  294.5480 n3        1 GDS     -0.336000
      2 CA1         3.3620  -62.4900  293.9220 c2        1 GDS     -0.052000
      3 C1        309.5750 -225.3540    0.0700 c1        1 GDS      0.411000
      4 OE1       309.2810 -224.2560    0.4210 o         1 GDS     -0.206000
      5 OE2       309.8690 -226.4520    0.7200 o         1 GDS     -0.206000
      6 CB1         4.4820  -62.9260  294.5230 c2        1 GDS     -0.326000
      7 CG1        66.1460  161.4560  224.8080 c3        1 GDS     -0.248000
      8 CD1        66.2250  160.4080  223.7130 c2        1 GDS      0.281000
      9 O1         66.7290  160.7080  222.6070 o         1 GDS     -0.406000
     10 N2         65.6710  159.1800  223.9900 n         1 GDS     -0.356000
     11 CA2        65.9400  157.9850  223.1820 c3        1 GDS      0.119000
     12 C2         64.8050  157.7340  222.1630 c2        1 GDS      0.310000
     13 O2         65.0240  157.5740  220.9450 o         1 GDS     -0.410000
     14 CB2        66.0820  156.7880  224.0290 c2        1 GDS     -0.691000
     15 SG2        67.4600  156.3500  224.7230 ss        1 GDS     -0.157000
     16 N3         63.5040  157.6830  222.6290 n         1 GDS     -0.426000
     17 CA3     -1847.0440  972.6500  603.7330 c1        1 GDS     -0.089000
     18 C3      -1848.3830  973.0670  604.1800 c2        1 GDS      0.262000
     19 OE3     -1848.6050  973.1340  605.4300 o         1 GDS     -0.587000
     20 OE4     -1849.2460  973.3650  603.2940 o         1 GDS     -0.587000
     21 CA4      -229.2790 -403.6250 -535.3240 c1        1 GDS     -0.097000
     22 C4       -229.1350 -402.8960 -533.9970 c2        1 GDS      0.291000
     23 OE5      -228.1430 -403.2390 -533.2840 o         1 GDS     -0.567500
     24 OE6      -229.9750 -402.0100 -533.6890 o         1 GDS     -0.567500
     25 C5       -229.6970 -405.7560 -536.3920 c2        1 GDS      0.288000
     26 O5       -229.8870 -405.3940 -537.5580 o         1 GDS     -0.285000
     27 CA5      -229.5120 -407.2580 -536.0870 c3        1 GDS     -0.072000
     28 N5       -228.3260 -407.5610 -535.3410 n         1 GDS     -0.370000
     29 CB5        66.6990  158.3330  226.9860 c1        1 GDS     -0.984000
     30 SG5        67.6020  157.3010  226.7170 ss        1 GDS      0.696000
     31 CA6      1642.4850 -126.1700 -485.2850 c1        1 GDS     -0.112000
     32 C6       1643.7920 -125.5120 -485.0910 c2        1 GDS      0.408000
     33 OE7      1644.5320 -125.3580 -486.1040 o         1 GDS     -0.557000
     34 OE8      1644.0980 -125.1390 -483.9230 o         1 GDS     -0.557000
     35 N6        372.4550  316.9550 -315.3090 n3        1 GDS     -0.396000
     36 CB6      1641.4230 -126.7040 -485.4430 c1        1 GDS     -0.362000
     37 CD6      -227.4090 -408.5030 -535.7700 c2        1 GDS      0.301000
     38 O6       -227.6610 -409.2800 -536.7140 o         1 GDS     -0.383000
     39 HN11       65.0830  161.7460  224.9820 hc        1 GDS      0.088667
     40 HN12        1.6360  -61.4720  294.1230 hn        1 GDS      0.175000
     41 HA1         2.2000  -62.1210  295.5390 hn        1 GDS      0.175000
     42 HB11       66.7210  162.3580  224.4890 hc        1 GDS      0.088667
     43 HB12        3.3170  -62.3960  292.8180 h4        1 GDS      0.129000
     44 HG11        5.3590  -63.2150  293.9350 ha        1 GDS      0.116500
     45 HG12        4.5850  -63.0380  295.6080 ha        1 GDS      0.116500
     46 HN2        66.5770  161.0630  225.7610 hc        1 GDS      0.088667
     47 HA2        65.4940  158.9790  224.9560 hn        1 GDS      0.221000
     48 HB21       65.1860  156.1860  224.1870 h4        1 GDS      0.089000
     49 HB22       66.8690  158.1860  222.5660 h1        1 GDS      0.124000
     50 HN3        63.3580  157.5970  223.6030 hn        1 GDS      0.198000
     51 HA31    -1846.9310  971.5630  603.5820 ha        1 GDS      0.002000
     52 HA32       62.8000  157.3300  222.0310 hn        1 GDS      0.198000
     53 HN4      -229.8690 -405.3660 -534.4070 hn        1 GDS      0.160000
     54 HA41       33.2290  149.3600    9.5430 ha        1 GDS      0.000000
     55 HA42       32.6480  149.0910    9.3220 ha        1 GDS      0.000000
     56 HA5      -230.4130 -407.6060 -535.5020 h1        1 GDS      0.117500
     57 HN5      -228.0320 -406.9030 -534.6540 hn        1 GDS      0.240000
     58 HB51     -229.4950 -407.8110 -537.0710 h1        1 GDS      0.117500
     59 HB52       66.0190  159.1110  227.2000 ha        1 GDS      0.177000
     60 HA6      -225.4960 -409.4190 -535.4330 hc        1 GDS      0.105000
     61 HN61      371.5040  317.1180 -315.5660 hn        1 GDS      0.132000
     62 HN62      372.6040  317.2930 -314.3820 hn        1 GDS      0.132000
     63 HB61      372.6360  315.9740 -315.3320 hn        1 GDS      0.132000
     64 HB62     1640.4880 -127.1740 -485.5820 ha        1 GDS      0.179000
     65 HG61     -226.2940 -408.7840 -533.9270 hc        1 GDS      0.105000
     66 HG62     -225.5390 -407.6290 -535.1110 hc        1 GDS      0.105000
     67 CG6      -226.1070 -408.5860 -535.0100 c3        1 GDS     -0.244000
     68 N4       -229.6670 -404.8950 -535.2750 n         1 GDS     -0.244000
@<TRIPOS>BOND
     1    1    2 1   
     2    1   40 1   
     3    1   41 1   
     4    2    6 1   
     5    2   43 1   
     6    3    4 1   
     7    3    5 1   
     8    6   44 1   
     9    6   45 1   
    10    7    8 1   
    11    7   39 1   
    12    7   42 1   
    13    7   46 1   
    14    8    9 1   
    15    8   10 1   
    16   10   11 1   
    17   10   47 1   
    18   11   12 1   
    19   11   14 1   
    20   11   49 1   
    21   12   13 1   
    22   12   16 1   
    23   14   15 1   
    24   14   48 1   
    25   15   30 1   
    26   16   50 1   
    27   16   52 1   
    28   17   18 1   
    29   17   51 1   
    30   18   19 1   
    31   18   20 1   
    32   21   22 1   
    33   21   68 1   
    34   22   23 1   
    35   22   24 1   
    36   25   26 1   
    37   25   27 1   
    38   25   68 1   
    39   27   28 1   
    40   27   56 1   
    41   27   58 1   
    42   28   37 1   
    43   28   57 1   
    44   29   30 1   
    45   29   59 1   
    46   31   32 1   
    47   31   36 1   
    48   32   33 1   
    49   32   34 1   
    50   35   61 1   
    51   35   62 1   
    52   35   63 1   
    53   36   64 1   
    54   37   38 1   
    55   37   67 1   
    56   53   68 1   
    57   54   55 1   
    58   60   67 1   
    59   65   67 1   
    60   66   67 1   
@<TRIPOS>SUBSTRUCTURE
     1 GDS         1 TEMP              0 ****  ****    0 ROOT
