@<TRIPOS>MOLECULE
GDS
   74    61     1     0     0
SMALL
bcc


@<TRIPOS>ATOM
      1 N1        -68.8110   56.5540   87.6690 n8        1 GDS     -0.193000
      2 CA1       -69.7670   55.7930   87.2450 c1        1 GDS     -0.180000
      3 C1        -69.0830   54.0490   85.7740 c1        1 GDS      0.442500
      4 OE1       -67.9290   54.3500   85.8300 o         1 GDS     -0.226375
      5 OE2       -70.1850   53.6190   85.6090 o         1 GDS     -0.226375
      6 CB1       -71.2070   55.8770   87.5450 c3        1 GDS     -0.197000
      7 CG1       -71.6680   56.9380   88.5170 c3        1 GDS     -0.194000
      8 CD1       -73.1330   56.8910   88.8210 c2        1 GDS      0.337000
      9 O1        -73.6670   57.6870   89.7690 os        1 GDS     -0.192000
     10 N2        -74.0320   56.1440   88.1830 n8        1 GDS     -0.288000
     11 CA2        53.1680  -36.6890  -69.9810 c2        1 GDS     -0.405000
     12 C2         53.8270  -36.4220  -68.8680 c1        1 GDS      0.309000
     13 O2         54.4330  -36.1660  -67.8800 o         1 GDS     -0.130000
     14 CB2        51.7760  -36.3120  -70.1970 c3        1 GDS     -0.019000
     15 SG2        51.6060  -34.5260  -70.5360 ss        1 GDS     -0.692000
     16 N3        -72.8640   58.2610   91.9240 nz        1 GDS      0.001000
     17 CA3       -72.6700   58.4390   90.4910 c2        1 GDS     -0.443000
     18 C3        -73.1880   60.1690   95.4460 c1        1 GDS      0.442500
     19 OE3       -73.0870   59.5740   94.4110 o         1 GDS     -0.226375
     20 OE4       -73.2880   60.7550   96.4670 o         1 GDS     -0.226375
     21 CA4        48.1680  -35.3180  -66.8530 c1        1 GDS      0.023000
     22 C4         44.2510  -36.1750  -63.5310 c1        1 GDS      0.442500
     23 OE5        45.1790  -36.4860  -64.2150 o         1 GDS     -0.226375
     24 OE6        43.3300  -35.8690  -62.8520 o         1 GDS     -0.226375
     25 C5         49.3420  -34.0200  -70.9710 c1        1 GDS      0.392000
     26 O5         49.2270  -34.2670  -72.1340 o         1 GDS     -0.171000
     27 CA5        48.8870  -33.5810  -69.7850 c2        1 GDS     -0.458000
     28 N5         49.5740  -33.5410  -68.5290 ny        1 GDS     -0.044000
     29 CB5        53.5480  -34.5900  -73.1000 c1        1 GDS     -0.784000
     30 SG5        52.8540  -33.8420  -72.2360 ss        1 GDS      1.220000
     31 CA6        52.0960  -33.6060  -66.9540 c1        1 GDS      0.023000
     32 C6         51.1230  -28.7300  -63.7520 c1        1 GDS      0.442500
     33 OE7        51.2940  -29.3350  -64.7640 o         1 GDS     -0.226375
     34 OE8        50.9520  -28.1300  -62.7420 o         1 GDS     -0.226375
     35 N6         53.1030  -33.8260  -66.3930 n2        1 GDS     -0.306500
     36 CD6        49.5570  -32.1480  -67.9580 c2        1 GDS      0.279000
     37 O6         48.7970  -31.9620  -67.0160 o         1 GDS     -0.220000
     38 HN11      -72.9240   54.0520   86.1910 ha        1 GDS      0.002375
     39 HN12      -68.9010   57.3380   88.2830 hn        1 GDS      0.217500
     40 HA1       -71.4860   54.8490   87.9140 hc        1 GDS      0.135500
     41 HB11      -72.5400   53.6460   85.8050 ha        1 GDS      0.002375
     42 HB12      -71.7000   56.0140   86.5390 hc        1 GDS      0.135500
     43 HG11      -71.1290   56.8600   89.5060 hc        1 GDS      0.161000
     44 HG12      -71.4510   57.9720   88.1240 hc        1 GDS      0.161000
     45 HN2       -75.0000   56.1770   88.4270 hn        1 GDS      0.281000
     46 HA2        53.6860  -37.2620  -70.7680 ha        1 GDS      0.195000
     47 HB21       51.3410  -36.8590  -71.0670 h1        1 GDS      0.120000
     48 HB22       51.1360  -36.4720  -69.2950 h1        1 GDS      0.120000
     49 HN3       -73.7780   58.5480   92.2910 hn        1 GDS      0.223333
     50 HA31      -72.7960   59.5000   90.1820 hx        1 GDS      0.125000
     51 HA32      -72.1410   58.8260   92.3830 hn        1 GDS      0.223333
     52 HN4        50.5100  -36.3120  -67.0970 ha        1 GDS      0.002375
     53 HA41       46.6160  -38.4310  -64.5670 ha        1 GDS      0.002375
     54 HA42       46.1910  -38.5310  -65.0850 ha        1 GDS      0.002375
     55 HA5        50.7780  -35.7130  -66.9270 ha        1 GDS      0.002375
     56 HN5        49.0770  -34.2080  -67.8470 hn        1 GDS      0.294000
     57 HB51       54.1050  -35.1850  -73.8000 ha        1 GDS      0.240000
     58 HB52       47.8300  -33.2540  -69.7490 hx        1 GDS      0.215000
     59 HA6        50.9750  -29.0600  -68.5440 hc        1 GDS      0.103000
     60 HN61       50.0080  -33.9070  -65.6260 ha        1 GDS      0.002375
     61 HN62       49.4650  -33.6660  -65.2980 ha        1 GDS      0.002375
     62 HB61       49.2240  -29.4300  -68.2380 hc        1 GDS      0.103000
     63 HB62       50.4520  -29.7430  -66.9440 hc        1 GDS      0.103000
     64 HG61       50.3380  -31.1700  -69.7050 hc        1 GDS      0.128500
     65 HG62       51.5420  -31.4990  -68.3790 hc        1 GDS      0.128500
     66 CG6        50.4900  -31.1580  -68.5920 c3        1 GDS     -0.171000
     67 H13       -67.8830   56.3470   87.3500 hn        1 GDS      0.217500
     68 H22       -73.7530   55.5500   87.4260 hn        1 GDS      0.281000
     69 H32       -72.7180   57.2810   92.1650 hn        1 GDS      0.223333
     70 H52        50.5650  -33.8400  -68.6330 hn        1 GDS      0.294000
     71 H63        53.9340  -34.0130  -65.9250 hn        1 GDS      0.312000
     72 H42        46.9030  -36.5200  -65.6010 hn        1 GDS      0.312000
     73 N4         47.4790  -35.9770  -66.1740 n2        1 GDS     -0.306500
     74 CB6        50.2700  -29.7700  -68.0470 c3        1 GDS     -0.222000
@<TRIPOS>BOND
     1    1    2 1   
     2    1   39 1   
     3    1   67 1   
     4    2    6 1   
     5    3    4 1   
     6    3    5 1   
     7    6    7 1   
     8    6   40 1   
     9    6   42 1   
    10    7    8 1   
    11    7   43 1   
    12    7   44 1   
    13    8    9 1   
    14    8   10 1   
    15    9   17 1   
    16   10   45 1   
    17   10   68 1   
    18   11   12 1   
    19   11   14 1   
    20   11   46 1   
    21   12   13 1   
    22   14   15 1   
    23   14   47 1   
    24   14   48 1   
    25   15   30 1   
    26   16   17 1   
    27   16   49 1   
    28   16   51 1   
    29   16   69 1   
    30   17   50 1   
    31   18   19 1   
    32   18   20 1   
    33   21   73 1   
    34   22   23 1   
    35   22   24 1   
    36   25   26 1   
    37   25   27 1   
    38   27   28 1   
    39   27   58 1   
    40   28   36 1   
    41   28   56 1   
    42   28   70 1   
    43   29   30 1   
    44   29   57 1   
    45   31   35 1   
    46   32   33 1   
    47   32   34 1   
    48   35   71 1   
    49   36   37 1   
    50   36   66 1   
    51   38   41 1   
    52   52   55 1   
    53   53   54 1   
    54   59   74 1   
    55   60   61 1   
    56   62   74 1   
    57   63   74 1   
    58   64   66 1   
    59   65   66 1   
    60   66   74 1   
    61   72   73 1   
@<TRIPOS>SUBSTRUCTURE
     1 GDS         1 TEMP              0 ****  ****    0 ROOT
