@<TRIPOS>MOLECULE
GDS
   68    67     1     0     0
SMALL
bcc


@<TRIPOS>ATOM
      1 N1          6.7520   -6.2190    0.6100 n3        1 GDS     -0.891800
      2 CA1         5.4230   -6.5320    0.9170 c3        1 GDS      0.024000
      3 C1          4.9780   -7.7290    0.0810 c         1 GDS      0.888100
      4 OE1         4.5030   -8.7650    0.6540 o         1 GDS     -0.852300
      5 OE2         5.1750   -7.7320   -1.1740 o         1 GDS     -0.852300
      6 CB1         4.5340   -5.3390    0.6050 c3        1 GDS     -0.051400
      7 CG1         3.2730   -5.3890    1.4960 c3        1 GDS     -0.151900
      8 CD1         2.7280   -3.9610    1.6900 c         1 GDS      0.661600
      9 O1          3.5090   -3.0230    1.8590 o         1 GDS     -0.625600
     10 N2          1.2910   -3.7130    1.6370 n         1 GDS     -0.565900
     11 CA2         0.7410   -2.5320    2.2560 c3        1 GDS      0.053200
     12 C2         -0.1570   -2.9360    3.4080 c         1 GDS      0.622600
     13 O2         -1.2400   -3.4330    3.1870 o         1 GDS     -0.668600
     14 CB2        -0.0610   -1.7560    1.2380 c3        1 GDS     -0.021800
     15 SG2        -0.1210   -0.0420    1.7110 ss        1 GDS     -0.177600
     16 N3          0.2410   -2.6460    4.7760 n         1 GDS     -0.516400
     17 CA3        -0.4970   -3.2190    5.8790 c3        1 GDS     -0.036500
     18 C3          0.0860   -2.7320    7.1830 c         1 GDS      0.909100
     19 OE3        -0.3650   -1.6880    7.7220 o         1 GDS     -0.847300
     20 OE4         1.0150   -3.3710    7.7330 o         1 GDS     -0.847300
     21 N4         -3.1850    5.4070    0.8100 n         1 GDS     -0.516400
     22 CA4        -3.3030    6.7380    1.3420 c3        1 GDS     -0.036500
     23 C4         -4.6590    6.9130    1.9610 c         1 GDS      0.909100
     24 OE5        -4.7960    6.8340    3.2130 o         1 GDS     -0.847300
     25 OE6        -5.6430    7.2030    1.2400 o         1 GDS     -0.847300
     26 C5         -1.9730    4.9990    0.1530 c         1 GDS      0.622600
     27 O5         -1.0600    5.7970    0.0080 o         1 GDS     -0.668600
     28 CA5        -1.8380    3.5930   -0.3770 c3        1 GDS      0.053200
     29 N5         -1.3040    3.6310   -1.7020 n         1 GDS     -0.565900
     30 CB5        -0.8940    2.7870    0.5330 c3        1 GDS     -0.021800
     31 SG5        -1.1420    1.0470    0.2530 ss        1 GDS     -0.177600
     32 CA6        -2.1030    3.7010   -6.6760 c3        1 GDS      0.024000
     33 C6         -0.9670    2.9990   -7.3680 c         1 GDS      0.888100
     34 OE7        -1.0490    1.7750   -7.6220 o         1 GDS     -0.852300
     35 OE8         0.0650    3.6360   -7.6840 o         1 GDS     -0.852300
     36 N6         -3.2660    3.5960   -7.4660 n3        1 GDS     -0.891800
     37 CB6        -2.3530    3.0530   -5.3100 c3        1 GDS     -0.051400
     38 CG6        -1.8100    3.9610   -4.2120 c3        1 GDS     -0.151900
     39 CD6        -2.1430    3.3510   -2.8190 c         1 GDS      0.661600
     40 O6         -3.1710    2.6910   -2.6660 o         1 GDS     -0.625600
     41 HN11        7.2660   -6.2570    1.3820 hn        1 GDS      0.327550
     42 HN12        6.7940   -5.3710    0.2550 hn        1 GDS      0.327550
     43 HA1         5.3530   -6.7490    1.8550 h1        1 GDS      0.041700
     44 HB11        5.0290   -4.5020    0.7830 hc        1 GDS      0.038950
     45 HB12        4.2670   -5.3680   -0.3430 hc        1 GDS      0.038950
     46 HG11        2.5930   -5.9430    1.0660 hc        1 GDS      0.087700
     47 HG12        3.5010   -5.7690    2.3610 hc        1 GDS      0.087700
     48 HN2         0.7470   -4.2810    1.1740 hn        1 GDS      0.317500
     49 HA2         1.4740   -1.9670    2.5950 h1        1 GDS      0.106200
     50 HB21        0.3600   -1.8360    0.3640 h1        1 GDS      0.081950
     51 HB22       -0.9820   -2.1190    1.1950 h1        1 GDS      0.081950
     52 HN3         0.9830   -2.1030    4.9410 hn        1 GDS      0.338500
     53 HA31       -0.4360   -4.2000    5.8400 h1        1 GDS      0.035700
     54 HA32       -1.4340   -2.9480    5.8200 h1        1 GDS      0.035700
     55 HN4        -3.8880    4.8300    0.8680 hn        1 GDS      0.338500
     56 HA41       -3.1870    7.3910    0.6170 h1        1 GDS      0.035700
     57 HA42       -2.6110    6.8800    2.0230 h1        1 GDS      0.035700
     58 HA5        -2.7130    3.1680   -0.3930 h1        1 GDS      0.106200
     59 HN5        -0.4450    3.8250   -1.8290 hn        1 GDS      0.317500
     60 HB51       -1.0830    2.9950    1.4650 h1        1 GDS      0.081950
     61 HB52        0.0540    3.0280    0.3250 h1        1 GDS      0.081950
     62 HA6        -1.8770    4.6460   -6.5520 h1        1 GDS      0.041700
     63 HN61       -3.0500    3.2600   -8.2750 hn        1 GDS      0.327550
     64 HN62       -3.6400    4.4230   -7.5690 hn        1 GDS      0.327550
     65 HB61       -3.3210    2.9230   -5.1800 hc        1 GDS      0.038950
     66 HB62       -1.9030    2.1940   -5.2710 hc        1 GDS      0.038950
     67 HG61       -2.2240    4.8500   -4.2870 hc        1 GDS      0.087700
     68 HG62       -0.8380    4.0450   -4.3090 hc        1 GDS      0.087700
@<TRIPOS>BOND
     1    1    2 1   
     2    1   41 1   
     3    1   42 1   
     4    2    3 1   
     5    2    6 1   
     6    2   43 1   
     7    3    4 1   
     8    3    5 1   
     9    6    7 1   
    10    6   44 1   
    11    6   45 1   
    12    7    8 1   
    13    7   46 1   
    14    7   47 1   
    15    8    9 2   
    16    8   10 1   
    17   10   11 1   
    18   10   48 1   
    19   11   12 1   
    20   11   14 1   
    21   11   49 1   
    22   12   13 2   
    23   12   16 1   
    24   14   15 1   
    25   14   50 1   
    26   14   51 1   
    27   15   31 1   
    28   16   17 1   
    29   16   52 1   
    30   17   18 1   
    31   17   53 1   
    32   17   54 1   
    33   18   19 1   
    34   18   20 1   
    35   21   22 1   
    36   21   26 1   
    37   21   55 1   
    38   22   23 1   
    39   22   56 1   
    40   22   57 1   
    41   23   24 1   
    42   23   25 1   
    43   26   27 2   
    44   26   28 1   
    45   28   29 1   
    46   28   30 1   
    47   28   58 1   
    48   29   39 1   
    49   29   59 1   
    50   30   31 1   
    51   30   60 1   
    52   30   61 1   
    53   32   33 1   
    54   32   36 1   
    55   32   37 1   
    56   32   62 1   
    57   33   34 1   
    58   33   35 1   
    59   36   63 1   
    60   36   64 1   
    61   37   38 1   
    62   37   65 1   
    63   37   66 1   
    64   38   39 1   
    65   38   67 1   
    66   38   68 1   
    67   39   40 2   
@<TRIPOS>SUBSTRUCTURE
     1 GDS         1 TEMP              0 ****  ****    0 ROOT
