@<TRIPOS>MOLECULE
GDS
   68    67     1     0     0
SMALL
bcc


@<TRIPOS>ATOM
      1 N1         -3.2140    0.1480    8.2120 n3        1 GDS     -0.896800
      2 CA1        -3.3260   -1.1330    7.5240 c3        1 GDS      0.024500
      3 C1         -3.7680   -2.3140    8.4480 c         1 GDS      0.889600
      4 OE1        -3.8660   -2.1000    9.6940 o         1 GDS     -0.853300
      5 OE2        -4.0490   -3.4180    7.9060 o         1 GDS     -0.853300
      6 CB1        -2.0550   -1.5370    6.7700 c3        1 GDS     -0.058400
      7 CG1        -1.6930   -0.5270    5.6990 c3        1 GDS     -0.142400
      8 CD1        -0.5020   -0.9700    4.8660 c         1 GDS      0.665100
      9 O1         -0.1510   -2.1610    4.7640 o         1 GDS     -0.610100
     10 N2          0.1730    0.0300    4.1740 n         1 GDS     -0.579900
     11 CA2         1.3250   -0.2140    3.3540 c3        1 GDS      0.048700
     12 C2          2.6630    0.2480    4.0090 c         1 GDS      0.628100
     13 O2          3.6240   -0.5550    4.0200 o         1 GDS     -0.649100
     14 CB2         1.2720    0.4580    1.9740 c3        1 GDS     -0.024300
     15 SG2         0.1790   -0.4840    0.9390 ss        1 GDS     -0.179100
     16 N3          2.7530    1.5150    4.4990 n         1 GDS     -0.527900
     17 CA3         3.9350    2.0200    5.1450 c3        1 GDS     -0.037000
     18 C3          3.7800    3.4550    5.7180 c         1 GDS      0.909600
     19 OE3         2.6810    4.0660    5.5850 o         1 GDS     -0.846800
     20 OE4         4.7960    3.9330    6.2980 o         1 GDS     -0.846800
     21 CA4         3.8900   -1.9240   -5.2150 c3        1 GDS     -0.037000
     22 C4          3.7600   -3.3630   -5.7860 c         1 GDS      0.909600
     23 OE5         2.6790   -4.0000   -5.6340 o         1 GDS     -0.846800
     24 OE6         4.7770   -3.8160   -6.3840 o         1 GDS     -0.846800
     25 C5          2.5960   -0.1840   -4.0560 c         1 GDS      0.628100
     26 O5          3.5360    0.6420   -4.0840 o         1 GDS     -0.649100
     27 CA5         1.2590    0.2450   -3.3770 c3        1 GDS      0.048700
     28 N5          0.0980   -0.0270   -4.1760 n         1 GDS     -0.579900
     29 CB5         1.2470   -0.4280   -1.9970 c3        1 GDS     -0.024300
     30 SG5         0.1500    0.4880   -0.9420 ss        1 GDS     -0.179100
     31 CA6        -3.4880    1.0490   -7.4620 c3        1 GDS      0.024500
     32 C6         -3.9760    2.2190   -8.3770 c         1 GDS      0.889600
     33 OE7        -4.0910    2.0020   -9.6210 o         1 GDS     -0.853300
     34 OE8        -4.2740    3.3160   -7.8300 o         1 GDS     -0.853300
     35 N6         -3.3560   -0.2290   -8.1530 n3        1 GDS     -0.896800
     36 CB6        -2.2140    1.4840   -6.7310 c3        1 GDS     -0.058400
     37 CD6        -0.6140    0.9560   -4.8560 c         1 GDS      0.665100
     38 O6         -0.2900    2.1550   -4.7600 o         1 GDS     -0.610100
     39 HN11       -2.3010    0.2150    8.6280 hn        1 GDS      0.330300
     40 HN12       -3.8730    0.1410    8.9740 hn        1 GDS      0.330300
     41 HA1        -4.1540   -1.0050    6.7650 h1        1 GDS      0.040700
     42 HB11       -1.2000   -1.6500    7.4840 hc        1 GDS      0.060700
     43 HB12       -2.2380   -2.5430    6.3060 hc        1 GDS      0.060700
     44 HG11       -2.5610   -0.3960    4.9990 hc        1 GDS      0.062200
     45 HG12       -1.4850    0.4680    6.1730 hc        1 GDS      0.062200
     46 HN2        -0.1020    0.9730    4.3080 hn        1 GDS      0.309500
     47 HA2         1.4250   -1.3370    3.2140 h1        1 GDS      0.125700
     48 HB21        0.9270    1.5170    2.0490 h1        1 GDS      0.078700
     49 HB22        2.3030    0.4590    1.5420 h1        1 GDS      0.078700
     50 HN3         1.9690    2.1290    4.5040 hn        1 GDS      0.329500
     51 HA31        4.2260    1.3330    5.9870 h1        1 GDS      0.035200
     52 HA32        4.7850    2.0250    4.4070 h1        1 GDS      0.035200
     53 HN4         1.9390   -2.0820   -4.5390 hn        1 GDS      0.329500
     54 HA41        4.1490   -1.2300   -6.0620 h1        1 GDS      0.035200
     55 HA42        4.7530   -1.9090   -4.4920 h1        1 GDS      0.035200
     56 HA5         1.3330    1.3710   -3.2390 h1        1 GDS      0.125700
     57 HN5        -0.1550   -0.9770   -4.3050 hn        1 GDS      0.309500
     58 HB51        2.2850   -0.4030   -1.5830 h1        1 GDS      0.078700
     59 HB52        0.9270   -1.4950   -2.0650 h1        1 GDS      0.078700
     60 HA6        -4.2990    0.9000   -6.6880 h1        1 GDS      0.040700
     61 HN61       -4.0290   -0.2380   -8.9030 hn        1 GDS      0.330300
     62 HN62       -2.4500   -0.2730   -8.5850 hn        1 GDS      0.330300
     63 HB61       -2.4130    2.4850   -6.2630 hc        1 GDS      0.060700
     64 HB62       -1.3750    1.6190   -7.4600 hc        1 GDS      0.060700
     65 HG61       -1.5840   -0.5060   -6.1460 hc        1 GDS      0.062200
     66 HG62       -2.6590    0.3310   -4.9520 hc        1 GDS      0.062200
     67 CG6        -1.8080    0.4840   -5.6680 c3        1 GDS     -0.142400
     68 N4          2.7080   -1.4480   -4.5480 n         1 GDS     -0.527900
@<TRIPOS>BOND
     1    1    2 1   
     2    1   39 1   
     3    1   40 1   
     4    2    3 1   
     5    2    6 1   
     6    2   41 1   
     7    3    4 1   
     8    3    5 1   
     9    6    7 1   
    10    6   42 1   
    11    6   43 1   
    12    7    8 1   
    13    7   44 1   
    14    7   45 1   
    15    8    9 2   
    16    8   10 1   
    17   10   11 1   
    18   10   46 1   
    19   11   12 1   
    20   11   14 1   
    21   11   47 1   
    22   12   13 2   
    23   12   16 1   
    24   14   15 1   
    25   14   48 1   
    26   14   49 1   
    27   15   30 1   
    28   16   17 1   
    29   16   50 1   
    30   17   18 1   
    31   17   51 1   
    32   17   52 1   
    33   18   19 1   
    34   18   20 1   
    35   21   22 1   
    36   21   54 1   
    37   21   55 1   
    38   21   68 1   
    39   22   23 1   
    40   22   24 1   
    41   25   26 2   
    42   25   27 1   
    43   25   68 1   
    44   27   28 1   
    45   27   29 1   
    46   27   56 1   
    47   28   37 1   
    48   28   57 1   
    49   29   30 1   
    50   29   58 1   
    51   29   59 1   
    52   31   32 1   
    53   31   35 1   
    54   31   36 1   
    55   31   60 1   
    56   32   33 1   
    57   32   34 1   
    58   35   61 1   
    59   35   62 1   
    60   36   63 1   
    61   36   64 1   
    62   36   67 1   
    63   37   38 2   
    64   37   67 1   
    65   53   68 1   
    66   65   67 1   
    67   66   67 1   
@<TRIPOS>SUBSTRUCTURE
     1 GDS         1 TEMP              0 ****  ****    0 ROOT
