@<TRIPOS>MOLECULE
GDT
   81    77     1     0     0
SMALL
bcc


@<TRIPOS>ATOM
      1 C1          1.8460    0.3830   -0.9500 c1        1 GDT     -0.137750
      2 C2          3.1590    0.0360   -1.2680 c1        1 GDT     -0.137750
      3 C3          4.2100   -0.1220   -0.1460 c1        1 GDT     -0.137750
      4 C4          5.4710   -0.6400   -0.4390 c1        1 GDT     -0.137750
      5 C5          5.8150   -1.0510   -1.8720 c2        1 GDT     -0.146000
      6 C6          7.1710   -1.7850   -1.8870 c3        1 GDT     -0.157000
      7 O37         1.9250   -0.0880    1.3850 o         1 GDT     -0.397000
      8 C12         1.4450    0.6060    0.5120 c1        1 GDT      0.350000
      9 N13         0.4510    1.5890    0.8430 n3        1 GDT     -0.374000
     10 C14        -0.3660    1.4120    1.9830 c3        1 GDT     -0.017000
     11 C34         0.1390    2.2880    3.1060 c3        1 GDT      0.039000
     12 C36         0.5710    1.4240    4.2610 c3        1 GDT     -0.214000
     13 O35         1.2330    3.0460    2.6540 oh        1 GDT     -0.336000
     14 C15        -1.8060    1.7990    1.6440 c2        1 GDT      0.286000
     15 O33        -2.0720    2.9440    1.3580 o         1 GDT     -0.423000
     16 N16        -2.8630    0.8060    1.7170 n         1 GDT     -0.355000
     17 C17        -4.2130    1.1830    1.4500 c3        1 GDT      0.016000
     18 C31        -5.1380    0.4430    2.3840 c2        1 GDT      0.273000
     19 O32        -5.1040   -0.7740    2.4370 o         1 GDT     -0.358000
     20 N30        -6.1430    1.1900    3.1720 n         1 GDT     -0.369000
     21 C28        -6.9550    0.2680    3.9100 c3        1 GDT      0.031000
     22 C29        -6.5200    0.2670    5.3620 c3        1 GDT     -0.233000
     23 C27        -8.4080    0.6830    3.8170 c2        1 GDT     -0.136000
     24 C26        -9.1010    0.7550    2.4460 c1        1 GDT     -0.180000
     25 C24        -8.3210    0.4600    1.1920 c1        1 GDT      0.331000
     26 O25        -8.5880   -0.5300    0.5270 o         1 GDT     -0.356000
     27 N23        -7.9840    1.6960    0.5350 n3        1 GDT     -0.367000
     28 C22        -8.0360    1.5020   -0.9000 c3        1 GDT     -0.034000
     29 C21        -6.5620    1.2040   -1.4540 c3        1 GDT     -0.241000
     30 C19        -5.5320    1.8830   -0.5540 c3        1 GDT      0.036000
     31 O20        -4.8210    2.8270   -1.2910 oh        1 GDT     -0.330000
     32 C18        -4.5630    0.8350    0.0050 c3        1 GDT     -0.169000
     33 C7          7.6230   -1.9850   -3.3360 c3        1 GDT     -0.158000
     34 C8          8.7840   -2.9920   -3.3780 c3        1 GDT     -0.158000
     35 C9          9.4000   -3.0090   -4.7970 c3        1 GDT     -0.158000
     36 C10        10.3680   -4.1960   -4.9200 c3        1 GDT     -0.159000
     37 C11        10.9010   -4.2760   -6.3570 c3        1 GDT     -0.211000
     38 H1          1.1820    0.4830   -1.6580 ha        1 GDT      0.139000
     39 H2          3.4160   -0.1060   -2.2040 ha        1 GDT      0.139000
     40 H3          3.9900    0.1410    0.7720 ha        1 GDT      0.139000
     41 H4          6.1360   -0.7400    0.2720 ha        1 GDT      0.139000
     42 H5          5.8700   -0.2550   -2.4340 ha        1 GDT      0.092500
     43 H5A         5.1220   -1.6430   -2.2150 ha        1 GDT      0.092500
     44 H6          7.8360   -1.2530   -1.4090 hc        1 GDT      0.083500
     45 H6A         7.0760   -2.6570   -1.4510 hc        1 GDT      0.083500
     46 HN13        0.3760    2.3430    0.3430 hn        1 GDT      0.248000
     47 H14        -0.3370    0.4780    2.2620 h1        1 GDT      0.135000
     48 H34        -0.5750    2.8880    3.3970 h1        1 GDT      0.097000
     49 H36         1.5530    1.3620    4.2750 hc        1 GDT      0.089333
     50 H36A        0.2570    1.8180    5.0970 hc        1 GDT      0.089333
     51 H36B        0.1890    0.5290    4.1590 hc        1 GDT      0.089333
     52 HO35        1.3350    3.7660    3.1780 ho        1 GDT      0.230000
     53 HN16       -2.6580   -0.0670    1.8840 hn        1 GDT      0.271000
     54 H17        -4.3150    2.1470    1.5870 h1        1 GDT      0.117000
     55 HN30       -5.9300    1.9920    3.5310 hn        1 GDT      0.244000
     56 H28        -6.8490   -0.6270    3.5390 h1        1 GDT      0.139000
     57 H29        -6.8850   -0.5230    5.8110 hc        1 GDT      0.085667
     58 H29A       -6.8520    1.0750    5.8030 hc        1 GDT      0.085667
     59 H29B       -5.5370    0.2460    5.4100 hc        1 GDT      0.085667
     60 H27        -8.9130    0.8740    4.6290 ha        1 GDT      0.133000
     61 H26       -10.0400    1.0230    2.3860 ha        1 GDT      0.152000
     62 HN23       -8.2460    2.4910    0.8980 hn        1 GDT      0.220000
     63 H22        -8.3910    2.3180   -1.3310 h1        1 GDT      0.100500
     64 H22A       -8.6200    0.7450   -1.1050 h1        1 GDT      0.100500
     65 H21        -6.4780    1.5540   -2.3680 hc        1 GDT      0.119500
     66 H21A       -6.4050    0.2410   -1.4590 hc        1 GDT      0.119500
     67 H19        -5.9860    2.3230    0.1770 h1        1 GDT      0.065000
     68 HO20       -5.3540    3.4950   -1.5070 ho        1 GDT      0.202000
     69 H18        -4.9860   -0.0510   -0.0260 hc        1 GDT      0.123500
     70 H18A       -3.7470    0.8260   -0.5350 hc        1 GDT      0.123500
     71 H7          6.8810   -2.3250   -3.8620 hc        1 GDT      0.079500
     72 H7A         7.9210   -1.1270   -3.7070 hc        1 GDT      0.079500
     73 H8          8.4480   -3.8870   -3.1570 hc        1 GDT      0.080000
     74 H8A         9.4660   -2.7300   -2.7300 hc        1 GDT      0.080000
     75 H9          9.8850   -2.1750   -4.9520 hc        1 GDT      0.079000
     76 H9A         8.6910   -3.0990   -5.4580 hc        1 GDT      0.079000
     77 H10        11.1100   -4.0730   -4.3060 hc        1 GDT      0.078000
     78 H10A        9.8950   -5.0280   -4.7000 hc        1 GDT      0.078000
     79 H11        10.1590   -4.1670   -6.9880 hc        1 GDT      0.072333
     80 H11A       11.5620   -3.5610   -6.5010 hc        1 GDT      0.072333
     81 H11B       11.3250   -5.1450   -6.4990 hc        1 GDT      0.072333
@<TRIPOS>BOND
     1    1    2 1   
     2    1   38 1   
     3    2   39 1   
     4    3    4 1   
     5    3   40 1   
     6    4   41 1   
     7    5    6 1   
     8    5   42 1   
     9    5   43 1   
    10    6   33 1   
    11    6   44 1   
    12    6   45 1   
    13    7    8 1   
    14    8    9 1   
    15    9   10 1   
    16    9   46 1   
    17   10   11 1   
    18   10   14 1   
    19   10   47 1   
    20   11   12 1   
    21   11   13 1   
    22   11   48 1   
    23   12   49 1   
    24   12   50 1   
    25   12   51 1   
    26   13   52 1   
    27   14   15 1   
    28   14   16 1   
    29   16   17 1   
    30   16   53 1   
    31   17   18 1   
    32   17   32 1   
    33   17   54 1   
    34   18   19 1   
    35   18   20 1   
    36   20   21 1   
    37   20   55 1   
    38   21   22 1   
    39   21   23 1   
    40   21   56 1   
    41   22   57 1   
    42   22   58 1   
    43   22   59 1   
    44   23   24 1   
    45   23   60 1   
    46   24   61 1   
    47   25   26 1   
    48   25   27 1   
    49   27   28 1   
    50   27   62 1   
    51   28   29 1   
    52   28   63 1   
    53   28   64 1   
    54   29   30 1   
    55   29   65 1   
    56   29   66 1   
    57   30   31 1   
    58   30   32 1   
    59   30   67 1   
    60   31   68 1   
    61   32   69 1   
    62   32   70 1   
    63   33   34 1   
    64   33   71 1   
    65   33   72 1   
    66   34   35 1   
    67   34   73 1   
    68   34   74 1   
    69   35   36 1   
    70   35   75 1   
    71   35   76 1   
    72   36   37 1   
    73   36   77 1   
    74   36   78 1   
    75   37   79 1   
    76   37   80 1   
    77   37   81 1   
@<TRIPOS>SUBSTRUCTURE
     1 GDT         1 TEMP              0 ****  ****    0 ROOT
