@<TRIPOS>MOLECULE
GDT
   81    81     1     0     0
SMALL
bcc


@<TRIPOS>ATOM
      1 C1         -2.1390   -2.5690    0.2690 ce        1 GDT     -0.254200
      2 C2         -2.8330   -1.4310    0.0960 cf        1 GDT     -0.030000
      3 C3         -4.2340   -1.4090   -0.2620 cf        1 GDT     -0.178000
      4 C4         -4.9070   -0.2670   -0.4750 c2        1 GDT     -0.110200
      5 C5         -6.3350   -0.2240   -0.8630 c3        1 GDT     -0.060200
      6 C6         -7.0770    0.8850   -0.1410 c3        1 GDT     -0.077400
      7 O37        -0.2340   -1.6120    1.3740 o         1 GDT     -0.657100
      8 C12        -0.7080   -2.5160    0.6440 c         1 GDT      0.680300
      9 N13         0.1170   -3.5070    0.1490 n         1 GDT     -0.557900
     10 C14         1.5260   -3.5390    0.4220 c3        1 GDT      0.006700
     11 C34         2.1200   -4.9740    0.3370 c3        1 GDT      0.151100
     12 C36         1.5340   -5.8780    1.4040 c3        1 GDT     -0.096100
     13 O35         1.8330   -5.5630   -0.9180 oh        1 GDT     -0.607800
     14 C15         2.3320   -2.6280   -0.5430 c         1 GDT      0.630100
     15 O33         3.2340   -3.1030   -1.2700 o         1 GDT     -0.646100
     16 N16         2.0420   -1.2880   -0.5320 n         1 GDT     -0.552900
     17 C17         2.6150   -0.3510   -1.4640 c3        1 GDT      0.041700
     18 C31         4.0420    0.1490   -1.1040 c         1 GDT      0.652100
     19 O32         4.4190    1.2520   -1.5560 o         1 GDT     -0.631100
     20 N30         4.8610   -0.6450   -0.3370 n         1 GDT     -0.566900
     21 C28         6.0100   -0.1390    0.3940 c3        1 GDT      0.151900
     22 C29         7.1440    0.3780   -0.4890 c3        1 GDT     -0.112100
     23 C27         5.5700    0.9110    1.3900 c2        1 GDT     -0.153200
     24 C26         5.2780    2.1620    1.0320 ce        1 GDT     -0.192200
     25 C24         4.6290    3.1220    1.9610 c         1 GDT      0.654300
     26 O25         5.1400    3.4960    3.0350 o         1 GDT     -0.602100
     27 N23         3.3970    3.6360    1.5830 n         1 GDT     -0.568900
     28 C22         2.6500    3.1720    0.4500 c3        1 GDT      0.090000
     29 C21         1.8830    1.8610    0.6650 c3        1 GDT     -0.145400
     30 C19         1.0040    1.5360   -0.5360 c3        1 GDT      0.148100
     31 O20        -0.1340    0.7540   -0.1810 oh        1 GDT     -0.628800
     32 C18         1.7040    0.8630   -1.7180 c3        1 GDT     -0.104400
     33 C7         -8.5300    0.9290   -0.5610 c3        1 GDT     -0.079400
     34 C8         -9.2740    2.0350    0.1560 c3        1 GDT     -0.079400
     35 C9        -10.7280    2.0800   -0.2620 c3        1 GDT     -0.079400
     36 C10       -11.4730    3.1870    0.4540 c3        1 GDT     -0.080400
     37 C11       -12.9210    3.2350    0.0410 c3        1 GDT     -0.093100
     38 H1         -2.5920   -3.5640    0.1500 ha        1 GDT      0.143000
     39 H2         -2.3260   -0.4520    0.2190 ha        1 GDT      0.153000
     40 H3         -4.7350   -2.3880   -0.3530 ha        1 GDT      0.129000
     41 H4         -4.4090    0.7140   -0.3800 ha        1 GDT      0.130000
     42 H5         -6.3970   -0.0510   -1.9740 hc        1 GDT      0.054200
     43 H5A        -6.8360   -1.2070   -0.6560 hc        1 GDT      0.054200
     44 H6         -7.0090    0.7220    0.9670 hc        1 GDT      0.044200
     45 H6A        -6.5900    1.8710   -0.3630 hc        1 GDT      0.044200
     46 HN13       -0.2370   -4.2030   -0.4660 hn        1 GDT      0.336500
     47 H14         1.7020   -3.1490    1.4710 h1        1 GDT      0.096700
     48 H34         3.2340   -4.8770    0.4740 h1        1 GDT      0.058700
     49 H36         0.4550   -6.0800    1.2050 hc        1 GDT      0.050367
     50 H36A        2.0780   -6.8530    1.4030 hc        1 GDT      0.050367
     51 H36B        1.6400   -5.3990    2.4060 hc        1 GDT      0.050367
     52 HO35        2.3950   -5.1210   -1.5710 ho        1 GDT      0.430000
     53 HN16        1.3270   -0.9490    0.0760 hn        1 GDT      0.349500
     54 H17         2.7590   -0.8850   -2.4580 h1        1 GDT      0.091700
     55 HN30        4.6330   -1.6020   -0.2070 hn        1 GDT      0.330500
     56 H28         6.4170   -1.0200    0.9820 h1        1 GDT      0.054700
     57 H29         6.7880    1.1960   -1.1610 hc        1 GDT      0.052700
     58 H29A        7.9590    0.7700    0.1640 hc        1 GDT      0.052700
     59 H29B        7.5510   -0.4480   -1.1210 hc        1 GDT      0.052700
     60 H27         5.4350    0.5540    2.4230 ha        1 GDT      0.135000
     61 H26         5.4550    2.5380    0.0070 ha        1 GDT      0.175000
     62 HN23        2.9140    4.1880    2.2540 hn        1 GDT      0.313500
     63 H22         1.9130    3.9820    0.1770 h1        1 GDT      0.066200
     64 H22A        3.3490    3.0260   -0.4270 h1        1 GDT      0.066200
     65 H21         2.6140    1.0320    0.8500 hc        1 GDT      0.056700
     66 H21A        1.2340    1.9500    1.5770 hc        1 GDT      0.056700
     67 H19         0.5650    2.5020   -0.9360 h1        1 GDT      0.055700
     68 HO20       -0.0600    0.4740    0.7420 ho        1 GDT      0.425000
     69 H18         2.3220    1.6430   -2.2400 hc        1 GDT      0.079700
     70 H18A        0.8940    0.5300   -2.4220 hc        1 GDT      0.079700
     71 H7         -8.5980    1.0870   -1.6700 hc        1 GDT      0.040700
     72 H7A        -9.0170   -0.0570   -0.3380 hc        1 GDT      0.040700
     73 H8         -9.2060    1.8770    1.2650 hc        1 GDT      0.040700
     74 H8A        -8.7870    3.0210   -0.0670 hc        1 GDT      0.040700
     75 H9        -10.7960    2.2390   -1.3710 hc        1 GDT      0.039700
     76 H9A       -11.2140    1.0940   -0.0390 hc        1 GDT      0.039700
     77 H10       -11.4020    3.0270    1.5630 hc        1 GDT      0.038700
     78 H10A      -10.9840    4.1710    0.2310 hc        1 GDT      0.038700
     79 H11       -13.4320    2.2710    0.2780 hc        1 GDT      0.033033
     80 H11A      -13.4510    4.0570    0.5800 hc        1 GDT      0.033033
     81 H11B      -13.0120    3.4180   -1.0570 hc        1 GDT      0.033033
@<TRIPOS>BOND
     1    1    2 2   
     2    1    8 1   
     3    1   38 1   
     4    2    3 1   
     5    2   39 1   
     6    3    4 2   
     7    3   40 1   
     8    4    5 1   
     9    4   41 1   
    10    5    6 1   
    11    5   42 1   
    12    5   43 1   
    13    6   33 1   
    14    6   44 1   
    15    6   45 1   
    16    7    8 2   
    17    8    9 1   
    18    9   10 1   
    19    9   46 1   
    20   10   11 1   
    21   10   14 1   
    22   10   47 1   
    23   11   12 1   
    24   11   13 1   
    25   11   48 1   
    26   12   49 1   
    27   12   50 1   
    28   12   51 1   
    29   13   52 1   
    30   14   15 2   
    31   14   16 1   
    32   16   17 1   
    33   16   53 1   
    34   17   18 1   
    35   17   32 1   
    36   17   54 1   
    37   18   19 2   
    38   18   20 1   
    39   20   21 1   
    40   20   55 1   
    41   21   22 1   
    42   21   23 1   
    43   21   56 1   
    44   22   57 1   
    45   22   58 1   
    46   22   59 1   
    47   23   24 2   
    48   23   60 1   
    49   24   25 1   
    50   24   61 1   
    51   25   26 2   
    52   25   27 1   
    53   27   28 1   
    54   27   62 1   
    55   28   29 1   
    56   28   63 1   
    57   28   64 1   
    58   29   30 1   
    59   29   65 1   
    60   29   66 1   
    61   30   31 1   
    62   30   32 1   
    63   30   67 1   
    64   31   68 1   
    65   32   69 1   
    66   32   70 1   
    67   33   34 1   
    68   33   71 1   
    69   33   72 1   
    70   34   35 1   
    71   34   73 1   
    72   34   74 1   
    73   35   36 1   
    74   35   75 1   
    75   35   76 1   
    76   36   37 1   
    77   36   77 1   
    78   36   78 1   
    79   37   79 1   
    80   37   80 1   
    81   37   81 1   
@<TRIPOS>SUBSTRUCTURE
     1 GDT         1 TEMP              0 ****  ****    0 ROOT
