@<TRIPOS>MOLECULE
GDT
   85    84     1     0     0
SMALL
bcc


@<TRIPOS>ATOM
      1 C1        874.9050  -52.3690  532.2730 c2        1 GDT     -0.343000
      2 C2        874.8360  -52.4760  530.8970 c2        1 GDT      0.180000
      3 C3        875.9980  -52.5930  530.1010 c2        1 GDT     -0.283000
      4 C4        875.9950  -52.7170  528.7420 c2        1 GDT      0.096000
      5 C5        874.8070  -52.7680  527.8730 c3        1 GDT     -0.194000
      6 C6        875.1340  -52.4980  526.4150 c3        1 GDT     -0.164000
      7 O37       872.9300  -52.1640  533.8370 o         1 GDT      0.045000
      8 C12       873.8200  -52.2590  533.0920 c1        1 GDT      0.432000
      9 N13      -526.6020   32.8780 -320.2140 n8        1 GDT     -0.384000
     10 C14      -527.5830   32.5370 -321.1160 c3        1 GDT      0.094000
     11 C34      -527.5650   31.0800 -321.6810 c3        1 GDT      0.028000
     12 C36      -526.1680   30.5170 -321.8080 c3        1 GDT     -0.263000
     13 O35      -528.4220   30.2750 -320.8650 oh        1 GDT     -0.445000
     14 C15      -529.0420   32.6350 -320.4370 c2        1 GDT      0.191000
     15 O33      -529.3380   32.6850 -319.2600 o         1 GDT     -0.213000
     16 N16      -530.2470   32.4940 -321.4010 ny        1 GDT     -0.142000
     17 C17      -531.5850   32.5480 -320.7540 c3        1 GDT     -0.078000
     18 C31      -531.8020   31.5760 -319.5840 c2        1 GDT      0.238000
     19 O32      -532.6000   31.8260 -318.6950 o         1 GDT     -0.117000
     20 N30      -531.0550   30.2810 -319.5300 ny        1 GDT     -0.113000
     21 C28      -531.6140   29.2500 -318.5590 c3        1 GDT     -0.049000
     22 C29      -531.1040   29.4920 -317.1420 c3        1 GDT     -0.262000
     23 C27      -533.1150   29.1640 -318.5590 c2        1 GDT     -0.021000
     24 C26      -533.9270   28.8560 -319.5830 c2        1 GDT     -0.243000
     25 C24      -533.4670   28.5540 -320.9390 c2        1 GDT      0.302000
     26 O25      -532.3370   28.2280 -321.2950 o         1 GDT     -0.221000
     27 N23      -534.4930   28.6630 -322.0390 ny        1 GDT     -0.103000
     28 C22      -534.9060   30.0840 -322.2930 c3        1 GDT     -0.122000
     29 C21      -534.0410   30.8530 -323.2790 c3        1 GDT     -0.230000
     30 C19      -532.6790   31.3590 -322.8120 c3        1 GDT      0.014000
     31 O20      -531.8670   30.2990 -322.3140 oh        1 GDT     -0.429000
     32 C18      -532.7700   32.4320 -321.7280 c3        1 GDT     -0.203000
     33 C7        875.5980  -51.0740  526.1920 c3        1 GDT     -0.162000
     34 C8        875.9410  -50.8370  524.7360 c3        1 GDT     -0.159000
     35 C9        876.4360  -49.4230  524.5150 c3        1 GDT     -0.158000
     36 C10       876.7630  -49.1800  523.0570 c3        1 GDT     -0.159000
     37 C11       877.2640  -47.7760  522.8320 c3        1 GDT     -0.213000
     38 H1        875.8890  -52.3680  532.7940 ha        1 GDT      0.233000
     39 H2        873.8480  -52.4750  530.3910 ha        1 GDT      0.154000
     40 H3        876.9740  -52.5810  530.6250 ha        1 GDT      0.172000
     41 H4        876.9750  -52.8010  528.2250 ha        1 GDT      0.172000
     42 H5        874.0240  -52.0390  528.2190 hc        1 GDT      0.126000
     43 H5A       874.3580  -53.8010  527.9580 hc        1 GDT      0.126000
     44 H6        875.9220  -53.2150  526.0630 hc        1 GDT      0.106500
     45 H6A       874.2130  -52.6910  525.8020 hc        1 GDT      0.106500
     46 HN13     -526.3160   33.8260 -320.1180 hn        1 GDT      0.263000
     47 H14      -527.6100   33.2740 -321.9750 h1        1 GDT      0.156000
     48 H34      -528.0550   31.1130 -322.6990 h1        1 GDT      0.107000
     49 H36      -525.7170   30.3040 -320.8070 hc        1 GDT      0.132333
     50 H36A     -525.5040   31.2360 -322.3510 hc        1 GDT      0.132333
     51 H36B     -526.1980   29.5620 -322.3920 hc        1 GDT      0.132333
     52 HO35     -527.9130   29.5120 -320.5500 ho        1 GDT      0.267000
     53 HN16     -530.1360   31.6090 -321.9180 hn        1 GDT      0.267500
     54 H17      -531.6600   33.5810 -320.2560 hx        1 GDT      0.223000
     55 HN30     -530.0810   30.4850 -319.2330 hn        1 GDT      0.284000
     56 H28      -531.2050   28.2510 -318.9300 hx        1 GDT      0.184000
     57 H29      -531.4890   30.4550 -316.7230 hc        1 GDT      0.144667
     58 H29A     -529.9860   29.4880 -317.1010 hc        1 GDT      0.144667
     59 H29B     -531.4670   28.6540 -316.4880 hc        1 GDT      0.144667
     60 H27      -533.5740   29.3420 -317.5570 ha        1 GDT      0.225000
     61 H26      -535.0180   28.7720 -319.3930 ha        1 GDT      0.211000
     62 HN23     -534.1090   28.2500 -322.9040 hn        1 GDT      0.281500
     63 H22      -534.9600   30.6080 -321.2960 hx        1 GDT      0.166500
     64 H22A     -535.9580   30.0410 -322.7220 hx        1 GDT      0.166500
     65 H21      -533.8870   30.2440 -324.2150 hc        1 GDT      0.164000
     66 H21A     -534.6500   31.7540 -323.5890 hc        1 GDT      0.164000
     67 H19      -532.1680   31.8050 -323.7210 h1        1 GDT      0.132000
     68 HO20     -531.6760   29.6900 -323.0430 ho        1 GDT      0.268000
     69 H18      -533.6950   32.2910 -321.1030 hc        1 GDT      0.159000
     70 H18A     -532.8950   33.4260 -322.2480 hc        1 GDT      0.159000
     71 H7        874.7940  -50.3580  526.5090 hc        1 GDT      0.077000
     72 H7A       876.4990  -50.8660  526.8280 hc        1 GDT      0.077000
     73 H8        875.0340  -51.0220  524.1020 hc        1 GDT      0.088000
     74 H8A       876.7290  -51.5660  524.4100 hc        1 GDT      0.088000
     75 H9        877.3510  -49.2410  525.1400 hc        1 GDT      0.079500
     76 H9A       875.6540  -48.6920  524.8520 hc        1 GDT      0.079500
     77 H10       877.5400  -49.9160  522.7200 hc        1 GDT      0.082500
     78 H10A      875.8470  -49.3570  522.4340 hc        1 GDT      0.082500
     79 H11       878.1980  -47.5910  523.4160 hc        1 GDT      0.077333
     80 H11A      876.4980  -47.0280  523.1480 hc        1 GDT      0.077333
     81 H11B      877.4880  -47.6150  521.7500 hc        1 GDT      0.077333
     82 H132     -526.2840   32.2250 -319.5380 hn        1 GDT      0.263000
     83 H162     -530.1950   33.2660 -322.0790 hn        1 GDT      0.267500
     84 H302     -531.0150   29.8570 -320.4710 hn        1 GDT      0.284000
     85 H232     -535.3280   28.1180 -321.7680 hn        1 GDT      0.281500
@<TRIPOS>BOND
     1    1    2 1   
     2    1    8 1   
     3    1   38 1   
     4    2    3 1   
     5    2   39 1   
     6    3    4 1   
     7    3   40 1   
     8    4    5 1   
     9    4   41 1   
    10    5    6 1   
    11    5   42 1   
    12    5   43 1   
    13    6   33 1   
    14    6   44 1   
    15    6   45 1   
    16    7    8 1   
    17    9   10 1   
    18    9   46 1   
    19    9   82 1   
    20   10   11 1   
    21   10   14 1   
    22   10   47 1   
    23   11   12 1   
    24   11   13 1   
    25   11   48 1   
    26   12   49 1   
    27   12   50 1   
    28   12   51 1   
    29   13   52 1   
    30   14   15 1   
    31   14   16 1   
    32   16   17 1   
    33   16   53 1   
    34   16   83 1   
    35   17   18 1   
    36   17   32 1   
    37   17   54 1   
    38   18   19 1   
    39   18   20 1   
    40   20   21 1   
    41   20   55 1   
    42   20   84 1   
    43   21   22 1   
    44   21   23 1   
    45   21   56 1   
    46   22   57 1   
    47   22   58 1   
    48   22   59 1   
    49   23   24 1   
    50   23   60 1   
    51   24   25 1   
    52   24   61 1   
    53   25   26 1   
    54   25   27 1   
    55   27   28 1   
    56   27   62 1   
    57   27   85 1   
    58   28   29 1   
    59   28   63 1   
    60   28   64 1   
    61   29   30 1   
    62   29   65 1   
    63   29   66 1   
    64   30   31 1   
    65   30   32 1   
    66   30   67 1   
    67   31   68 1   
    68   32   69 1   
    69   32   70 1   
    70   33   34 1   
    71   33   71 1   
    72   33   72 1   
    73   34   35 1   
    74   34   73 1   
    75   34   74 1   
    76   35   36 1   
    77   35   75 1   
    78   35   76 1   
    79   36   37 1   
    80   36   77 1   
    81   36   78 1   
    82   37   79 1   
    83   37   80 1   
    84   37   81 1   
@<TRIPOS>SUBSTRUCTURE
     1 GDT         1 TEMP              0 ****  ****    0 ROOT
