@<TRIPOS>MOLECULE
GDT
   85    83     1     0     0
SMALL
bcc


@<TRIPOS>ATOM
      1 C1        549.8040   -6.8080  346.3960 c2        1 GDT     -0.261000
      2 C2        548.5380   -7.2090  346.1950 c1        1 GDT      0.148000
      3 C3        547.3670   -7.5450  345.9580 c1        1 GDT     -0.199000
      4 C4        546.1100   -7.9190  345.7250 c2        1 GDT      0.204000
      5 C5        545.2930   -7.4760  344.5890 c3        1 GDT     -0.195000
      6 C6        545.9750   -6.5190  343.6350 c3        1 GDT     -0.165000
      7 O37       551.2740   -7.5260  348.3260 o         1 GDT      0.042000
      8 C12       550.5720   -7.2140  347.4490 c1        1 GDT      0.437000
      9 N13      -306.1730    3.7570 -193.7390 n3        1 GDT     -0.386000
     10 C14      -307.0760    3.9990 -194.7480 c3        1 GDT      0.094000
     11 C34      -307.2370    2.9000 -195.8480 c3        1 GDT      0.026000
     12 C36      -305.9500    2.1570 -196.1260 c3        1 GDT     -0.263000
     13 O35      -308.3100    2.0340 -195.4600 oh        1 GDT     -0.453000
     14 C15      -308.5710    4.1350 -194.1590 c2        1 GDT      0.192000
     15 O33      -308.9970    3.8160 -193.0650 o         1 GDT     -0.223000
     16 N16      -309.6420    4.6110 -195.1570 n4        1 GDT     -0.135000
     17 C17      -311.0380    4.6650 -194.6520 c3        1 GDT     -0.088000
     18 C31      -311.6960    3.3460 -194.2260 c2        1 GDT      0.224000
     19 O32      -312.8200    3.3380 -193.7450 o         1 GDT     -0.132000
     20 N30      -310.9850    2.0340 -194.3450 n4        1 GDT     -0.120000
     21 C28      -311.7770    0.8080 -193.8970 c3        1 GDT     -0.050000
     22 C29      -311.6160    0.5840 -192.3950 c3        1 GDT     -0.264000
     23 C27      -313.2370    0.8110 -194.2560 c2        1 GDT     -0.012000
     24 C26      -313.8100    0.9540 -195.4630 c2        1 GDT     -0.245000
     25 C24      -313.0620    1.1810 -196.6980 c2        1 GDT      0.297000
     26 O25      -311.8910    0.8780 -196.9230 o         1 GDT     -0.232000
     27 N23      -313.7680    1.9320 -197.8000 n4        1 GDT     -0.100000
     28 C22      -313.5870    3.4120 -197.6080 c3        1 GDT     -0.130000
     29 C21      -312.1230    3.8330 -197.6140 c3        1 GDT     -0.221000
     30 C19      -311.9040    5.2550 -197.0920 c3        1 GDT      0.031000
     31 O20      -310.5860    5.6330 -197.4670 oh        1 GDT     -0.381000
     32 C18      -312.0070    5.4330 -195.5770 c3        1 GDT     -0.209000
     33 C7        545.0410   -6.1310  342.5070 c3        1 GDT     -0.160000
     34 C8        545.7170   -5.1730  341.5490 c3        1 GDT     -0.157000
     35 C9        544.7860   -4.7840  340.4210 c3        1 GDT     -0.159000
     36 C10       545.4580   -3.8260  339.4610 c3        1 GDT     -0.157000
     37 C11       544.5340   -3.4360  338.3360 c3        1 GDT     -0.213000
     38 H1        550.2900   -6.1020  345.6830 ha        1 GDT      0.243000
     39 H2        -21.9430    7.4150  -33.0450 ha        1 GDT      0.000000
     40 H3        -22.3930    6.9200  -33.1520 ha        1 GDT      0.000000
     41 H4        545.6270   -8.6250  346.4390 ha        1 GDT      0.182000
     42 H5        544.3530   -7.0010  345.0030 hc        1 GDT      0.160000
     43 H5A       544.9510   -8.3970  344.0280 hc        1 GDT      0.160000
     44 H6        546.2980   -5.5980  344.1880 hc        1 GDT      0.092000
     45 H6A       546.8970   -6.9980  343.2110 hc        1 GDT      0.092000
     46 HN13     -305.7410    4.5150 -193.2620 hn        1 GDT      0.262500
     47 H14      -306.8670    4.9960 -195.2430 h1        1 GDT      0.160000
     48 H34      -307.5870    3.4180 -196.7900 h1        1 GDT      0.113000
     49 H36      -306.0700    1.5260 -197.0430 hc        1 GDT      0.132333
     50 H36A     -305.1150    2.8800 -196.3070 hc        1 GDT      0.132333
     51 H36B     -305.6650    1.4920 -195.2740 hc        1 GDT      0.132333
     52 HO35     -307.9740    1.1250 -195.4480 ho        1 GDT      0.267000
     53 HN16     -309.3990    5.5740 -195.4550 hn        1 GDT      0.276000
     54 H17      -310.9970    5.2540 -193.6650 hx        1 GDT      0.227000
     55 HN30     -310.6670    1.8880 -195.3150 hn        1 GDT      0.281000
     56 H28      -311.2910   -0.0650 -194.4500 hx        1 GDT      0.188000
     57 H29      -312.1060    1.3950 -191.8010 hc        1 GDT      0.146333
     58 H29A     -310.5400    0.5040 -192.1010 hc        1 GDT      0.146333
     59 H29B     -312.1070   -0.3920 -192.1290 hc        1 GDT      0.146333
     60 H27      -313.9060    0.6170 -193.3830 ha        1 GDT      0.228000
     61 H26      -314.9130    0.8530 -195.5510 ha        1 GDT      0.219000
     62 HN23     -313.3710    1.6520 -198.7120 hn        1 GDT      0.289500
     63 H22      -314.0870    3.6930 -196.6360 hx        1 GDT      0.169500
     64 H22A     -314.1390    3.9310 -198.4510 hx        1 GDT      0.169500
     65 H21      -311.4930    3.1330 -197.0050 hc        1 GDT      0.110000
     66 H21A     -311.7250    3.7910 -198.6690 hc        1 GDT      0.110000
     67 H19      -312.6690    5.9460 -197.5580 h1        1 GDT      0.155000
     68 HO20     -310.6300    6.1870 -198.2620 ho        1 GDT      0.280000
     69 H18      -311.8390    6.5340 -195.3740 hc        1 GDT      0.166000
     70 H18A     -313.0580    5.2060 -195.2470 hc        1 GDT      0.166000
     71 H7        544.7160   -7.0510  341.9520 hc        1 GDT      0.091000
     72 H7A       544.1180   -5.6520  342.9280 hc        1 GDT      0.091000
     73 H8        546.6400   -5.6510  341.1260 hc        1 GDT      0.082000
     74 H8A       546.0420   -4.2530  342.1020 hc        1 GDT      0.082000
     75 H9        543.8620   -4.3060  340.8420 hc        1 GDT      0.085000
     76 H9A       544.4600   -5.7040  339.8670 hc        1 GDT      0.085000
     77 H10       545.7850   -2.9070  340.0160 hc        1 GDT      0.079000
     78 H10A      546.3830   -4.3040  339.0410 hc        1 GDT      0.079000
     79 H11       545.0490   -2.7300  337.6400 hc        1 GDT      0.078000
     80 H11A      543.6190   -2.9350  338.7320 hc        1 GDT      0.078000
     81 H11B      544.2180   -4.3350  337.7550 hc        1 GDT      0.078000
     82 H132     -306.0580    2.8450 -193.3660 hn        1 GDT      0.262500
     83 H162     -309.5830    4.0340 -196.0070 hn        1 GDT      0.276000
     84 H302     -310.1360    2.0710 -193.7450 hn        1 GDT      0.281000
     85 H232     -314.7750    1.7090 -197.8000 hn        1 GDT      0.289500
@<TRIPOS>BOND
     1    1    2 1   
     2    1    8 1   
     3    1   38 1   
     4    2    3 1   
     5    3    4 1   
     6    4    5 1   
     7    4   41 1   
     8    5    6 1   
     9    5   42 1   
    10    5   43 1   
    11    6   33 1   
    12    6   44 1   
    13    6   45 1   
    14    7    8 1   
    15    9   10 1   
    16    9   46 1   
    17    9   82 1   
    18   10   11 1   
    19   10   14 1   
    20   10   47 1   
    21   11   12 1   
    22   11   13 1   
    23   11   48 1   
    24   12   49 1   
    25   12   50 1   
    26   12   51 1   
    27   13   52 1   
    28   14   15 1   
    29   14   16 1   
    30   16   17 1   
    31   16   53 1   
    32   16   83 1   
    33   17   18 1   
    34   17   32 1   
    35   17   54 1   
    36   18   19 1   
    37   18   20 1   
    38   20   21 1   
    39   20   55 1   
    40   20   84 1   
    41   21   22 1   
    42   21   23 1   
    43   21   56 1   
    44   22   57 1   
    45   22   58 1   
    46   22   59 1   
    47   23   24 1   
    48   23   60 1   
    49   24   25 1   
    50   24   61 1   
    51   25   26 1   
    52   25   27 1   
    53   27   28 1   
    54   27   62 1   
    55   27   85 1   
    56   28   29 1   
    57   28   63 1   
    58   28   64 1   
    59   29   30 1   
    60   29   65 1   
    61   29   66 1   
    62   30   31 1   
    63   30   32 1   
    64   30   67 1   
    65   31   68 1   
    66   32   69 1   
    67   32   70 1   
    68   33   34 1   
    69   33   71 1   
    70   33   72 1   
    71   34   35 1   
    72   34   73 1   
    73   34   74 1   
    74   35   36 1   
    75   35   75 1   
    76   35   76 1   
    77   36   37 1   
    78   36   77 1   
    79   36   78 1   
    80   37   79 1   
    81   37   80 1   
    82   37   81 1   
    83   39   40 1   
@<TRIPOS>SUBSTRUCTURE
     1 GDT         1 TEMP              0 ****  ****    0 ROOT
