@<TRIPOS>MOLECULE
GDV
   48    50     1     0     0
SMALL
bcc


@<TRIPOS>ATOM
      1 O1          2.3120    1.4320   -0.0370 o         1 GDV     -0.436100
      2 C10         2.0670    0.2570    0.1730 c         1 GDV      0.591100
      3 C12         1.3910   -0.3890    1.3260 c3        1 GDV     -0.194100
      4 N4          2.5590   -0.7030   -0.9240 ny        1 GDV     -0.706800
      5 C2          1.9550   -0.4410   -2.2740 c3        1 GDV      0.203800
      6 C3          1.8610   -1.7740   -3.0800 c3        1 GDV      0.127100
      7 O3          1.0360   -2.6140   -2.3040 oh        1 GDV     -0.618800
      8 C4          1.2500   -1.4880   -4.4630 c3        1 GDV      0.108100
      9 O4          1.1690   -2.7540   -5.0820 oh        1 GDV     -0.574800
     10 C5          2.1890   -0.5850   -5.3100 c3        1 GDV     -0.013000
     11 C6          1.3830   -0.0100   -6.4970 c3        1 GDV      0.119400
     12 O5          0.3040    0.7230   -5.9520 oh        1 GDV     -0.625800
     13 C1          2.7030    0.5560   -3.1170 cc        1 GDV     -0.092900
     14 N1          2.8170    0.4540   -4.4960 na        1 GDV      0.037900
     15 C7          3.5500    1.5430   -4.9640 cc        1 GDV     -0.051300
     16 C8          3.8890    2.3320   -3.8430 cd        1 GDV     -0.108900
     17 N2          3.3480    1.7110   -2.7170 na        1 GDV     -0.099100
     18 C9          4.7940    3.5440   -3.8230 c         1 GDV      0.674700
     19 O2          5.8970    3.4180   -4.3700 o         1 GDV     -0.497100
     20 N3          4.3160    4.6180   -3.1130 ns        1 GDV     -0.421100
     21 C11         4.9940    5.8690   -3.0410 ca        1 GDV     -0.013400
     22 C17         6.3990    5.9550   -3.0660 ca        1 GDV     -0.135500
     23 C16         7.0150    7.1990   -2.9350 ca        1 GDV     -0.100000
     24 C15         6.2550    8.3560   -2.7800 ca        1 GDV     -0.104000
     25 C14         4.8620    8.2740   -2.7590 ca        1 GDV     -0.100000
     26 C13         4.2240    7.0440   -2.8920 ca        1 GDV     -0.135500
     27 H121        1.0130    0.4190    2.0140 hc        1 GDV      0.138033
     28 H122        0.5210   -1.0170    0.9970 hc        1 GDV      0.138033
     29 H123        2.1110   -1.0320    1.9000 hc        1 GDV      0.138033
     30 H4          3.5830   -0.6660   -0.9790 hn        1 GDV      0.482300
     31 H2          0.9000   -0.0500   -2.0990 hx        1 GDV      0.161700
     32 H3          2.8780   -2.2460   -3.2040 h1        1 GDV      0.094700
     33 HA          0.7940   -3.3840   -2.8500 ho        1 GDV      0.489000
     34 HB          0.2360   -1.0050   -4.3620 h1        1 GDV      0.113700
     35 HC          0.4240   -2.7440   -5.7010 ho        1 GDV      0.457000
     36 H5          3.0270   -1.2230   -5.7360 h1        1 GDV      0.138700
     37 H6C1        1.0120   -0.8830   -7.1030 h1        1 GDV      0.076200
     38 H6C2        2.0260    0.6460   -7.1430 h1        1 GDV      0.076200
     39 HD         -0.2260    1.0560   -6.6920 ho        1 GDV      0.458000
     40 H7          3.8010    1.6970   -6.0240 h4        1 GDV      0.260000
     41 HE          3.3990    2.0690   -1.7820 hn        1 GDV      0.372700
     42 HF          3.3310    4.6730   -2.9620 hn        1 GDV      0.318500
     43 H17         7.0210    5.0560   -3.2010 ha        1 GDV      0.145000
     44 H16         8.1150    7.2590   -2.9580 ha        1 GDV      0.158500
     45 H15         6.7510    9.3350   -2.6780 ha        1 GDV      0.162000
     46 H14         4.2580    9.1880   -2.6400 ha        1 GDV      0.158500
     47 H13         3.1250    7.0060   -2.8770 ha        1 GDV      0.145000
     48 H42         2.2850   -1.6670   -0.6560 hn        1 GDV      0.482300
@<TRIPOS>BOND
     1    1    2 2   
     2    2    3 1   
     3    2    4 1   
     4    3   27 1   
     5    3   28 1   
     6    3   29 1   
     7    4    5 1   
     8    4   30 1   
     9    4   48 1   
    10    5    6 1   
    11    5   13 1   
    12    5   31 1   
    13    6    7 1   
    14    6    8 1   
    15    6   32 1   
    16    7   33 1   
    17    8    9 1   
    18    8   10 1   
    19    8   34 1   
    20    9   35 1   
    21   10   11 1   
    22   10   14 1   
    23   10   36 1   
    24   11   12 1   
    25   11   37 1   
    26   11   38 1   
    27   12   39 1   
    28   13   14 2   
    29   13   17 1   
    30   14   15 1   
    31   15   16 2   
    32   15   40 1   
    33   16   17 1   
    34   16   18 1   
    35   17   41 1   
    36   18   19 2   
    37   18   20 1   
    38   20   21 1   
    39   20   42 1   
    40   21   22 ar  
    41   21   26 ar  
    42   22   23 ar  
    43   22   43 1   
    44   23   24 ar  
    45   23   44 1   
    46   24   25 ar  
    47   24   45 1   
    48   25   26 ar  
    49   25   46 1   
    50   26   47 1   
@<TRIPOS>SUBSTRUCTURE
     1 GDV         1 TEMP              0 ****  ****    0 ROOT
