@<TRIPOS>MOLECULE
GDV
   48    50     1     0     0
SMALL
bcc


@<TRIPOS>ATOM
      1 O1          2.3180    1.4010   -0.0140 o         1 GDV     -0.435100
      2 C10         2.0620    0.2270    0.1880 c         1 GDV      0.591100
      3 C12         1.3600   -0.4180    1.3260 c3        1 GDV     -0.194100
      4 N4          2.5690   -0.7330   -0.9020 n4        1 GDV     -0.706800
      5 C2          1.9890   -0.4680   -2.2620 c3        1 GDV      0.198800
      6 C3          1.9110   -1.7980   -3.0790 c3        1 GDV      0.094100
      7 O3          1.1060   -2.6680   -2.3160 oh        1 GDV     -0.613800
      8 C4          1.3140   -1.5050   -4.4650 c3        1 GDV      0.101100
      9 O4          1.0620   -2.7120   -5.1330 oh        1 GDV     -0.541800
     10 C5          2.2380   -0.5790   -5.2980 c3        1 GDV     -0.013000
     11 C6          1.3950    0.0220   -6.4510 c3        1 GDV      0.124400
     12 O5          0.3850    0.8150   -5.8600 oh        1 GDV     -0.624800
     13 C1          2.7490    0.5340   -3.0890 cc        1 GDV     -0.091900
     14 N1          2.8760    0.4400   -4.4680 na        1 GDV      0.033900
     15 C7          3.6110    1.5330   -4.9240 cc        1 GDV     -0.048300
     16 C8          3.9430    2.3130   -3.7950 cd        1 GDV     -0.107900
     17 N2          3.3920    1.6840   -2.6770 na        1 GDV     -0.097100
     18 C9          4.8550    3.5200   -3.7480 c         1 GDV      0.674700
     19 O2          6.0030    3.3600   -4.1820 o         1 GDV     -0.499100
     20 N3          4.3230    4.6280   -3.1390 n         1 GDV     -0.419100
     21 C11         4.9930    5.8830   -3.0720 ca        1 GDV     -0.012400
     22 C17         6.3950    5.9740   -2.9980 ca        1 GDV     -0.135500
     23 C16         6.9980    7.2250   -2.8790 ca        1 GDV     -0.100000
     24 C15         6.2280    8.3850   -2.8310 ca        1 GDV     -0.104000
     25 C14         4.8370    8.2970   -2.9070 ca        1 GDV     -0.100000
     26 C13         4.2130    7.0600   -3.0310 ca        1 GDV     -0.135500
     27 H121        0.9660    0.3900    2.0050 hc        1 GDV      0.138700
     28 H122        2.0690   -1.0590    1.9170 hc        1 GDV      0.138700
     29 H123        0.5000   -1.0490    0.9800 hc        1 GDV      0.138700
     30 H4          2.2900   -1.6960   -0.6390 hn        1 GDV      0.482300
     31 H2          0.9310   -0.0790   -2.1050 hx        1 GDV      0.160700
     32 H3          2.9370   -2.2570   -3.1780 h1        1 GDV      0.083700
     33 HA          0.5680   -3.2140   -2.9180 ho        1 GDV      0.488000
     34 HB          0.2900   -1.0280   -4.3630 h1        1 GDV      0.148700
     35 HC          1.9010   -3.1490   -5.3440 ho        1 GDV      0.432000
     36 H5          3.0750   -1.1870   -5.7640 h1        1 GDV      0.119700
     37 H6C1        0.9570   -0.8420   -7.0240 h1        1 GDV      0.083700
     38 H6C2        2.0360    0.6490   -7.1260 h1        1 GDV      0.083700
     39 HD         -0.2700    1.0120   -6.5460 ho        1 GDV      0.459000
     40 H7          3.8610    1.6960   -5.9830 h4        1 GDV      0.260000
     41 HE          3.4350    2.0380   -1.7400 hn        1 GDV      0.373700
     42 HF          3.3290    4.6840   -3.0620 hn        1 GDV      0.320500
     43 H17         7.0270    5.0730   -3.0470 ha        1 GDV      0.146000
     44 H16         8.0970    7.2900   -2.8250 ha        1 GDV      0.158500
     45 H15         6.7130    9.3700   -2.7370 ha        1 GDV      0.162000
     46 H14         4.2240    9.2120   -2.8730 ha        1 GDV      0.158500
     47 H13         3.1140    7.0170   -3.0930 ha        1 GDV      0.146000
     48 H42         3.5940   -0.6990   -0.9400 hn        1 GDV      0.482300
@<TRIPOS>BOND
     1    1    2 2   
     2    2    3 1   
     3    2    4 1   
     4    3   27 1   
     5    3   28 1   
     6    3   29 1   
     7    4    5 1   
     8    4   30 1   
     9    4   48 1   
    10    5    6 1   
    11    5   13 1   
    12    5   31 1   
    13    6    7 1   
    14    6    8 1   
    15    6   32 1   
    16    7   33 1   
    17    8    9 1   
    18    8   10 1   
    19    8   34 1   
    20    9   35 1   
    21   10   11 1   
    22   10   14 1   
    23   10   36 1   
    24   11   12 1   
    25   11   37 1   
    26   11   38 1   
    27   12   39 1   
    28   13   14 2   
    29   13   17 1   
    30   14   15 1   
    31   15   16 2   
    32   15   40 1   
    33   16   17 1   
    34   16   18 1   
    35   17   41 1   
    36   18   19 2   
    37   18   20 1   
    38   20   21 1   
    39   20   42 1   
    40   21   22 ar  
    41   21   26 ar  
    42   22   23 ar  
    43   22   43 1   
    44   23   24 ar  
    45   23   44 1   
    46   24   25 ar  
    47   24   45 1   
    48   25   26 ar  
    49   25   46 1   
    50   26   47 1   
@<TRIPOS>SUBSTRUCTURE
     1 GDV         1 TEMP              0 ****  ****    0 ROOT
