@<TRIPOS>MOLECULE
GDV
   49    51     1     0     0
SMALL
bcc


@<TRIPOS>ATOM
      1 O1          0.4670    1.3100   -0.3220 o         1 GDV     -0.447100
      2 C10         0.1480    0.1480   -0.5010 c         1 GDV      0.606100
      3 C12        -1.1430   -0.5500   -0.2950 c3        1 GDV     -0.197100
      4 N4          1.3180   -0.7430   -0.9840 n4        1 GDV     -0.711800
      5 C2          1.8660   -0.3880   -2.3260 c3        1 GDV      0.174800
      6 C3          2.7300   -1.5630   -2.9010 c3        1 GDV      0.127100
      7 O3          1.8490   -2.6670   -2.8890 oh        1 GDV     -0.612800
      8 C4          3.2360   -1.2840   -4.3380 c3        1 GDV      0.113100
      9 O4          4.5340   -1.8400   -4.3740 oh        1 GDV     -0.588800
     10 C5          3.3860    0.2160   -4.7360 c3        1 GDV     -0.007000
     11 C6          2.2620    0.6420   -5.7100 c3        1 GDV      0.118400
     12 O5          1.0280    0.5240   -5.0290 oh        1 GDV     -0.658800
     13 C1          2.7290    0.8500   -2.4080 cc        1 GDV      0.036100
     14 N1          3.4710    1.0860   -3.5620 na        1 GDV      0.011900
     15 C7          4.1900    2.2680   -3.4010 cc        1 GDV      0.009700
     16 C8          3.8870    2.7670   -2.1170 cd        1 GDV     -0.180900
     17 N2          2.9730    1.8630   -1.5200 na        1 GDV     -0.093100
     18 C9          4.2980    3.9830   -1.3990 c         1 GDV      0.572700
     19 O2          3.7230    4.4070   -0.4040 o         1 GDV     -0.364100
     20 N3          5.4950    4.7370   -1.8850 n4        1 GDV     -0.511200
     21 C11         5.2310    5.5240   -3.0980 ca        1 GDV     -0.108400
     22 C17         5.9590    5.2460   -4.2720 ca        1 GDV     -0.110000
     23 C16         5.7860    6.0710   -5.3800 ca        1 GDV     -0.090000
     24 C15         4.9030    7.1550   -5.3290 ca        1 GDV     -0.040000
     25 C14         4.1810    7.4170   -4.1630 ca        1 GDV     -0.090000
     26 C13         4.3380    6.6100   -3.0370 ca        1 GDV     -0.110000
     27 H121       -1.9470    0.2270   -0.1420 hc        1 GDV      0.147700
     28 H122       -1.4270   -1.1960   -1.1660 hc        1 GDV      0.147700
     29 H123       -1.0970   -1.1860    0.6330 hc        1 GDV      0.147700
     30 H4          2.0640   -0.7410   -0.2790 hn        1 GDV      0.486300
     31 H2          0.9730   -0.2320   -3.0310 hx        1 GDV      0.205700
     32 H3          3.6190   -1.7600   -2.2320 h1        1 GDV      0.104700
     33 HA          2.3430   -3.4600   -3.1600 ho        1 GDV      0.487000
     34 HB          2.5300   -1.7700   -5.0720 h1        1 GDV      0.125700
     35 HC          4.6070   -2.4300   -5.1410 ho        1 GDV      0.467000
     36 H5          4.3750    0.3240   -5.2880 h1        1 GDV      0.146700
     37 H6C1        2.4110    1.7040   -6.0490 h1        1 GDV      0.089700
     38 H6C2        2.3040   -0.0420   -6.6030 h1        1 GDV      0.089700
     39 HD          0.3200    0.6050   -5.6880 ho        1 GDV      0.474000
     40 H7          4.8460    2.6790   -4.1860 h4        1 GDV      0.257000
     41 HE          2.5060    2.0290   -0.6420 hn        1 GDV      0.393700
     42 HF          6.2790    4.0910   -2.0550 hn        1 GDV      0.491800
     43 H17         6.6960    4.4280   -4.3190 ha        1 GDV      0.161000
     44 H16         6.3720    5.8800   -6.2980 ha        1 GDV      0.194500
     45 H15         4.7910    7.8160   -6.2100 ha        1 GDV      0.199000
     46 H14         3.4930    8.2820   -4.1190 ha        1 GDV      0.194500
     47 H13         3.7800    6.8500   -2.1150 ha        1 GDV      0.161000
     48 H42         0.9700   -1.7210   -1.0690 hn        1 GDV      0.486300
     49 H32         5.7740    5.4030   -1.1340 hn        1 GDV      0.491800
@<TRIPOS>BOND
     1    1    2 2   
     2    2    3 1   
     3    2    4 1   
     4    3   27 1   
     5    3   28 1   
     6    3   29 1   
     7    4    5 1   
     8    4   30 1   
     9    4   48 1   
    10    5    6 1   
    11    5   13 1   
    12    5   31 1   
    13    6    7 1   
    14    6    8 1   
    15    6   32 1   
    16    7   33 1   
    17    8    9 1   
    18    8   10 1   
    19    8   34 1   
    20    9   35 1   
    21   10   11 1   
    22   10   14 1   
    23   10   36 1   
    24   11   12 1   
    25   11   37 1   
    26   11   38 1   
    27   12   39 1   
    28   13   14 2   
    29   13   17 1   
    30   14   15 1   
    31   15   16 2   
    32   15   40 1   
    33   16   17 1   
    34   16   18 1   
    35   17   41 1   
    36   18   19 2   
    37   18   20 1   
    38   20   21 1   
    39   20   42 1   
    40   20   49 1   
    41   21   22 ar  
    42   21   26 ar  
    43   22   23 ar  
    44   22   43 1   
    45   23   24 ar  
    46   23   44 1   
    47   24   25 ar  
    48   24   45 1   
    49   25   26 ar  
    50   25   46 1   
    51   26   47 1   
@<TRIPOS>SUBSTRUCTURE
     1 GDV         1 TEMP              0 ****  ****    0 ROOT
