@<TRIPOS>MOLECULE
GDV
   47    49     1     0     0
SMALL
bcc


@<TRIPOS>ATOM
      1 O1          2.9390   -5.1550    1.7710 o         1 GDV     -0.627100
      2 C10         4.0000   -4.5700    2.0710 c         1 GDV      0.676100
      3 C12         4.9390   -5.0660    3.1340 c3        1 GDV     -0.175100
      4 N4          4.3210   -3.3780    1.4240 n         1 GDV     -0.582900
      5 C2          3.6710   -2.9700    0.2120 c3        1 GDV      0.152000
      6 C3          4.5050   -1.9150   -0.5660 c3        1 GDV      0.086100
      7 O3          5.7240   -2.4650   -1.0050 oh        1 GDV     -0.566800
      8 C4          3.7000   -1.3600   -1.7530 c3        1 GDV      0.102100
      9 O4          4.4630   -0.4320   -2.4970 oh        1 GDV     -0.581800
     10 C5          2.4620   -0.5620   -1.2630 c3        1 GDV      0.000000
     11 C6          1.5840   -0.1880   -2.4810 c3        1 GDV      0.123400
     12 O5          1.0540   -1.3390   -3.0920 oh        1 GDV     -0.591800
     13 C1          2.2770   -2.3970    0.4360 cc        1 GDV     -0.000900
     14 N1          1.7490   -1.3060   -0.2360 na        1 GDV     -0.016100
     15 C7          0.4330   -1.1090    0.1980 cc        1 GDV     -0.044300
     16 C8          0.1620   -2.1000    1.1570 cd        1 GDV     -0.153900
     17 N2          1.3170   -2.8850    1.2880 na        1 GDV     -0.100100
     18 C9         -1.1040   -2.2350    1.9450 c         1 GDV      0.695700
     19 O2         -1.7160   -1.1950    2.2340 o         1 GDV     -0.533100
     20 N3         -1.4540   -3.5150    2.3160 n         1 GDV     -0.443100
     21 C11        -2.6360   -3.8490    3.0260 ca        1 GDV      0.020600
     22 C17        -3.2720   -2.9420    3.8940 ca        1 GDV     -0.145000
     23 C16        -4.4040   -3.3410    4.6030 ca        1 GDV     -0.103000
     24 C15        -4.9140   -4.6300    4.4630 ca        1 GDV     -0.125000
     25 C14        -4.2870   -5.5320    3.6030 ca        1 GDV     -0.103000
     26 C13        -3.1590   -5.1550    2.8840 ca        1 GDV     -0.145000
     27 H121        4.5080   -5.9930    3.5890 hc        1 GDV      0.090700
     28 H122        5.9340   -5.3110    2.6880 hc        1 GDV      0.090700
     29 H123        5.0770   -4.2980    3.9340 hc        1 GDV      0.090700
     30 H4          5.1810   -2.9250    1.6430 hn        1 GDV      0.344500
     31 H2          3.5060   -3.8820   -0.4490 h1        1 GDV      0.107700
     32 H3          4.8170   -1.0630    0.1090 h1        1 GDV      0.119700
     33 HA          5.5330   -3.2010   -1.6040 ho        1 GDV      0.422000
     34 HB          3.3740   -2.1990   -2.4320 h1        1 GDV      0.069700
     35 HC          5.3800   -0.7480   -2.5160 ho        1 GDV      0.447000
     36 H5          2.8200    0.4050   -0.7910 h1        1 GDV      0.116700
     37 H6C1        2.2300    0.4150   -3.1740 h1        1 GDV      0.087700
     38 H6C2        0.7020    0.4260   -2.1490 h1        1 GDV      0.087700
     39 HD          1.5680   -1.5190   -3.8900 ho        1 GDV      0.425000
     40 H7         -0.2160   -0.3100   -0.1800 h4        1 GDV      0.244000
     41 HE          1.4330   -3.6920    1.8760 hn        1 GDV      0.378700
     42 HF         -1.0230   -4.2780    1.8410 hn        1 GDV      0.320500
     43 H17        -2.8940   -1.9140    4.0160 ha        1 GDV      0.147500
     44 H16        -4.8960   -2.6240    5.2780 ha        1 GDV      0.148000
     45 H15        -5.8090   -4.9360    5.0270 ha        1 GDV      0.149000
     46 H14        -4.6860   -6.5520    3.4880 ha        1 GDV      0.148000
     47 H13        -2.6830   -5.8840    2.2100 ha        1 GDV      0.147500
@<TRIPOS>BOND
     1    1    2 2   
     2    2    3 1   
     3    2    4 1   
     4    3   27 1   
     5    3   28 1   
     6    3   29 1   
     7    4    5 1   
     8    4   30 1   
     9    5    6 1   
    10    5   13 1   
    11    5   31 1   
    12    6    7 1   
    13    6    8 1   
    14    6   32 1   
    15    7   33 1   
    16    8    9 1   
    17    8   10 1   
    18    8   34 1   
    19    9   35 1   
    20   10   11 1   
    21   10   14 1   
    22   10   36 1   
    23   11   12 1   
    24   11   37 1   
    25   11   38 1   
    26   12   39 1   
    27   13   14 2   
    28   13   17 1   
    29   14   15 1   
    30   15   16 2   
    31   15   40 1   
    32   16   17 1   
    33   16   18 1   
    34   17   41 1   
    35   18   19 2   
    36   18   20 1   
    37   20   21 1   
    38   20   42 1   
    39   21   22 ar  
    40   21   26 ar  
    41   22   23 ar  
    42   22   43 1   
    43   23   24 ar  
    44   23   44 1   
    45   24   25 ar  
    46   24   45 1   
    47   25   26 ar  
    48   25   46 1   
    49   26   47 1   
@<TRIPOS>SUBSTRUCTURE
     1 GDV         1 TEMP              0 ****  ****    0 ROOT
