@<TRIPOS>MOLECULE
GDV
   47    43     1     0     0
SMALL
bcc


@<TRIPOS>ATOM
      1 O1         -1.5480   -3.7000    3.4230 o         1 GDV     -0.375000
      2 C10        -0.3740   -3.3000    3.4690 c1        1 GDV      0.315000
      3 C12         0.3990   -3.3310    4.8090 c2        1 GDV     -0.242000
      4 N4          0.2640   -2.7980    2.2810 n3        1 GDV     -0.384000
      5 C2         -0.4580   -2.7580    1.0380 c3        1 GDV      0.096000
      6 C3          0.0600   -3.7740    0.2000 c3        1 GDV      0.018000
      7 O3         -0.6260   -5.1100    0.6020 oh        1 GDV     -0.311000
      8 C4         -0.1240   -3.5960   -1.2460 c3        1 GDV     -0.014000
      9 O4          0.6310   -4.6880   -1.9390 oh        1 GDV     -0.309000
     10 C5          0.3190   -2.3150   -1.8170 c3        1 GDV     -0.050000
     11 C6         -0.3990   -2.1170   -3.1040 c3        1 GDV     -0.030000
     12 O5          0.5120   -1.5870   -4.0840 oh        1 GDV     -0.325000
     13 C1         -0.3790   -1.2160    0.4550 c2        1 GDV      0.064000
     14 N1          0.0970   -1.0260   -0.9270 n3        1 GDV     -0.098000
     15 C7          0.2210    0.2910   -1.1420 c1        1 GDV     -0.053000
     16 C8         -0.1600    0.9770    0.0600 c1        1 GDV     -0.107000
     17 N2         -0.5220    0.0120    1.0200 n2        1 GDV     -0.077000
     18 C9         -0.1570    2.4810    0.2640 c1        1 GDV      0.374000
     19 O2         -0.5060    2.9540    1.3430 o         1 GDV     -0.318000
     20 N3          0.2150    3.3650   -0.8320 n3        1 GDV     -0.290000
     21 C11         0.1750    4.7740   -0.6550 c2        1 GDV      0.036000
     22 C17        -0.9170    5.5030   -1.1160 c2        1 GDV     -0.162000
     23 C16        -0.9650    6.8840   -0.9220 c1        1 GDV     -0.102000
     24 C15         0.0800    7.5290   -0.2690 c1        1 GDV     -0.114500
     25 C14         1.1720    6.7970    0.1920 c1        1 GDV     -0.114500
     26 C13         1.2190    5.4230   -0.0010 c1        1 GDV     -0.134000
     27 H121        1.1690   -3.9440    4.7310 ha        1 GDV      0.128333
     28 H122       -0.1880   -3.6370    5.5110 ha        1 GDV      0.128333
     29 H123        0.7220   -2.4220    5.0260 ha        1 GDV      0.128333
     30 H4          1.1210   -2.5570    2.3040 hn        1 GDV      0.253000
     31 H2         -1.3830   -2.9630    1.2180 h1        1 GDV      0.162000
     32 H3          0.9890   -3.8520    0.3700 h1        1 GDV      0.118000
     33 HA         -0.0170   -5.7510    0.6560 ho        1 GDV      0.245000
     34 HB         -1.0690   -3.7060   -1.4450 h1        1 GDV      0.122000
     35 HC          0.0740   -5.1880   -2.3920 ho        1 GDV      0.234000
     36 H5          1.2740   -2.3850   -2.0110 h1        1 GDV      0.152000
     37 H6C1       -0.7530   -2.9890   -3.4220 h1        1 GDV      0.120000
     38 H6C2       -1.1320   -1.5000   -2.9740 h1        1 GDV      0.120000
     39 HD          0.1890   -1.7520   -4.9150 ho        1 GDV      0.228000
     40 H7          0.5250    0.7190   -1.9880 DU        1 GDV      0.295500
     41 HE         -0.8020    0.1810    1.8680 DU        1 GDV      0.295500
     42 HF          0.5020    3.0050   -1.6500 hn        1 GDV      0.236000
     43 H17        -1.6540    5.0440   -1.5780 ha        1 GDV      0.131000
     44 H16        -1.7060    7.3800   -1.2350 ha        1 GDV      0.146000
     45 H15         0.0480    8.4890   -0.1340 ha        1 GDV      0.149000
     46 H14         1.8870    7.2390    0.6390 ha        1 GDV      0.149000
     47 H13         1.9790    4.9170    0.3190 ha        1 GDV      0.166000
@<TRIPOS>BOND
     1    1    2 1   
     2    2    4 1   
     3    3   27 1   
     4    3   28 1   
     5    3   29 1   
     6    4    5 1   
     7    4   30 1   
     8    5    6 1   
     9    5   13 1   
    10    5   31 1   
    11    6    7 1   
    12    6    8 1   
    13    6   32 1   
    14    7   33 1   
    15    8    9 1   
    16    8   10 1   
    17    8   34 1   
    18    9   35 1   
    19   10   11 1   
    20   10   14 1   
    21   10   36 1   
    22   11   12 1   
    23   11   37 1   
    24   11   38 1   
    25   12   39 1   
    26   13   14 1   
    27   13   17 1   
    28   14   15 1   
    29   15   16 1   
    30   16   17 1   
    31   18   19 1   
    32   18   20 1   
    33   20   21 1   
    34   20   42 1   
    35   21   22 1   
    36   21   26 1   
    37   22   23 1   
    38   22   43 1   
    39   23   44 1   
    40   24   25 1   
    41   24   45 1   
    42   25   46 1   
    43   26   47 1   
@<TRIPOS>SUBSTRUCTURE
     1 GDV         1 TEMP              0 ****  ****    0 ROOT
