@<TRIPOS>MOLECULE
GE1
   24    24     1     0     0
SMALL
bcc


@<TRIPOS>ATOM
      1 C5         -0.3470    0.3010    1.0580 c3        1 GE1      0.137100
      2 O           0.6790   -0.5620    0.5460 os        1 GE1     -0.468600
      3 C1          1.0050   -0.3510   -0.8160 c3        1 GE1      0.337900
      4 O1          1.5450    0.9430   -0.8940 oh        1 GE1     -0.600800
      5 C2         -0.2400   -0.4740   -1.7340 c3        1 GE1      0.164500
      6 N2          0.0910   -0.2710   -3.1290 n3        1 GE1     -0.903800
      7 C3         -1.3180    0.4970   -1.2330 c3        1 GE1     -0.077400
      8 C4         -1.6170    0.2070    0.2230 c3        1 GE1     -0.106400
      9 C6         -0.6140   -0.1710    2.4970 c3        1 GE1      0.163800
     10 N1          0.4930    0.0680    3.3910 n3        1 GE1     -0.912800
     11 H5          0.0430    1.3570    1.0410 h1        1 GE1      0.068700
     12 H1          1.7720   -1.1450   -1.0470 h2        1 GE1      0.061700
     13 HO1         2.2810    0.9800   -0.2690 ho        1 GE1      0.411000
     14 H2         -0.6250   -1.5280   -1.5460 h1        1 GE1      0.017700
     15 HN21        0.7690   -0.9410   -3.4290 hn        1 GE1      0.354300
     16 HN22       -0.7310   -0.3390   -3.6940 hn        1 GE1      0.354300
     17 H31        -2.2520    0.3870   -1.8420 hc        1 GE1      0.060200
     18 H32        -0.9480    1.5500   -1.3470 hc        1 GE1      0.060200
     19 H41        -2.0620   -0.8170    0.3260 hc        1 GE1      0.051200
     20 H42        -2.3640    0.9470    0.6100 hc        1 GE1      0.051200
     21 H61        -0.9100   -1.2610    2.4500 h1        1 GE1      0.034200
     22 H62        -1.4990    0.4080    2.8860 h1        1 GE1      0.034200
     23 HN11        0.3740   -0.4590    4.2340 hn        1 GE1      0.352800
     24 HN12        1.3580   -0.1940    2.9600 hn        1 GE1      0.352800
@<TRIPOS>BOND
     1    1    2 1   
     2    1    8 1   
     3    1    9 1   
     4    1   11 1   
     5    2    3 1   
     6    3    4 1   
     7    3    5 1   
     8    3   12 1   
     9    4   13 1   
    10    5    6 1   
    11    5    7 1   
    12    5   14 1   
    13    6   15 1   
    14    6   16 1   
    15    7    8 1   
    16    7   17 1   
    17    7   18 1   
    18    8   19 1   
    19    8   20 1   
    20    9   10 1   
    21    9   21 1   
    22    9   22 1   
    23   10   23 1   
    24   10   24 1   
@<TRIPOS>SUBSTRUCTURE
     1 GE1         1 TEMP              0 ****  ****    0 ROOT
