@<TRIPOS>MOLECULE
GE1
   24    24     1     0     0
SMALL
bcc


@<TRIPOS>ATOM
      1 C5         -0.4050   -0.3300   -0.7760 c3        1 GE1      0.141100
      2 O           1.0940    0.0630   -1.0170 os        1 GE1     -0.435600
      3 C1          1.5560   -0.1420    0.4620 c3        1 GE1      0.288900
      4 O1          1.3130   -1.4180    0.8180 oh        1 GE1     -0.642800
      5 C2          0.8570    0.7770    1.4380 c3        1 GE1      0.152500
      6 N2          0.5290   -0.0070    2.7100 n3        1 GE1     -0.884800
      7 C3         -0.2770    1.2650    0.9230 c3        1 GE1     -0.075400
      8 C4         -1.1190    0.5910    0.1860 c3        1 GE1     -0.109400
      9 C6         -1.1010   -0.3080   -2.0440 c3        1 GE1      0.164800
     10 N1         -0.5230   -1.2700   -2.9210 n3        1 GE1     -0.913800
     11 H5         -0.4350   -1.2400   -0.4190 h1        1 GE1      0.043700
     12 H1          2.5180    0.0200    0.5140 h2        1 GE1      0.068700
     13 HO1         2.0200   -1.9200    0.6220 ho        1 GE1      0.432000
     14 H2          1.4530    1.5190    1.6630 h1        1 GE1      0.069700
     15 HN21       -0.0390    0.4830    3.2320 hn        1 GE1      0.354300
     16 HN22        1.2990   -0.1750    3.1720 hn        1 GE1      0.354300
     17 H31        -0.0160    2.0470    0.3880 hc        1 GE1      0.058200
     18 H32        -0.7950    1.6030    1.6850 hc        1 GE1      0.058200
     19 H41        -1.6720    1.2200   -0.3240 hc        1 GE1      0.050200
     20 H42        -1.6980    0.0570    0.7700 hc        1 GE1      0.050200
     21 H61        -1.0250    0.5850   -2.4430 h1        1 GE1      0.037700
     22 H62        -2.0470   -0.5220   -1.9020 h1        1 GE1      0.037700
     23 HN11       -0.4090   -0.8990   -3.7500 hn        1 GE1      0.350800
     24 HN12       -1.0770   -1.9970   -2.9850 hn        1 GE1      0.350800
@<TRIPOS>BOND
     1    1    2 1   
     2    1    8 1   
     3    1    9 1   
     4    1   11 1   
     5    2    3 1   
     6    3    4 1   
     7    3    5 1   
     8    3   12 1   
     9    4   13 1   
    10    5    6 1   
    11    5    7 1   
    12    5   14 1   
    13    6   15 1   
    14    6   16 1   
    15    7    8 1   
    16    7   17 1   
    17    7   18 1   
    18    8   19 1   
    19    8   20 1   
    20    9   10 1   
    21    9   21 1   
    22    9   22 1   
    23   10   23 1   
    24   10   24 1   
@<TRIPOS>SUBSTRUCTURE
     1 GE1         1 TEMP              0 ****  ****    0 ROOT
