@<TRIPOS>MOLECULE
GE2
   23    23     1     0     0
SMALL
bcc


@<TRIPOS>ATOM
      1 C5         -0.8300   -0.4020   -1.0290 c3        1 GE2      0.171000
      2 C           0.6880   -0.4020   -1.0290 c3        1 GE2     -0.073400
      3 C1          1.2680   -0.4020    0.3740 c3        1 GE2      0.171000
      4 N1          2.6890   -0.2250    0.2880 n3        1 GE2     -0.913300
      5 C2          0.6870    0.7010    1.2430 c3        1 GE2     -0.089400
      6 C3         -0.8310    0.7020    1.2430 c3        1 GE2      0.140100
      7 O32        -1.2900   -0.4540    1.9290 oh        1 GE2     -0.603800
      8 C4         -1.4110    0.7020   -0.1600 c3        1 GE2     -0.089400
      9 N6         -1.2940   -0.2240   -2.3740 n3        1 GE2     -0.913300
     10 H5         -1.1460   -1.2640   -0.6970 h1        1 GE2      0.021700
     11 H1A         1.0030   -1.1960   -1.5010 hc        1 GE2      0.052700
     12 H2          1.0030    0.3920   -1.5010 hc        1 GE2      0.052700
     13 H1          1.0820   -1.2640    0.7930 h1        1 GE2      0.021700
     14 HN11        3.0540   -0.9180   -0.1780 hn        1 GE2      0.349550
     15 HN12        3.0440   -0.2020    1.1280 hn        1 GE2      0.349550
     16 H21         1.0030    1.5630    0.9100 hc        1 GE2      0.055200
     17 H22         1.0030    0.5810    2.1580 hc        1 GE2      0.055200
     18 H3         -1.1460    1.4950    1.7150 h1        1 GE2      0.033700
     19 HOW        -1.7640   -0.2090    2.6380 ho        1 GE2      0.398000
     20 H41        -2.3780    0.5810   -0.1020 hc        1 GE2      0.055200
     21 H42        -1.2250    1.5640   -0.5780 hc        1 GE2      0.055200
     22 HN61       -1.0030   -0.9180   -2.8900 hn        1 GE2      0.349550
     23 HN62       -2.2050   -0.2010   -2.3820 hn        1 GE2      0.349550
@<TRIPOS>BOND
     1    1    2 1   
     2    1    8 1   
     3    1    9 1   
     4    1   10 1   
     5    2    3 1   
     6    2   11 1   
     7    2   12 1   
     8    3    4 1   
     9    3    5 1   
    10    3   13 1   
    11    4   14 1   
    12    4   15 1   
    13    5    6 1   
    14    5   16 1   
    15    5   17 1   
    16    6    7 1   
    17    6    8 1   
    18    6   18 1   
    19    7   19 1   
    20    8   20 1   
    21    8   21 1   
    22    9   22 1   
    23    9   23 1   
@<TRIPOS>SUBSTRUCTURE
     1 GE2         1 TEMP              0 ****  ****    0 ROOT
