@<TRIPOS>MOLECULE
GE2
   25    25     1     0     0
SMALL
bcc


@<TRIPOS>ATOM
      1 C5          0.0230    0.0090   -0.0370 c3        1 GE2      0.137500
      2 C           1.5580    0.0700   -0.0410 c3        1 GE2     -0.133400
      3 C1          2.0510    0.0310    1.4150 c3        1 GE2      0.137500
      4 N1          3.5550    0.0110    1.4820 n4        1 GE2     -0.842100
      5 C2          1.4950    1.2170    2.2020 c3        1 GE2     -0.150400
      6 C3         -0.0380    1.2130    2.1670 c3        1 GE2      0.174100
      7 O32        -0.4870    2.4340    2.7150 oh        1 GE2     -0.562800
      8 C4         -0.5590    1.1990    0.7270 c3        1 GE2     -0.150400
      9 N6         -0.5280   -0.0360   -1.4370 n4        1 GE2     -0.842100
     10 H5         -0.3100   -0.9560    0.4600 hx        1 GE2      0.123700
     11 H1A         1.9780   -0.8000   -0.6140 hc        1 GE2      0.091700
     12 H2          1.9020    1.0200   -0.5350 hc        1 GE2      0.091700
     13 H1          1.7050   -0.9360    1.8980 hx        1 GE2      0.123700
     14 HN11        3.9290   -0.7990    0.9730 hn        1 GE2      0.476133
     15 HN12        3.9450    0.8710    1.0770 hn        1 GE2      0.476133
     16 H21         1.8210    1.1710    3.2760 hc        1 GE2      0.106450
     17 H22         1.8570    2.1930    1.7780 hc        1 GE2      0.106450
     18 H3         -0.4350    0.3260    2.7340 h1        1 GE2      0.068700
     19 HOW        -0.7330    2.2830    3.6400 ho        1 GE2      0.450000
     20 H41        -1.6820    1.1430    0.7660 hc        1 GE2      0.106450
     21 H42        -0.2860    2.1730    0.2370 hc        1 GE2      0.106450
     22 HN61       -0.2820    0.8210   -1.9480 hn        1 GE2      0.476133
     23 HN62       -0.1590   -0.8480   -1.9450 hn        1 GE2      0.476133
     24 H13         3.8490   -0.0470    2.4670 hn        1 GE2      0.476133
     25 H63        -1.5550   -0.1050   -1.3940 hn        1 GE2      0.476133
@<TRIPOS>BOND
     1    1    2 1   
     2    1    8 1   
     3    1    9 1   
     4    1   10 1   
     5    2    3 1   
     6    2   11 1   
     7    2   12 1   
     8    3    4 1   
     9    3    5 1   
    10    3   13 1   
    11    4   14 1   
    12    4   15 1   
    13    4   24 1   
    14    5    6 1   
    15    5   16 1   
    16    5   17 1   
    17    6    7 1   
    18    6    8 1   
    19    6   18 1   
    20    7   19 1   
    21    8   20 1   
    22    8   21 1   
    23    9   22 1   
    24    9   23 1   
    25    9   25 1   
@<TRIPOS>SUBSTRUCTURE
     1 GE2         1 TEMP              0 ****  ****    0 ROOT
