@<TRIPOS>MOLECULE
GE2
   23    23     1     0     0
SMALL
bcc


@<TRIPOS>ATOM
      1 C5         -0.7000    0.3100   -1.2760 c3        1 GE2      0.172500
      2 C          -1.4350   -0.2300   -0.0400 c3        1 GE2     -0.077400
      3 C1         -0.7710    0.3010    1.2400 c3        1 GE2      0.172500
      4 N1         -1.4930   -0.1260    2.4290 n3        1 GE2     -0.907300
      5 C2          0.6920   -0.1600    1.2840 c3        1 GE2     -0.115400
      6 C3          1.4320    0.3340    0.0460 c3        1 GE2      0.147100
      7 O32         2.7650   -0.1640    0.0160 oh        1 GE2     -0.599800
      8 C4          0.7640   -0.1570   -1.2320 c3        1 GE2     -0.115400
      9 N6         -1.3990   -0.0260   -2.5030 n3        1 GE2     -0.907300
     10 H5         -0.7010    1.4410   -1.2170 h1        1 GE2      0.032200
     11 H1A        -1.4130   -1.3510   -0.0400 hc        1 GE2      0.056700
     12 H2         -2.5080    0.0930   -0.0740 hc        1 GE2      0.056700
     13 H1         -0.7590    1.4360    1.1620 h1        1 GE2      0.032200
     14 HN11       -1.0880    0.2870    3.2450 hn        1 GE2      0.350300
     15 HN12       -2.4560    0.1360    2.3630 hn        1 GE2      0.350300
     16 H21         1.1960    0.2410    2.2010 hc        1 GE2      0.055200
     17 H22         0.7440   -1.2780    1.3280 hc        1 GE2      0.055200
     18 H3          1.4670    1.4620    0.0500 h1        1 GE2      0.031700
     19 HOW         3.1630    0.0530    0.8670 ho        1 GE2      0.400000
     20 H41         0.8200   -1.2750   -1.2700 hc        1 GE2      0.055200
     21 H42         1.3300    0.2420   -2.1130 hc        1 GE2      0.055200
     22 HN61       -0.8590    0.2640   -3.2950 hn        1 GE2      0.350300
     23 HN62       -1.5560   -1.0130   -2.5620 hn        1 GE2      0.350300
@<TRIPOS>BOND
     1    1    2 1   
     2    1    8 1   
     3    1    9 1   
     4    1   10 1   
     5    2    3 1   
     6    2   11 1   
     7    2   12 1   
     8    3    4 1   
     9    3    5 1   
    10    3   13 1   
    11    4   14 1   
    12    4   15 1   
    13    5    6 1   
    14    5   16 1   
    15    5   17 1   
    16    6    7 1   
    17    6    8 1   
    18    6   18 1   
    19    7   19 1   
    20    8   20 1   
    21    8   21 1   
    22    9   22 1   
    23    9   23 1   
@<TRIPOS>SUBSTRUCTURE
     1 GE2         1 TEMP              0 ****  ****    0 ROOT
