@<TRIPOS>MOLECULE
GE2
   25    25     1     0     0
SMALL
bcc


@<TRIPOS>ATOM
      1 C5          0.0170    0.0170   -0.0340 c3        1 GE2      0.137500
      2 C           1.5530    0.0510   -0.0340 c3        1 GE2     -0.133400
      3 C1          2.0410    0.0150    1.4230 c3        1 GE2      0.137500
      4 N1          3.5450   -0.0320    1.4950 nz        1 GE2     -0.842100
      5 C2          1.5050    1.2180    2.1980 c3        1 GE2     -0.150400
      6 C3         -0.0280    1.2410    2.1590 c3        1 GE2      0.174100
      7 O32        -0.4570    2.4760    2.6950 oh        1 GE2     -0.562800
      8 C4         -0.5460    1.2240    0.7180 c3        1 GE2     -0.150400
      9 N6         -0.5310   -0.0300   -1.4350 nz        1 GE2     -0.842100
     10 H5         -0.3350   -0.9370    0.4710 hx        1 GE2      0.123700
     11 H1A         1.9150    0.9890   -0.5360 hc        1 GE2      0.091700
     12 H2          1.9580   -0.8330   -0.5980 hc        1 GE2      0.091700
     13 H1          1.6760   -0.9410    1.9140 hx        1 GE2      0.123700
     14 HN11        3.9050   -0.8520    0.9950 hn        1 GE2      0.476133
     15 HN12        3.8350   -0.0860    2.4810 hn        1 GE2      0.476133
     16 H21         1.8270    1.1760    3.2740 hc        1 GE2      0.106450
     17 H22         1.8860    2.1840    1.7670 hc        1 GE2      0.106450
     18 H3         -0.4420    0.3670    2.7330 h1        1 GE2      0.068700
     19 HOW        -0.7060    2.3370    3.6210 ho        1 GE2      0.450000
     20 H41        -0.2540    2.1880    0.2200 hc        1 GE2      0.106450
     21 H42        -1.6690    1.1890    0.7540 hc        1 GE2      0.106450
     22 HN61       -0.2690    0.8170   -1.9530 hn        1 GE2      0.476133
     23 HN62       -0.1760   -0.8530   -1.9340 hn        1 GE2      0.476133
     24 H13         3.9510    0.8170    1.0830 hn        1 GE2      0.476133
     25 H63        -1.5590   -0.0810   -1.3940 hn        1 GE2      0.476133
@<TRIPOS>BOND
     1    1    2 1   
     2    1    8 1   
     3    1    9 1   
     4    1   10 1   
     5    2    3 1   
     6    2   11 1   
     7    2   12 1   
     8    3    4 1   
     9    3    5 1   
    10    3   13 1   
    11    4   14 1   
    12    4   15 1   
    13    4   24 1   
    14    5    6 1   
    15    5   16 1   
    16    5   17 1   
    17    6    7 1   
    18    6    8 1   
    19    6   18 1   
    20    7   19 1   
    21    8   20 1   
    22    8   21 1   
    23    9   22 1   
    24    9   23 1   
    25    9   25 1   
@<TRIPOS>SUBSTRUCTURE
     1 GE2         1 TEMP              0 ****  ****    0 ROOT
