@<TRIPOS>MOLECULE
GE2
   25    25     1     0     0
SMALL
bcc


@<TRIPOS>ATOM
      1 C5          0.0180    0.0210   -0.0110 c3        1 GE2      0.137500
      2 C           1.5540    0.0520   -0.0340 c3        1 GE2     -0.133400
      3 C1          2.0650    0.0120    1.4150 c3        1 GE2      0.137500
      4 N1          3.5680   -0.0400    1.4670 n4        1 GE2     -0.842100
      5 C2          1.5460    1.2170    2.2000 c3        1 GE2     -0.150400
      6 C3          0.0150    1.2400    2.1900 c3        1 GE2      0.174100
      7 O32        -0.3450    2.4730    2.7770 oh        1 GE2     -0.562800
      8 C4         -0.5310    1.2230    0.7570 c3        1 GE2     -0.150400
      9 N6         -0.5490   -0.0190   -1.4050 n4        1 GE2     -0.842100
     10 H5         -0.3270   -0.9360    0.4930 hx        1 GE2      0.123700
     11 H1A         1.9110    0.9910   -0.5380 hc        1 GE2      0.091700
     12 H2          1.9500   -0.8300   -0.6070 hc        1 GE2      0.091700
     13 H1          1.7020   -0.9430    1.9110 hx        1 GE2      0.123700
     14 HN11        3.9180   -0.8620    0.9620 hn        1 GE2      0.476133
     15 HN12        3.8710   -0.0950    2.4490 hn        1 GE2      0.476133
     16 H21         1.8850    1.1780    3.2710 hc        1 GE2      0.106200
     17 H22         1.9210    2.1820    1.7620 hc        1 GE2      0.106200
     18 H3         -0.3920    0.3640    2.7680 h1        1 GE2      0.068700
     19 HOW        -1.1360    2.3350    3.3180 ho        1 GE2      0.450000
     20 H41        -0.2480    2.1900    0.2580 hc        1 GE2      0.106200
     21 H42        -1.6530    1.1850    0.8100 hc        1 GE2      0.106200
     22 HN61       -0.1990   -0.8390   -1.9130 hn        1 GE2      0.476133
     23 HN62       -0.2930    0.8310   -1.9210 hn        1 GE2      0.476133
     24 H13         3.9720    0.8070    1.0500 hn        1 GE2      0.476133
     25 H63        -1.5760   -0.0710   -1.3510 hn        1 GE2      0.476133
@<TRIPOS>BOND
     1    1    2 1   
     2    1    8 1   
     3    1    9 1   
     4    1   10 1   
     5    2    3 1   
     6    2   11 1   
     7    2   12 1   
     8    3    4 1   
     9    3    5 1   
    10    3   13 1   
    11    4   14 1   
    12    4   15 1   
    13    4   24 1   
    14    5    6 1   
    15    5   16 1   
    16    5   17 1   
    17    6    7 1   
    18    6    8 1   
    19    6   18 1   
    20    7   19 1   
    21    8   20 1   
    22    8   21 1   
    23    9   22 1   
    24    9   23 1   
    25    9   25 1   
@<TRIPOS>SUBSTRUCTURE
     1 GE2         1 TEMP              0 ****  ****    0 ROOT
