@<TRIPOS>MOLECULE
GE3
   28    28     1     0     0
SMALL
bcc


@<TRIPOS>ATOM
      1 C          -0.0110    0.0730    0.0100 c3        1 GE3      0.098400
      2 C1          1.5250    0.0900   -0.0300 c3        1 GE3      0.112800
      3 O11         2.0750   -1.0100   -0.7370 oh        1 GE3     -0.611800
      4 C2          2.0420   -0.0070    1.4400 c3        1 GE3      0.064500
      5 C3          1.4530   -1.2730    2.1160 c3        1 GE3      0.114100
      6 C4         -0.0820   -1.2860    1.9650 c3        1 GE3      0.303900
      7 O4         -0.5760   -0.1940    2.6970 oh        1 GE3     -0.640800
      8 O3         -0.4890   -1.1140    0.6240 os        1 GE3     -0.419600
      9 OH          1.8490   -1.3280    3.4650 oh        1 GE3     -0.594800
     10 N1          3.5460   -0.0340    1.4710 n4        1 GE3     -0.740000
     11 C31         4.1170    0.4700    2.7380 c3        1 GE3      0.075100
     12 C41         2.0040    1.3680   -0.7070 c3        1 GE3     -0.126100
     13 H1         -0.3910    0.9780    0.5540 h1        1 GE3      0.098200
     14 H2A        -0.4330    0.0310   -1.0320 h1        1 GE3      0.098200
     15 HOB         1.3630   -1.6340   -0.9410 ho        1 GE3      0.448000
     16 H2          1.6950    0.9050    2.0100 hx        1 GE3      0.125700
     17 H3          1.8690   -2.2040    1.6300 h1        1 GE3      0.109700
     18 H4         -0.5170   -2.2750    2.2870 h2        1 GE3      0.122700
     19 HO4        -1.5410   -0.2660    2.7330 ho        1 GE3      0.455000
     20 HOH         1.2000   -0.8420    3.9980 ho        1 GE3      0.447000
     21 HN1         3.8950    0.5290    0.6840 hn        1 GE3      0.458800
     22 H311        3.7300   -0.1490    3.5960 hx        1 GE3      0.112033
     23 H312        3.8190    1.5420    2.8860 hx        1 GE3      0.112033
     24 H313        5.2370    0.3920    2.6900 hx        1 GE3      0.112033
     25 H411        1.9670    2.2280    0.0030 hc        1 GE3      0.068367
     26 H412        1.3420    1.5990   -1.5790 hc        1 GE3      0.068367
     27 H413        3.0400    1.2450   -1.1070 hc        1 GE3      0.068367
     28 H12         3.8470   -1.0060    1.3160 hn        1 GE3      0.458800
@<TRIPOS>BOND
     1    1    2 1   
     2    1    8 1   
     3    1   13 1   
     4    1   14 1   
     5    2    3 1   
     6    2    4 1   
     7    2   12 1   
     8    3   15 1   
     9    4    5 1   
    10    4   10 1   
    11    4   16 1   
    12    5    6 1   
    13    5    9 1   
    14    5   17 1   
    15    6    7 1   
    16    6    8 1   
    17    6   18 1   
    18    7   19 1   
    19    9   20 1   
    20   10   11 1   
    21   10   21 1   
    22   10   28 1   
    23   11   22 1   
    24   11   23 1   
    25   11   24 1   
    26   12   25 1   
    27   12   26 1   
    28   12   27 1   
@<TRIPOS>SUBSTRUCTURE
     1 GE3         1 TEMP              0 ****  ****    0 ROOT
