@<TRIPOS>MOLECULE
GE3
   27    27     1     0     0
SMALL
bcc


@<TRIPOS>ATOM
      1 C          -1.1580   -0.5600   -1.3870 c3        1 GE3      0.106400
      2 C1         -1.1980   -0.1180    0.0840 c3        1 GE3      0.085800
      3 O11        -1.7030    1.2070    0.2180 oh        1 GE3     -0.592800
      4 C2          0.2610   -0.0830    0.6430 c3        1 GE3      0.174500
      5 C3          1.0640    0.8980   -0.2550 c3        1 GE3      0.142100
      6 C4          0.9690    0.4610   -1.7300 c3        1 GE3      0.291900
      7 O4          1.5980   -0.7940   -1.8610 oh        1 GE3     -0.634800
      8 O3         -0.3550    0.2870   -2.1950 os        1 GE3     -0.438600
      9 OH          2.4210    0.9960    0.1050 oh        1 GE3     -0.571800
     10 N1          0.3890    0.2840    2.0350 n3        1 GE3     -0.829200
     11 C31         0.3410   -0.7870    2.9870 c3        1 GE3      0.163100
     12 C41        -2.0870   -1.0820    0.8560 c3        1 GE3     -0.124100
     13 H1         -2.1770   -0.4900   -1.8530 h1        1 GE3      0.057700
     14 H2A        -0.7740   -1.6120   -1.4480 h1        1 GE3      0.057700
     15 HOB        -2.5090    1.2570   -0.3090 ho        1 GE3      0.406000
     16 H2          0.6920   -1.1170    0.4890 h1        1 GE3      0.071700
     17 H3          0.6510    1.9410   -0.1590 h1        1 GE3      0.106700
     18 H4          1.4180    1.2340   -2.4150 h2        1 GE3      0.084700
     19 HO4         1.5740   -1.0350   -2.7950 ho        1 GE3      0.418000
     20 HOH         2.7670    0.0960    0.1710 ho        1 GE3      0.411000
     21 HN1        -0.2380    1.0300    2.2650 hn        1 GE3      0.386800
     22 H311        0.5570   -0.3580    4.0020 h1        1 GE3      0.028367
     23 H312       -0.6470   -1.3250    3.0360 h1        1 GE3      0.028367
     24 H313        1.1340   -1.5420    2.7420 h1        1 GE3      0.028367
     25 H411       -3.0390   -1.2580    0.2990 hc        1 GE3      0.047033
     26 H412       -1.5670   -2.0590    0.9980 hc        1 GE3      0.047033
     27 H413       -2.3430   -0.6510    1.8530 hc        1 GE3      0.047033
@<TRIPOS>BOND
     1    1    2 1   
     2    1    8 1   
     3    1   13 1   
     4    1   14 1   
     5    2    3 1   
     6    2    4 1   
     7    2   12 1   
     8    3   15 1   
     9    4    5 1   
    10    4   10 1   
    11    4   16 1   
    12    5    6 1   
    13    5    9 1   
    14    5   17 1   
    15    6    7 1   
    16    6    8 1   
    17    6   18 1   
    18    7   19 1   
    19    9   20 1   
    20   10   11 1   
    21   10   21 1   
    22   11   22 1   
    23   11   23 1   
    24   11   24 1   
    25   12   25 1   
    26   12   26 1   
    27   12   27 1   
@<TRIPOS>SUBSTRUCTURE
     1 GE3         1 TEMP              0 ****  ****    0 ROOT
