@<TRIPOS>MOLECULE
GE3
   28    28     1     0     0
SMALL
bcc


@<TRIPOS>ATOM
      1 C          -0.0060    0.0610    0.0010 c3        1 GE3      0.098400
      2 C1          1.5300    0.0670   -0.0320 c3        1 GE3      0.112800
      3 O11         2.0770   -1.0500   -0.7160 oh        1 GE3     -0.611800
      4 C2          2.0390   -0.0060    1.4420 c3        1 GE3      0.064500
      5 C3          1.4390   -1.2560    2.1380 c3        1 GE3      0.114100
      6 C4         -0.0960   -1.2610    1.9790 c3        1 GE3      0.303900
      7 O4         -0.5860   -0.1530    2.6890 oh        1 GE3     -0.640800
      8 O3         -0.4950   -1.1110    0.6340 os        1 GE3     -0.419600
      9 OH          1.8280   -1.2890    3.4890 oh        1 GE3     -0.594800
     10 N1          3.5430   -0.0430    1.4800 n4        1 GE3     -0.740000
     11 C31         4.1110    0.4820    2.7410 c3        1 GE3      0.075100
     12 C41         2.0210    1.3290   -0.7300 c3        1 GE3     -0.126100
     13 H1         -0.3820    0.9780    0.5250 h1        1 GE3      0.098200
     14 H2A        -0.4230    0.0030   -1.0420 h1        1 GE3      0.098200
     15 HOB         1.3610   -1.6720   -0.9130 ho        1 GE3      0.448000
     16 H2          1.6960    0.9180    1.9930 hx        1 GE3      0.125700
     17 H3          1.8500   -2.1980    1.6710 h1        1 GE3      0.109700
     18 H4         -0.5390   -2.2410    2.3170 h2        1 GE3      0.122700
     19 HO4        -1.5510   -0.2170    2.7220 ho        1 GE3      0.455000
     20 HOH         1.1800   -0.7890    4.0110 ho        1 GE3      0.447000
     21 HN1         3.8990    0.5030    0.6850 hn        1 GE3      0.458800
     22 H311        5.2300    0.3950    2.7000 hx        1 GE3      0.112033
     23 H312        3.7150   -0.1180    3.6080 hx        1 GE3      0.112033
     24 H313        3.8200    1.5580    2.8660 hx        1 GE3      0.112033
     25 H411        1.9870    2.2020   -0.0360 hc        1 GE3      0.068367
     26 H412        1.3650    1.5490   -1.6090 hc        1 GE3      0.068367
     27 H413        3.0580    1.1920   -1.1230 hc        1 GE3      0.068367
     28 H12         3.8380   -1.0200    1.3460 hn        1 GE3      0.458800
@<TRIPOS>BOND
     1    1    2 1   
     2    1    8 1   
     3    1   13 1   
     4    1   14 1   
     5    2    3 1   
     6    2    4 1   
     7    2   12 1   
     8    3   15 1   
     9    4    5 1   
    10    4   10 1   
    11    4   16 1   
    12    5    6 1   
    13    5    9 1   
    14    5   17 1   
    15    6    7 1   
    16    6    8 1   
    17    6   18 1   
    18    7   19 1   
    19    9   20 1   
    20   10   11 1   
    21   10   21 1   
    22   10   28 1   
    23   11   22 1   
    24   11   23 1   
    25   11   24 1   
    26   12   25 1   
    27   12   26 1   
    28   12   27 1   
@<TRIPOS>SUBSTRUCTURE
     1 GE3         1 TEMP              0 ****  ****    0 ROOT
