@<TRIPOS>MOLECULE
GE3
   28    28     1     0     0
SMALL
bcc


@<TRIPOS>ATOM
      1 C          -0.0030    0.0550   -0.0060 c3        1 GE3      0.098400
      2 C1          1.5340    0.0710   -0.0320 c3        1 GE3      0.112800
      3 O11         2.0900   -1.0400   -0.7180 oh        1 GE3     -0.611800
      4 C2          2.0370   -0.0040    1.4440 c3        1 GE3      0.064500
      5 C3          1.4410   -1.2600    2.1330 c3        1 GE3      0.114100
      6 C4         -0.0930   -1.2740    1.9680 c3        1 GE3      0.303900
      7 O4         -0.5930   -0.1710    2.6790 oh        1 GE3     -0.640800
      8 O3         -0.4870   -1.1220    0.6220 os        1 GE3     -0.419600
      9 OH          1.8250   -1.2950    3.4860 oh        1 GE3     -0.594800
     10 N1          3.5410   -0.0320    1.4880 ny        1 GE3     -0.740000
     11 C31         4.1000    0.4910    2.7530 c3        1 GE3      0.075100
     12 C41         2.0190    1.3380   -0.7240 c3        1 GE3     -0.126100
     13 H1         -0.3870    0.9680    0.5200 h1        1 GE3      0.098200
     14 H2A        -0.4150   -0.0030   -1.0510 h1        1 GE3      0.098200
     15 HOB         1.3790   -1.6670   -0.9190 ho        1 GE3      0.448000
     16 H2          1.6850    0.9160    1.9970 hx        1 GE3      0.125700
     17 H3          1.8600   -2.1980    1.6650 h1        1 GE3      0.109700
     18 H4         -0.5310   -2.2580    2.3010 h2        1 GE3      0.122700
     19 HO4        -1.5580   -0.2410    2.7080 ho        1 GE3      0.455000
     20 HOH         1.1710   -0.8000    4.0070 ho        1 GE3      0.447000
     21 HN1         3.8970    0.5200    0.6970 hn        1 GE3      0.458800
     22 H311        3.7050   -0.1160    3.6160 hx        1 GE3      0.112033
     23 H312        5.2200    0.4120    2.7160 hx        1 GE3      0.112033
     24 H313        3.8010    1.5650    2.8830 hx        1 GE3      0.112033
     25 H411        1.9770    2.2080   -0.0270 hc        1 GE3      0.068367
     26 H412        3.0590    1.2080   -1.1130 hc        1 GE3      0.068367
     27 H413        1.3650    1.5560   -1.6050 hc        1 GE3      0.068367
     28 H12         3.8420   -1.0060    1.3510 hn        1 GE3      0.458800
@<TRIPOS>BOND
     1    1    2 1   
     2    1    8 1   
     3    1   13 1   
     4    1   14 1   
     5    2    3 1   
     6    2    4 1   
     7    2   12 1   
     8    3   15 1   
     9    4    5 1   
    10    4   10 1   
    11    4   16 1   
    12    5    6 1   
    13    5    9 1   
    14    5   17 1   
    15    6    7 1   
    16    6    8 1   
    17    6   18 1   
    18    7   19 1   
    19    9   20 1   
    20   10   11 1   
    21   10   21 1   
    22   10   28 1   
    23   11   22 1   
    24   11   23 1   
    25   11   24 1   
    26   12   25 1   
    27   12   26 1   
    28   12   27 1   
@<TRIPOS>SUBSTRUCTURE
     1 GE3         1 TEMP              0 ****  ****    0 ROOT
