@<TRIPOS>MOLECULE
GE3
   27    27     1     0     0
SMALL
bcc


@<TRIPOS>ATOM
      1 C          -1.4410    0.0100   -1.2440 c3        1 GE3      0.114400
      2 C1          0.0830    0.0100   -1.2440 c3        1 GE3      0.125800
      3 O11         0.5380    1.1530   -1.9230 oh        1 GE3     -0.592800
      4 C2          0.6450    0.0100    0.1270 c3        1 GE3      0.143500
      5 C3          0.0710    1.0880    0.9690 c3        1 GE3      0.119100
      6 C4         -1.4520    1.0820    0.9570 c3        1 GE3      0.310900
      7 O4         -1.9090    2.2100    1.6210 oh        1 GE3     -0.618800
      8 O3         -2.0040    1.0760   -0.4020 os        1 GE3     -0.459600
      9 OH          0.5350    2.3560    0.4790 oh        1 GE3     -0.606800
     10 N1          0.3610   -1.2900    0.7590 n3        1 GE3     -0.833200
     11 C31         1.3690   -1.5790    1.7320 c3        1 GE3      0.151100
     12 C41         0.5820   -1.2480   -1.9880 c3        1 GE3     -0.094100
     13 H1         -1.7570   -0.8530   -0.9130 h1        1 GE3      0.064200
     14 H2A        -1.7560    0.1310   -2.1590 h1        1 GE3      0.064200
     15 HOB         0.4760    1.0210   -2.7990 ho        1 GE3      0.430000
     16 H2          1.6120    0.1310    0.0730 h1        1 GE3      0.070700
     17 H3          0.3810    0.9710    1.8870 h1        1 GE3      0.062700
     18 H4         -1.7680    0.2890    1.4290 h2        1 GE3      0.065700
     19 HO4        -2.7170    2.0520    1.9520 ho        1 GE3      0.437000
     20 HOH         0.9360    2.7990    1.1360 ho        1 GE3      0.428000
     21 HN1         0.3570   -1.9430    0.1220 hn        1 GE3      0.368800
     22 H311        1.5800   -2.5320    1.7090 h1        1 GE3      0.034033
     23 H312        2.1730   -1.0630    1.5310 h1        1 GE3      0.034033
     24 H313        1.0420   -1.3390    2.6200 h1        1 GE3      0.034033
     25 H411        1.5200   -1.4060   -1.7670 hc        1 GE3      0.050033
     26 H412        0.4920   -1.1140   -2.9500 hc        1 GE3      0.050033
     27 H413        0.0500   -2.0200   -1.7160 hc        1 GE3      0.050033
@<TRIPOS>BOND
     1    1    2 1   
     2    1    8 1   
     3    1   13 1   
     4    1   14 1   
     5    2    3 1   
     6    2    4 1   
     7    2   12 1   
     8    3   15 1   
     9    4    5 1   
    10    4   10 1   
    11    4   16 1   
    12    5    6 1   
    13    5    9 1   
    14    5   17 1   
    15    6    7 1   
    16    6    8 1   
    17    6   18 1   
    18    7   19 1   
    19    9   20 1   
    20   10   11 1   
    21   10   21 1   
    22   11   22 1   
    23   11   23 1   
    24   11   24 1   
    25   12   25 1   
    26   12   26 1   
    27   12   27 1   
@<TRIPOS>SUBSTRUCTURE
     1 GE3         1 TEMP              0 ****  ****    0 ROOT
