@<TRIPOS>MOLECULE
GEE
   16    15     1     0     0
SMALL
bcc


@<TRIPOS>ATOM
      1 C          -0.5310   -0.1160    0.1080 c         1 GEE      0.580100
      2 N          -2.9770    0.3770    0.0580 n3        1 GEE     -0.893800
      3 O          -0.6270   -1.3250    0.3370 o         1 GEE     -0.554000
      4 C1          1.8300   -0.4570    0.1320 c3        1 GEE      0.138400
      5 O1          0.7090    0.4350   -0.0160 os        1 GEE     -0.438900
      6 C2          3.0680    0.3870   -0.0480 c3        1 GEE     -0.101100
      7 CA         -1.6480    0.8960   -0.0620 c3        1 GEE      0.115800
      8 H          -3.1610   -0.3200   -0.6380 hn        1 GEE      0.363800
      9 H2         -3.1340   -0.0190    0.9640 hn        1 GEE      0.363800
     10 H1A         1.7830   -0.9250    1.1500 h1        1 GEE      0.051700
     11 H1B         1.7520   -1.2610   -0.6450 h1        1 GEE      0.051700
     12 H2A         3.0760    0.8620   -1.0580 hc        1 GEE      0.048367
     13 H2B         3.1070    1.1960    0.7210 hc        1 GEE      0.048367
     14 H2C         3.9690   -0.2630    0.0590 hc        1 GEE      0.048367
     15 HA2        -1.4940    1.7010    0.7130 h1        1 GEE      0.088700
     16 HA3        -1.5240    1.3650   -1.0810 h1        1 GEE      0.088700
@<TRIPOS>BOND
     1    1    3 2   
     2    1    5 1   
     3    1    7 1   
     4    2    7 1   
     5    2    8 1   
     6    2    9 1   
     7    4    5 1   
     8    4    6 1   
     9    4   10 1   
    10    4   11 1   
    11    6   12 1   
    12    6   13 1   
    13    6   14 1   
    14    7   15 1   
    15    7   16 1   
@<TRIPOS>SUBSTRUCTURE
     1 GEE         1 TEMP              0 ****  ****    0 ROOT
