@<TRIPOS>MOLECULE
GEE
   16    14     1     0     0
SMALL
bcc


@<TRIPOS>ATOM
      1 C           0.2800   -0.0380   -0.7070 c1        1 GEE      0.251000
      2 N           0.4680    0.3190   -3.0720 n3        1 GEE     -0.326000
      3 O           1.4860   -0.1780   -0.7130 o         1 GEE     -0.365000
      4 C1          0.3970   -0.2410    1.6400 c3        1 GEE     -0.012000
      5 O1         -0.4230   -0.0530    0.5100 o         1 GEE     -0.277000
      6 C2         -0.4340   -0.0960    2.8960 c3        1 GEE     -0.219000
      7 CA         -0.4670    0.1540   -2.0080 c3        1 GEE     -0.071000
      8 H           0.3960   -0.3850   -3.6540 hn        1 GEE      0.159000
      9 H2          0.2910    1.1010   -3.5160 hn        1 GEE      0.159000
     10 H1A         1.1100    0.4310    1.6410 h1        1 GEE      0.091000
     11 H1B         0.7930   -1.1360    1.6110 h1        1 GEE      0.091000
     12 H2A         0.1010   -0.3620    3.6730 hc        1 GEE      0.087667
     13 H2B        -0.7140    0.8370    2.9960 hc        1 GEE      0.087667
     14 H2C        -1.2250   -0.6710    2.8320 hc        1 GEE      0.087667
     15 HA2        -1.0250   -0.6320   -2.1830 h1        1 GEE      0.128000
     16 HA3        -1.0340    0.9500   -1.9460 h1        1 GEE      0.128000
@<TRIPOS>BOND
     1    1    3 1   
     2    1    7 1   
     3    2    7 1   
     4    2    8 1   
     5    2    9 1   
     6    4    5 1   
     7    4    6 1   
     8    4   10 1   
     9    4   11 1   
    10    6   12 1   
    11    6   13 1   
    12    6   14 1   
    13    7   15 1   
    14    7   16 1   
@<TRIPOS>SUBSTRUCTURE
     1 GEE         1 TEMP              0 ****  ****    0 ROOT
