@<TRIPOS>MOLECULE
GEG
   19    16     1     0     0
SMALL
bcc


@<TRIPOS>ATOM
      1 C1'         1.7700    1.2290    1.9900 c1        1 GEG      0.331000
      2 O1'         2.9680    0.8420    1.9730 o         1 GEG     -0.582000
      3 O2'         1.2320    1.5660    3.0770 os        1 GEG     -0.583000
      4 C1          0.9790    1.2930    0.7020 c3        1 GEG     -0.233000
      5 C2          0.3400   -0.0520    0.4350 c3        1 GEG     -0.131000
      6 C3         -0.3960   -0.0080   -0.8850 c2        1 GEG      0.020000
      7 C4         -1.2580   -0.9920   -1.2100 c1        1 GEG     -0.306000
      8 C5         -1.4890   -2.1410   -0.2530 c2        1 GEG     -0.149000
      9 N3         -0.1800    1.0690   -1.7830 n3        1 GEG     -0.329000
     10 H1C1        0.2820    1.9750    0.7810 hc        1 GEG      0.060000
     11 H1C2        1.5770    1.5220   -0.0370 hc        1 GEG      0.060000
     12 H2C1       -0.2900   -0.2620    1.1530 hc        1 GEG      0.108000
     13 H2C2        1.0340   -0.7410    0.3990 hc        1 GEG      0.108000
     14 H4         -1.7330   -0.9640   -2.0620 ha        1 GEG      0.096000
     15 H5C1       -1.8920   -1.8020    0.5740 ha        1 GEG      0.065667
     16 H5C2       -2.0920   -2.7940   -0.6660 ha        1 GEG      0.065667
     17 H5C3       -0.6330   -2.5710   -0.0460 ha        1 GEG      0.065667
     18 H3N1        0.5660    1.0800   -2.3120 hn        1 GEG      0.166000
     19 H3N2       -0.7850    1.7520   -1.8320 hn        1 GEG      0.166000
@<TRIPOS>BOND
     1    1    2 1   
     2    1    4 1   
     3    4    5 1   
     4    4   10 1   
     5    4   11 1   
     6    5    6 1   
     7    5   12 1   
     8    5   13 1   
     9    6    7 1   
    10    6    9 1   
    11    7   14 1   
    12    8   15 1   
    13    8   16 1   
    14    8   17 1   
    15    9   18 1   
    16    9   19 1   
@<TRIPOS>SUBSTRUCTURE
     1 GEG         1 TEMP              0 ****  ****    0 ROOT
