@<TRIPOS>MOLECULE
GEG
   19    18     1     0     0
SMALL
bcc


@<TRIPOS>ATOM
      1 C1'        -0.4390   -0.0690   -2.1410 c         1 GEG      0.908600
      2 O1'        -1.2560    0.8750   -2.3460 o         1 GEG     -0.847800
      3 O2'         0.2200   -0.6470   -3.0520 o         1 GEG     -0.847800
      4 C1         -0.2540   -0.5700   -0.6960 c3        1 GEG     -0.195400
      5 C2         -0.0770    0.5840    0.2650 c3        1 GEG     -0.050200
      6 C3         -0.3460    0.1640    1.6870 c2        1 GEG      0.101800
      7 C4          0.6560   -0.1380    2.5520 c2        1 GEG     -0.311200
      8 C5          2.0850   -0.0640    2.2060 c3        1 GEG     -0.025900
      9 N3         -1.6950    0.1490    2.0860 nh        1 GEG     -0.819600
     10 H1C1        0.6290   -1.2550   -0.6480 hc        1 GEG      0.021200
     11 H1C2       -1.1650   -1.1640   -0.4300 hc        1 GEG      0.021200
     12 H2C1       -0.7740    1.4140   -0.0430 hc        1 GEG      0.064200
     13 H2C2        0.9650    0.9880    0.1850 hc        1 GEG      0.064200
     14 H4          0.4350   -0.4550    3.5820 ha        1 GEG      0.098000
     15 H5C1        2.7060   -0.5530    2.9980 hc        1 GEG      0.024367
     16 H5C2        2.2930   -0.5770    1.2330 hc        1 GEG      0.024367
     17 H5C3        2.4200    1.0000    2.1120 hc        1 GEG      0.024367
     18 H3N1       -2.3220    0.0780    1.3100 hn        1 GEG      0.373300
     19 H3N2       -1.8940   -0.5280    2.7900 hn        1 GEG      0.373300
@<TRIPOS>BOND
     1    1    2 1   
     2    1    3 1   
     3    1    4 1   
     4    4    5 1   
     5    4   10 1   
     6    4   11 1   
     7    5    6 1   
     8    5   12 1   
     9    5   13 1   
    10    6    7 2   
    11    6    9 1   
    12    7    8 1   
    13    7   14 1   
    14    8   15 1   
    15    8   16 1   
    16    8   17 1   
    17    9   18 1   
    18    9   19 1   
@<TRIPOS>SUBSTRUCTURE
     1 GEG         1 TEMP              0 ****  ****    0 ROOT
