@<TRIPOS>MOLECULE
GEK
   52    54     1     0     0
SMALL
bcc


@<TRIPOS>ATOM
      1 C          -5.9020   -2.7580   -0.3840 c         1 GEK      0.939600
      2 N          -5.4660   -0.5280   -1.5010 n4        1 GEK     -0.832600
      3 OXT        -6.9420   -2.7260   -1.0820 o         1 GEK     -0.762800
      4 N1          6.0790   -1.7470   -1.4670 nb        1 GEK     -0.790000
      5 C2          5.9460   -0.4010   -1.3620 ca        1 GEK      0.700900
      6 N3          4.9810    0.3380   -0.7610 nb        1 GEK     -0.770000
      7 C4          4.0140   -0.4360   -0.1830 ca        1 GEK      0.460800
      8 C5          4.0190   -1.8930   -0.2030 ca        1 GEK     -0.234200
      9 C6          5.1080   -2.5360   -0.8870 ca        1 GEK      0.773200
     10 N6          5.1690   -3.8970   -0.9630 nh        1 GEK     -0.950500
     11 N7          2.9080   -2.3880    0.4980 nc        1 GEK     -0.529100
     12 C8          2.2530   -1.3020    0.9280 cd        1 GEK      0.405700
     13 N9          2.8540   -0.0810    0.5260 na        1 GEK     -0.301000
     14 CA         -4.8000   -1.6490   -0.7840 c3        1 GEK     -0.069500
     15 CB         -4.0110   -1.2130    0.4400 c3        1 GEK     -0.080400
     16 SD         -1.9610    0.5290    1.0510 s4        1 GEK     -0.183900
     17 CE         -3.1130    1.8210    0.9050 c3        1 GEK     -0.131100
     18 CG         -2.5970   -0.8080    0.0860 c3        1 GEK      0.034900
     19 CZ         -3.9550    1.7870   -0.3890 c         1 GEK      0.924600
     20 C1'         2.5060    1.2550    0.9440 c3        1 GEK      0.228800
     21 C2'         2.5490    2.3140   -0.2080 c3        1 GEK      0.088100
     22 O2'         3.3960    3.3680    0.1870 oh        1 GEK     -0.592800
     23 C3'         1.1070    2.8540   -0.3260 c3        1 GEK      0.136100
     24 O3'         0.9750    4.2240   -0.0530 oh        1 GEK     -0.567800
     25 C4'         0.2770    2.0120    0.6750 c3        1 GEK      0.110100
     26 O4'         1.1820    1.2680    1.4990 os        1 GEK     -0.420600
     27 C5'        -0.6760    1.0700   -0.0330 c3        1 GEK     -0.001100
     28 O          -5.5690   -3.5240    0.5390 o         1 GEK     -0.762800
     29 OZ1        -5.1850    2.0040   -0.2960 o         1 GEK     -0.805800
     30 OZ2        -3.3560    1.4530   -1.4540 o         1 GEK     -0.805800
     31 HN         -4.8010    0.0250   -2.0540 hn        1 GEK      0.464467
     32 HNA        -6.2010   -0.9470   -2.0910 hn        1 GEK      0.464467
     33 HN6         5.9260   -4.3480   -1.4140 hn        1 GEK      0.455300
     34 HN6A        4.4730   -4.4370   -0.5090 hn        1 GEK      0.455300
     35 H8          1.3450   -1.3010    1.5430 h5        1 GEK      0.074800
     36 HA         -4.1220   -2.1660   -1.5200 hx        1 GEK      0.081700
     37 HB         -4.5420   -0.3810    0.9760 hc        1 GEK      0.099700
     38 HBA        -3.9940   -2.1030    1.1380 hc        1 GEK      0.099700
     39 HE         -3.8120    1.7710    1.7800 h1        1 GEK      0.132700
     40 HEA        -2.5950    2.8130    0.9310 h1        1 GEK      0.132700
     41 HG         -1.8990   -1.6670    0.2730 h1        1 GEK      0.122700
     42 HGA        -2.5380   -0.5570   -1.0100 h1        1 GEK      0.122700
     43 H1'         3.1870    1.5670    1.7960 h2        1 GEK      0.109700
     44 H2'         2.8740    1.8750   -1.1880 h1        1 GEK      0.096700
     45 HO2'        4.2900    3.1390   -0.1040 ho        1 GEK      0.444000
     46 H3'         0.7220    2.7340   -1.3770 h1        1 GEK      0.105700
     47 HO3'        1.5860    4.4620    0.6590 ho        1 GEK      0.431000
     48 H4'        -0.2770    2.6930    1.3830 h1        1 GEK      0.093700
     49 H5'        -0.1160    0.1720   -0.4020 h1        1 GEK      0.142700
     50 H5'A       -1.1290    1.5790   -0.9350 h1        1 GEK      0.142700
     51 H22        -5.9150    0.1070   -0.8280 hn        1 GEK      0.464467
     52 H2          6.7600    0.1830   -1.8450 h5        1 GEK      0.057100
@<TRIPOS>BOND
     1    1    3 1   
     2    1   14 1   
     3    1   28 1   
     4    2   14 1   
     5    2   31 1   
     6    2   32 1   
     7    2   51 1   
     8    4    5 ar  
     9    4    9 ar  
    10    5    6 ar  
    11    5   52 1   
    12    6    7 ar  
    13    7    8 ar  
    14    7   13 1   
    15    8    9 ar  
    16    8   11 1   
    17    9   10 1   
    18   10   33 1   
    19   10   34 1   
    20   11   12 2   
    21   12   13 1   
    22   12   35 1   
    23   13   20 1   
    24   14   15 1   
    25   14   36 1   
    26   15   18 1   
    27   15   37 1   
    28   15   38 1   
    29   16   17 1   
    30   16   18 1   
    31   16   27 1   
    32   17   19 1   
    33   17   39 1   
    34   17   40 1   
    35   18   41 1   
    36   18   42 1   
    37   19   29 1   
    38   19   30 1   
    39   20   21 1   
    40   20   26 1   
    41   20   43 1   
    42   21   22 1   
    43   21   23 1   
    44   21   44 1   
    45   22   45 1   
    46   23   24 1   
    47   23   25 1   
    48   23   46 1   
    49   24   47 1   
    50   25   26 1   
    51   25   27 1   
    52   25   48 1   
    53   27   49 1   
    54   27   50 1   
@<TRIPOS>SUBSTRUCTURE
     1 GEK         1 TEMP              0 ****  ****    0 ROOT
