@<TRIPOS>MOLECULE
GEK
   52    46     1     0     0
SMALL
bcc


@<TRIPOS>ATOM
      1 C          -2.8660    3.2470   -5.3600 c1        1 GEK      0.356000
      2 N          -0.5890    2.9860   -6.0820 n4        1 GEK     -0.065000
      3 OXT        -3.9540    2.6140   -5.6390 os        1 GEK     -0.466000
      4 N1          0.8090   -3.3540    6.5980 n1        1 GEK     -0.269000
      5 C2          1.2510   -2.1040    6.3400 c1        1 GEK      0.031000
      6 N3          1.2650   -1.6310    5.0490 n1        1 GEK     -0.239000
      7 C4          0.8340   -2.4190    4.0320 c1        1 GEK     -0.088000
      8 C5          0.3940   -3.6620    4.2860 c1        1 GEK     -0.088000
      9 C6          0.3810   -4.1370    5.5880 c1        1 GEK      0.249000
     10 N6         -0.0650   -5.3190    6.0840 n3        1 GEK     -0.353000
     11 N7          0.0220   -4.2340    3.0900 n1        1 GEK     -0.160000
     12 C8          0.2430   -3.3200    2.1000 c1        1 GEK     -0.037000
     13 N9          0.7400   -2.2040    2.6640 n1        1 GEK     -0.160000
     14 CA         -1.5550    2.4750   -5.1890 c3        1 GEK     -0.213000
     15 CB         -1.0500    2.6330   -3.7390 c3        1 GEK     -0.146000
     16 SD         -0.7520    1.4750   -1.4400 s4        1 GEK      1.397000
     17 CE         -1.8670    2.1810   -0.3040 c3        1 GEK     -0.596000
     18 CG         -1.4500    1.4120   -2.9300 c3        1 GEK     -0.527000
     19 CZ         -1.3320    3.5100    0.1600 c2        1 GEK      0.335000
     20 C1'         1.1630   -1.0870    2.2230 c2        1 GEK      0.142000
     21 C2'         2.3550   -1.3000    1.2730 c3        1 GEK     -0.027000
     22 O2'         3.4480   -0.3520    1.5980 oh        1 GEK     -0.323000
     23 C3'         1.8680   -1.0490    0.0450 c3        1 GEK      0.020000
     24 O3'         2.8770   -0.4490   -0.7690 oh        1 GEK     -0.304000
     25 C4'         0.6330   -0.0130    0.2480 c3        1 GEK      0.020000
     26 O4'         0.0300   -0.3700    1.3400 os        1 GEK     -0.279000
     27 C5'        -0.3270   -0.0980   -0.9320 c3        1 GEK     -0.684000
     28 O          -2.9000    4.4720   -5.1330 o         1 GEK     -0.518000
     29 OZ1        -0.3050    4.0070   -0.3920 o         1 GEK     -0.474500
     30 OZ2        -1.9250    4.1440    1.0710 o         1 GEK     -0.474500
     31 HN          0.1740    2.4380   -6.0660 hn        1 GEK      0.245333
     32 HNA        -0.9450    3.0040   -6.9520 hn        1 GEK      0.245333
     33 H2          1.5640   -1.5260    7.0840 ha        1 GEK      0.189000
     34 HN6         0.0890   -5.5340    6.9570 hn        1 GEK      0.248500
     35 HN6A       -0.5760   -5.8790    5.5530 hn        1 GEK      0.248500
     36 H8          0.0790   -3.4500    1.1720 DU        1 GEK      0.208000
     37 HA         -1.7150    1.4860   -5.3890 hx        1 GEK      0.129000
     38 HB         -0.0320    2.7250   -3.7390 hc        1 GEK      0.114000
     39 HBA        -1.4650    3.4620   -3.3280 hc        1 GEK      0.114000
     40 HE         -1.9720    1.5740    0.4780 h1        1 GEK      0.165500
     41 HEA        -2.7550    2.3140   -0.7450 h1        1 GEK      0.165500
     42 HG         -1.1530    0.6030   -3.3950 h1        1 GEK      0.171500
     43 HGA        -2.4020    1.3930   -2.8320 h1        1 GEK      0.171500
     44 H1'         1.4290   -0.4990    2.9800 h4        1 GEK      0.145000
     45 H2'         2.6790   -2.2220    1.3270 h1        1 GEK      0.131000
     46 HO2'        4.2740   -0.8350    1.6930 ho        1 GEK      0.237000
     47 H3'         1.5360   -1.9080   -0.3830 h1        1 GEK      0.136000
     48 HO3'        3.1740   -1.0230   -1.3250 ho        1 GEK      0.227000
     49 H4'         0.9550    0.8530    0.3320 h1        1 GEK      0.124000
     50 H5'        -1.1430   -0.5940   -0.6520 h1        1 GEK      0.141000
     51 H5'A        0.1000   -0.5690   -1.6640 h1        1 GEK      0.141000
     52 H22        -0.3520    3.8610   -5.8220 hn        1 GEK      0.245333
@<TRIPOS>BOND
     1    1   14 1   
     2    1   28 1   
     3    2   14 1   
     4    2   31 1   
     5    2   32 1   
     6    2   52 1   
     7    4    9 1   
     8    5    6 1   
     9    5   33 1   
    10    7    8 1   
    11    9   10 1   
    12   10   34 1   
    13   10   35 1   
    14   11   12 1   
    15   12   13 1   
    16   14   15 1   
    17   14   37 1   
    18   15   18 1   
    19   15   38 1   
    20   15   39 1   
    21   16   17 1   
    22   16   18 1   
    23   16   27 1   
    24   17   19 1   
    25   17   40 1   
    26   17   41 1   
    27   18   42 1   
    28   18   43 1   
    29   19   29 1   
    30   19   30 1   
    31   20   21 1   
    32   20   26 1   
    33   20   44 1   
    34   21   22 1   
    35   21   23 1   
    36   21   45 1   
    37   22   46 1   
    38   23   24 1   
    39   23   25 1   
    40   23   47 1   
    41   24   48 1   
    42   25   26 1   
    43   25   27 1   
    44   25   49 1   
    45   27   50 1   
    46   27   51 1   
@<TRIPOS>SUBSTRUCTURE
     1 GEK         1 TEMP              0 ****  ****    0 ROOT
