@<TRIPOS>MOLECULE
GEL
   75    74     1     0     0
SMALL
bcc


@<TRIPOS>ATOM
      1 C1          0.3940   -0.3510   -0.3210 c3        1 GEL      0.104400
      2 O1         -0.2710   -1.4490    0.3110 os        1 GEL     -0.458600
      3 C11        -1.6300   -1.1590    0.6210 c3        1 GEL      0.135400
      4 C12        -2.2480   -2.4530    1.1210 c3        1 GEL     -0.092400
      5 C13        -3.7050   -2.2440    1.4720 c3        1 GEL     -0.075400
      6 C14        -4.3340   -3.5260    1.9740 c3        1 GEL     -0.079400
      7 C15        -5.7920   -3.3210    2.3260 c3        1 GEL     -0.078400
      8 C16        -6.4220   -4.6020    2.8290 c3        1 GEL     -0.079400
      9 C17        -7.8800   -4.4000    3.1810 c3        1 GEL     -0.080400
     10 C18        -8.5110   -5.6730    3.6820 c3        1 GEL     -0.091100
     11 C2          1.9110   -0.5150   -0.1480 c3        1 GEL      0.213100
     12 O2          2.3000   -0.2040    1.1460 os        1 GEL     -0.577200
     13 P2          3.2510    1.1820    1.2830 p5        1 GEL      1.341600
     14 O1P         2.3540    2.2710    0.8370 o         1 GEL     -0.858000
     15 O2P         4.5030    0.8440    0.5710 o         1 GEL     -0.858000
     16 C22         3.4640    1.1900    2.9550 c3        1 GEL     -0.334600
     17 C23         4.2890    2.4060    3.2640 c3        1 GEL     -0.071400
     18 C24         4.5720    2.5650    4.7400 c3        1 GEL     -0.068400
     19 C25         5.4050    3.8000    5.0130 c3        1 GEL     -0.080400
     20 C26         5.6890    3.9590    6.4920 c3        1 GEL     -0.078400
     21 C27         6.5210    5.1940    6.7650 c3        1 GEL     -0.081400
     22 C28         6.8060    5.3580    8.2350 c3        1 GEL     -0.090100
     23 C3          2.3740   -1.9540   -0.4350 c3        1 GEL      0.158400
     24 O3          1.9600   -2.3340   -1.7410 os        1 GEL     -0.583200
     25 P3          1.4960   -3.8270   -1.9870 p5        1 GEL      1.633500
     26 O3P         0.0980   -3.9430   -1.2310 oh        1 GEL     -0.797400
     27 O4P         1.4960   -4.3410   -3.3480 o         1 GEL     -0.800300
     28 O5P         2.3880   -4.6970   -0.9650 os        1 GEL     -0.587200
     29 C31         2.4460   -6.0880   -1.1710 c3        1 GEL      0.135400
     30 C32         1.7830   -6.8350   -0.0020 c3        1 GEL      0.133800
     31 N3          0.3750   -6.6280    0.2070 n3        1 GEL     -0.909800
     32 H11         0.0680    0.6210    0.1330 h1        1 GEL      0.046200
     33 H12         0.1310   -0.3760   -1.4120 h1        1 GEL      0.046200
     34 H111       -1.6690   -0.3600    1.4090 h1        1 GEL      0.028200
     35 H112       -2.1600   -0.7910   -0.2970 h1        1 GEL      0.028200
     36 H121       -2.1500   -3.2430    0.3310 hc        1 GEL      0.053700
     37 H122       -1.6800   -2.8090    2.0200 hc        1 GEL      0.053700
     38 H131       -3.7920   -1.4480    2.2580 hc        1 GEL      0.038200
     39 H132       -4.2620   -1.8800    0.5690 hc        1 GEL      0.038200
     40 H141       -4.2450   -4.3220    1.1880 hc        1 GEL      0.042700
     41 H142       -3.7760   -3.8890    2.8770 hc        1 GEL      0.042700
     42 H151       -6.3490   -2.9570    1.4230 hc        1 GEL      0.037200
     43 H152       -5.8810   -2.5250    3.1120 hc        1 GEL      0.037200
     44 H161       -6.3320   -5.3980    2.0430 hc        1 GEL      0.039700
     45 H162       -5.8640   -4.9660    3.7320 hc        1 GEL      0.039700
     46 H171       -8.4350   -4.0340    2.2770 hc        1 GEL      0.036700
     47 H172       -7.9670   -3.6020    3.9660 hc        1 GEL      0.036700
     48 H181       -8.4550   -6.4730    2.9040 hc        1 GEL      0.030033
     49 H182       -9.5850   -5.5020    3.9360 hc        1 GEL      0.030033
     50 H183       -7.9860   -6.0400    4.5970 hc        1 GEL      0.030033
     51 H2          2.4030    0.1830   -0.8890 h1        1 GEL      0.065700
     52 H221        3.9810    0.2650    3.3040 hc        1 GEL      0.069200
     53 H222        2.4860    1.2320    3.4890 hc        1 GEL      0.069200
     54 H231        5.2540    2.3300    2.6930 hc        1 GEL      0.055200
     55 H232        3.7420    3.3080    2.8770 hc        1 GEL      0.055200
     56 H241        5.1110    1.6560    5.1180 hc        1 GEL      0.031200
     57 H242        3.6040    2.6320    5.3030 hc        1 GEL      0.031200
     58 H251        6.3720    3.7310    4.4500 hc        1 GEL      0.039200
     59 H252        4.8650    4.7070    4.6330 hc        1 GEL      0.039200
     60 H261        6.2280    3.0520    6.8710 hc        1 GEL      0.034700
     61 H262        4.7210    4.0280    7.0550 hc        1 GEL      0.034700
     62 H271        7.4880    5.1240    6.1990 hc        1 GEL      0.037700
     63 H272        5.9810    6.1000    6.3820 hc        1 GEL      0.037700
     64 H281        7.3660    4.4750    8.6290 hc        1 GEL      0.026700
     65 H282        7.4210    6.2730    8.4140 hc        1 GEL      0.026700
     66 H283        5.8550    5.4530    8.8130 hc        1 GEL      0.026700
     67 H31         3.4980   -1.9860   -0.3950 h1        1 GEL      0.059200
     68 H32         1.9330   -2.6650    0.3120 h1        1 GEL      0.059200
     69 H311        3.5350   -6.3740   -1.2040 h1        1 GEL      0.050200
     70 H312        1.9630   -6.3450   -2.1540 h1        1 GEL      0.050200
     71 H321        2.3230   -6.5510    0.9450 h1        1 GEL      0.054200
     72 H322        1.9460   -7.9360   -0.1850 h1        1 GEL      0.054200
     73 HN31       -0.1460   -3.2490   -0.6160 ho        1 GEL      0.502000
     74 HN32       -0.1350   -6.7390   -0.6480 hn        1 GEL      0.354300
     75 H33         0.1970   -5.7060    0.5600 hn        1 GEL      0.354300
@<TRIPOS>BOND
     1    1    2 1   
     2    1   11 1   
     3    1   32 1   
     4    1   33 1   
     5    2    3 1   
     6    3    4 1   
     7    3   34 1   
     8    3   35 1   
     9    4    5 1   
    10    4   36 1   
    11    4   37 1   
    12    5    6 1   
    13    5   38 1   
    14    5   39 1   
    15    6    7 1   
    16    6   40 1   
    17    6   41 1   
    18    7    8 1   
    19    7   42 1   
    20    7   43 1   
    21    8    9 1   
    22    8   44 1   
    23    8   45 1   
    24    9   10 1   
    25    9   46 1   
    26    9   47 1   
    27   10   48 1   
    28   10   49 1   
    29   10   50 1   
    30   11   12 1   
    31   11   23 1   
    32   11   51 1   
    33   12   13 1   
    34   13   14 1   
    35   13   15 1   
    36   13   16 1   
    37   16   17 1   
    38   16   52 1   
    39   16   53 1   
    40   17   18 1   
    41   17   54 1   
    42   17   55 1   
    43   18   19 1   
    44   18   56 1   
    45   18   57 1   
    46   19   20 1   
    47   19   58 1   
    48   19   59 1   
    49   20   21 1   
    50   20   60 1   
    51   20   61 1   
    52   21   22 1   
    53   21   62 1   
    54   21   63 1   
    55   22   64 1   
    56   22   65 1   
    57   22   66 1   
    58   23   24 1   
    59   23   67 1   
    60   23   68 1   
    61   24   25 1   
    62   25   26 1   
    63   25   27 2   
    64   25   28 1   
    65   26   73 1   
    66   28   29 1   
    67   29   30 1   
    68   29   69 1   
    69   29   70 1   
    70   30   31 1   
    71   30   71 1   
    72   30   72 1   
    73   31   74 1   
    74   31   75 1   
@<TRIPOS>SUBSTRUCTURE
     1 GEL         1 TEMP              0 ****  ****    0 ROOT
