@<TRIPOS>MOLECULE
GEL
   75    74     1     0     0
SMALL
bcc


@<TRIPOS>ATOM
      1 C1          0.2190   -0.5180   -0.1050 c3        1 GEL      0.110400
      2 O1         -0.5040   -1.5290    0.6020 os        1 GEL     -0.455600
      3 C11        -1.8750   -1.1880    0.7840 c3        1 GEL      0.135400
      4 C12        -2.5630   -2.4250    1.3370 c3        1 GEL     -0.094400
      5 C13        -4.0240   -2.1430    1.6070 c3        1 GEL     -0.075400
      6 C14        -4.7240   -3.3690    2.1540 c3        1 GEL     -0.079400
      7 C15        -6.1870   -3.0910    2.4260 c3        1 GEL     -0.078400
      8 C16        -6.8860   -4.3160    2.9740 c3        1 GEL     -0.079400
      9 C17        -8.3500   -4.0400    3.2470 c3        1 GEL     -0.080400
     10 C18        -9.0500   -5.2570    3.7930 c3        1 GEL     -0.092100
     11 C2          1.7240   -0.7350    0.1100 c3        1 GEL      0.213100
     12 O2          2.1010   -0.3080    1.3750 os        1 GEL     -0.577200
     13 P2          3.2430    0.9330    1.3930 p5        1 GEL      1.342600
     14 O1P         2.6090    2.0120    0.6030 o         1 GEL     -0.858000
     15 O2P         4.5010    0.2770    0.9770 o         1 GEL     -0.858000
     16 C22         3.2300    1.2760    3.0430 c3        1 GEL     -0.334600
     17 C23         4.3210    2.2820    3.2690 c3        1 GEL     -0.071400
     18 C24         4.4580    2.6870    4.7190 c3        1 GEL     -0.068400
     19 C25         5.5660    3.7010    4.9070 c3        1 GEL     -0.080400
     20 C26         5.7040    4.1050    6.3590 c3        1 GEL     -0.078400
     21 C27         6.8120    5.1200    6.5480 c3        1 GEL     -0.081400
     22 C28         6.9540    5.5250    7.9930 c3        1 GEL     -0.090100
     23 C3          2.1220   -2.2150   -0.0270 c3        1 GEL      0.152400
     24 O3          1.7620   -2.6910   -1.3140 os        1 GEL     -0.595200
     25 P3          1.1930   -4.1670   -1.4540 p5        1 GEL      1.634500
     26 O3P        -0.2560   -4.0820   -0.8200 oh        1 GEL     -0.770400
     27 O4P         1.3060   -4.8130   -2.7550 o         1 GEL     -0.810300
     28 O5P         1.9820   -5.0180   -0.3350 os        1 GEL     -0.593200
     29 C31         3.2070   -5.6040   -0.7130 c3        1 GEL      0.142400
     30 C32         3.0790   -7.1240   -0.9110 c3        1 GEL      0.134800
     31 N3          2.4170   -7.5890   -2.1010 n8        1 GEL     -0.910800
     32 H11        -0.0670    0.4990    0.2680 h1        1 GEL      0.042700
     33 H12        -0.0280   -0.6150   -1.1960 h1        1 GEL      0.042700
     34 H111       -1.9500   -0.3280    1.5010 h1        1 GEL      0.026700
     35 H112       -2.3280   -0.8850   -0.1980 h1        1 GEL      0.026700
     36 H121       -2.4600   -3.2680    0.6030 hc        1 GEL      0.055700
     37 H122       -2.0480   -2.7420    2.2810 hc        1 GEL      0.055700
     38 H131       -4.1160   -1.2980    2.3400 hc        1 GEL      0.037700
     39 H132       -4.5270   -1.8150    0.6580 hc        1 GEL      0.037700
     40 H141       -4.6310   -4.2130    1.4210 hc        1 GEL      0.041700
     41 H142       -4.2200   -3.6970    3.1010 hc        1 GEL      0.041700
     42 H151       -6.6900   -2.7630    1.4780 hc        1 GEL      0.037700
     43 H152       -6.2790   -2.2460    3.1580 hc        1 GEL      0.037700
     44 H161       -6.7940   -5.1610    2.2420 hc        1 GEL      0.039700
     45 H162       -6.3830   -4.6440    3.9220 hc        1 GEL      0.039700
     46 H171       -8.8510   -3.7110    2.2980 hc        1 GEL      0.036700
     47 H172       -8.4400   -3.1930    3.9780 hc        1 GEL      0.036700
     48 H181       -8.9920   -6.1040    3.0670 hc        1 GEL      0.030367
     49 H182      -10.1270   -5.0320    3.9870 hc        1 GEL      0.030367
     50 H183       -8.5810   -5.5850    4.7520 hc        1 GEL      0.030367
     51 H2          2.2560   -0.1340   -0.6880 h1        1 GEL      0.068700
     52 H221        3.4110    0.3570    3.6500 hc        1 GEL      0.069200
     53 H222        2.2440    1.6850    3.3660 hc        1 GEL      0.069200
     54 H231        5.2870    1.8410    2.8970 hc        1 GEL      0.055200
     55 H232        4.1020    3.1850    2.6370 hc        1 GEL      0.055200
     56 H241        4.6690    1.7780    5.3420 hc        1 GEL      0.031200
     57 H242        3.4870    3.1170    5.0810 hc        1 GEL      0.031200
     58 H251        6.5350    3.2700    4.5420 hc        1 GEL      0.039200
     59 H252        5.3530    4.6090    4.2830 hc        1 GEL      0.039200
     60 H261        5.9170    3.1970    6.9840 hc        1 GEL      0.034700
     61 H262        4.7350    4.5360    6.7240 hc        1 GEL      0.034700
     62 H271        7.7800    4.6870    6.1810 hc        1 GEL      0.037700
     63 H272        6.5980    6.0260    5.9220 hc        1 GEL      0.037700
     64 H281        7.1910    4.6380    8.6290 hc        1 GEL      0.026700
     65 H282        7.7760    6.2730    8.1090 hc        1 GEL      0.026700
     66 H283        6.0060    5.9810    8.3690 hc        1 GEL      0.026700
     67 H31         3.2400   -2.2970    0.0820 h1        1 GEL      0.057700
     68 H32         1.6070   -2.8340    0.7550 h1        1 GEL      0.057700
     69 H311        3.9260   -5.4100    0.1320 h1        1 GEL      0.048200
     70 H312        3.5830   -5.1080   -1.6510 h1        1 GEL      0.048200
     71 H321        2.5550   -7.5510   -0.0110 h1        1 GEL      0.050700
     72 H322        4.1310   -7.5310   -0.9310 h1        1 GEL      0.050700
     73 HN31        1.4230   -7.5110   -2.0140 hn        1 GEL      0.358800
     74 HN32       -0.4090   -3.4240   -0.1370 ho        1 GEL      0.504000
     75 H33         2.6990   -7.0510   -2.9010 hn        1 GEL      0.358800
@<TRIPOS>BOND
     1    1    2 1   
     2    1   11 1   
     3    1   32 1   
     4    1   33 1   
     5    2    3 1   
     6    3    4 1   
     7    3   34 1   
     8    3   35 1   
     9    4    5 1   
    10    4   36 1   
    11    4   37 1   
    12    5    6 1   
    13    5   38 1   
    14    5   39 1   
    15    6    7 1   
    16    6   40 1   
    17    6   41 1   
    18    7    8 1   
    19    7   42 1   
    20    7   43 1   
    21    8    9 1   
    22    8   44 1   
    23    8   45 1   
    24    9   10 1   
    25    9   46 1   
    26    9   47 1   
    27   10   48 1   
    28   10   49 1   
    29   10   50 1   
    30   11   12 1   
    31   11   23 1   
    32   11   51 1   
    33   12   13 1   
    34   13   14 1   
    35   13   15 1   
    36   13   16 1   
    37   16   17 1   
    38   16   52 1   
    39   16   53 1   
    40   17   18 1   
    41   17   54 1   
    42   17   55 1   
    43   18   19 1   
    44   18   56 1   
    45   18   57 1   
    46   19   20 1   
    47   19   58 1   
    48   19   59 1   
    49   20   21 1   
    50   20   60 1   
    51   20   61 1   
    52   21   22 1   
    53   21   62 1   
    54   21   63 1   
    55   22   64 1   
    56   22   65 1   
    57   22   66 1   
    58   23   24 1   
    59   23   67 1   
    60   23   68 1   
    61   24   25 1   
    62   25   26 1   
    63   25   27 2   
    64   25   28 1   
    65   26   74 1   
    66   28   29 1   
    67   29   30 1   
    68   29   69 1   
    69   29   70 1   
    70   30   31 1   
    71   30   71 1   
    72   30   72 1   
    73   31   73 1   
    74   31   75 1   
@<TRIPOS>SUBSTRUCTURE
     1 GEL         1 TEMP              0 ****  ****    0 ROOT
