@<TRIPOS>MOLECULE
GEL
   74    73     1     0     0
SMALL
bcc


@<TRIPOS>ATOM
      1 C1          1.1060    1.4520    0.1390 c3        1 GEL      0.118400
      2 O1          1.5580    0.6140    1.2060 os        1 GEL     -0.396600
      3 C11         1.7300    1.3420    2.4120 c3        1 GEL      0.137400
      4 C12         2.0160    0.3230    3.5020 c3        1 GEL     -0.087400
      5 C13         2.2830    1.0110    4.8220 c3        1 GEL     -0.074400
      6 C14         2.5370    0.0030    5.9220 c3        1 GEL     -0.081400
      7 C15         2.8110    0.6860    7.2450 c3        1 GEL     -0.077400
      8 C16         3.0600   -0.3230    8.3450 c3        1 GEL     -0.080400
      9 C17         3.3340    0.3580    9.6690 c3        1 GEL     -0.080400
     10 C18         3.5820   -0.6440   10.7670 c3        1 GEL     -0.090100
     11 C2          0.7310    0.5790   -1.0660 c3        1 GEL      0.202100
     12 O2          1.8340   -0.1120   -1.5600 os        1 GEL     -0.575200
     13 P2          2.3880    0.3130   -3.0700 p5        1 GEL      1.348600
     14 O1P         2.1410    1.7700   -3.2170 o         1 GEL     -0.867500
     15 O2P         3.7510   -0.2570   -3.2010 o         1 GEL     -0.867500
     16 C22         1.3070   -0.5530   -4.0560 c3        1 GEL     -0.344600
     17 C23         1.6180   -0.1510   -5.4660 c3        1 GEL     -0.064400
     18 C24         0.7290   -0.8310   -6.4830 c3        1 GEL     -0.071400
     19 C25         1.0690   -0.3990   -7.8940 c3        1 GEL     -0.078400
     20 C26         0.1780   -1.0780   -8.9110 c3        1 GEL     -0.079400
     21 C27         0.5170   -0.6460  -10.3220 c3        1 GEL     -0.081400
     22 C28        -0.3690   -1.3190  -11.3390 c3        1 GEL     -0.089100
     23 C3         -0.3700   -0.4220   -0.6730 c3        1 GEL      0.153400
     24 O3         -1.5410    0.2900   -0.3600 os        1 GEL     -0.571200
     25 P3         -2.7950   -0.6580    0.0750 p5        1 GEL      1.422800
     26 O3P        -2.8990   -1.8360   -0.8120 o         1 GEL     -0.842000
     27 O4P        -3.9430    0.2010    0.4330 o         1 GEL     -0.842000
     28 O5P        -2.1800   -1.2230    1.5200 os        1 GEL     -0.571200
     29 C31        -3.1030   -2.0480    2.1580 c3        1 GEL      0.135400
     30 C32        -2.5190   -2.5430    3.4890 c3        1 GEL      0.144800
     31 N3         -1.9350   -1.5300    4.3390 n3        1 GEL     -0.902800
     32 H11         0.1910    2.0150    0.4640 h1        1 GEL      0.029700
     33 H12         1.9270    2.1670   -0.1300 h1        1 GEL      0.029700
     34 H111        0.8030    1.9290    2.6540 h1        1 GEL      0.008200
     35 H112        2.5880    2.0610    2.3010 h1        1 GEL      0.008200
     36 H121        2.8980   -0.3000    3.2020 hc        1 GEL      0.058200
     37 H122        1.1370   -0.3690    3.5930 hc        1 GEL      0.058200
     38 H131        1.4040    1.6520    5.0970 hc        1 GEL      0.030700
     39 H132        3.1700    1.6900    4.7220 hc        1 GEL      0.030700
     40 H141        3.4100   -0.6440    5.6440 hc        1 GEL      0.044200
     41 H142        1.6460   -0.6720    6.0230 hc        1 GEL      0.044200
     42 H151        1.9370    1.3340    7.5200 hc        1 GEL      0.033700
     43 H152        3.7030    1.3590    7.1430 hc        1 GEL      0.033700
     44 H161        3.9330   -0.9720    8.0690 hc        1 GEL      0.040200
     45 H162        2.1670   -0.9960    8.4450 hc        1 GEL      0.040200
     46 H171        2.4600    1.0070    9.9420 hc        1 GEL      0.034700
     47 H172        4.2250    1.0320    9.5650 hc        1 GEL      0.034700
     48 H181        3.7810   -0.1220   11.7350 hc        1 GEL      0.026700
     49 H182        2.6950   -1.3090   10.9010 hc        1 GEL      0.026700
     50 H183        4.4650   -1.2840   10.5240 hc        1 GEL      0.026700
     51 H2          0.3310    1.2870   -1.8540 h1        1 GEL      0.056700
     52 H221        1.4350   -1.6520   -3.9180 hc        1 GEL      0.069200
     53 H222        0.2460   -0.3190   -3.7990 hc        1 GEL      0.069200
     54 H231        1.5110    0.9650   -5.5420 hc        1 GEL      0.051200
     55 H232        2.6960   -0.3970   -5.6700 hc        1 GEL      0.051200
     56 H241        0.8390   -1.9430   -6.3930 hc        1 GEL      0.033700
     57 H242       -0.3440   -0.5870   -6.2620 hc        1 GEL      0.033700
     58 H251        0.9600    0.7140   -7.9800 hc        1 GEL      0.034200
     59 H252        2.1430   -0.6430   -8.1120 hc        1 GEL      0.034200
     60 H261        0.2870   -2.1910   -8.8230 hc        1 GEL      0.036200
     61 H262       -0.8950   -0.8340   -8.6920 hc        1 GEL      0.036200
     62 H271        0.4080    0.4680  -10.4070 hc        1 GEL      0.034200
     63 H272        1.5910   -0.8880  -10.5390 hc        1 GEL      0.034200
     64 H281       -0.1030   -0.9870  -12.3710 hc        1 GEL      0.023700
     65 H282       -0.2550   -2.4290  -11.2860 hc        1 GEL      0.023700
     66 H283       -1.4410   -1.0690  -11.1530 hc        1 GEL      0.023700
     67 H31        -0.5890   -1.1230   -1.5230 h1        1 GEL      0.040200
     68 H32        -0.0540   -1.0150    0.2270 h1        1 GEL      0.040200
     69 H311       -4.0500   -1.4630    2.3350 h1        1 GEL      0.024200
     70 H312       -3.3390   -2.9230    1.4920 h1        1 GEL      0.024200
     71 H321       -3.3420   -3.0520    4.0640 h1        1 GEL      0.027200
     72 H322       -1.7230   -3.3070    3.2670 h1        1 GEL      0.027200
     73 HN31       -1.1240   -1.1540    3.8760 hn        1 GEL      0.343800
     74 HN32       -2.5860   -0.7720    4.4400 hn        1 GEL      0.343800
@<TRIPOS>BOND
     1    1    2 1   
     2    1   11 1   
     3    1   32 1   
     4    1   33 1   
     5    2    3 1   
     6    3    4 1   
     7    3   34 1   
     8    3   35 1   
     9    4    5 1   
    10    4   36 1   
    11    4   37 1   
    12    5    6 1   
    13    5   38 1   
    14    5   39 1   
    15    6    7 1   
    16    6   40 1   
    17    6   41 1   
    18    7    8 1   
    19    7   42 1   
    20    7   43 1   
    21    8    9 1   
    22    8   44 1   
    23    8   45 1   
    24    9   10 1   
    25    9   46 1   
    26    9   47 1   
    27   10   48 1   
    28   10   49 1   
    29   10   50 1   
    30   11   12 1   
    31   11   23 1   
    32   11   51 1   
    33   12   13 1   
    34   13   14 1   
    35   13   15 1   
    36   13   16 1   
    37   16   17 1   
    38   16   52 1   
    39   16   53 1   
    40   17   18 1   
    41   17   54 1   
    42   17   55 1   
    43   18   19 1   
    44   18   56 1   
    45   18   57 1   
    46   19   20 1   
    47   19   58 1   
    48   19   59 1   
    49   20   21 1   
    50   20   60 1   
    51   20   61 1   
    52   21   22 1   
    53   21   62 1   
    54   21   63 1   
    55   22   64 1   
    56   22   65 1   
    57   22   66 1   
    58   23   24 1   
    59   23   67 1   
    60   23   68 1   
    61   24   25 1   
    62   25   26 1   
    63   25   27 1   
    64   25   28 1   
    65   28   29 1   
    66   29   30 1   
    67   29   69 1   
    68   29   70 1   
    69   30   31 1   
    70   30   71 1   
    71   30   72 1   
    72   31   73 1   
    73   31   74 1   
@<TRIPOS>SUBSTRUCTURE
     1 GEL         1 TEMP              0 ****  ****    0 ROOT
