@<TRIPOS>MOLECULE
GEL
   75    74     1     0     0
SMALL
bcc


@<TRIPOS>ATOM
      1 C1          0.7120   -0.7420   -1.7640 c3        1 GEL      0.111400
      2 O1         -0.1900   -1.7080   -1.2410 os        1 GEL     -0.471600
      3 C11        -0.6450   -1.4240    0.0860 c3        1 GEL      0.122400
      4 C12        -1.9330   -2.2080    0.2760 c3        1 GEL     -0.089400
      5 C13        -2.4670   -2.0060    1.6760 c3        1 GEL     -0.078400
      6 C14        -3.7520   -2.7770    1.8900 c3        1 GEL     -0.077400
      7 C15        -4.2890   -2.5720    3.2900 c3        1 GEL     -0.079400
      8 C16        -5.5740   -3.3420    3.5050 c3        1 GEL     -0.078400
      9 C17        -6.1130   -3.1380    4.9050 c3        1 GEL     -0.080400
     10 C18        -7.3930   -3.9020    5.1240 c3        1 GEL     -0.091100
     11 C2          2.0520   -0.6000   -1.0290 c3        1 GEL      0.162100
     12 O2          1.8580   -0.2740    0.3030 os        1 GEL     -0.574200
     13 P2          2.4010    1.2500    0.7750 p5        1 GEL      1.340600
     14 O1P         1.2250    2.1310    0.6050 o         1 GEL     -0.858500
     15 O2P         3.6540    1.4410    0.0080 o         1 GEL     -0.858500
     16 C22         2.7090    0.9350    2.4030 c3        1 GEL     -0.335600
     17 C23         3.1110    2.2470    3.0130 c3        1 GEL     -0.071400
     18 C24         3.4140    2.1410    4.4900 c3        1 GEL     -0.068400
     19 C25         3.8190    3.4800    5.0680 c3        1 GEL     -0.080400
     20 C26         4.1220    3.3740    6.5480 c3        1 GEL     -0.078400
     21 C27         4.5290    4.7130    7.1260 c3        1 GEL     -0.081400
     22 C28         4.8320    4.6130    8.5990 c3        1 GEL     -0.090100
     23 C3          2.9670   -1.8290   -1.1680 c3        1 GEL      0.151400
     24 O3          2.4450   -2.9820   -0.5310 os        1 GEL     -0.566200
     25 P3          2.2400   -4.2990   -1.3890 p5        1 GEL      1.618500
     26 O3P         0.6720   -4.5380   -1.2410 oh        1 GEL     -0.785400
     27 O4P         2.7900   -4.3690   -2.7370 o         1 GEL     -0.823300
     28 O5P         2.7650   -5.4800   -0.4250 os        1 GEL     -0.559200
     29 C31         2.7860   -6.7770   -0.9740 c3        1 GEL      0.133400
     30 C32         1.7990   -7.6940   -0.2310 c3        1 GEL      0.135800
     31 N3          0.4020   -7.3590   -0.2940 n3        1 GEL     -0.906800
     32 H11         0.2030    0.2600   -1.7800 h1        1 GEL      0.048200
     33 H12         0.8920   -1.0970   -2.8150 h1        1 GEL      0.048200
     34 H111        0.1520   -1.7550    0.8050 h1        1 GEL      0.068200
     35 H112       -0.8120   -0.3230    0.2130 h1        1 GEL      0.068200
     36 H121       -1.7420   -3.2970    0.0890 hc        1 GEL      0.037700
     37 H122       -2.6910   -1.8720   -0.4790 hc        1 GEL      0.037700
     38 H131       -2.6480   -0.9130    1.8540 hc        1 GEL      0.046700
     39 H132       -1.6990   -2.3390    2.4230 hc        1 GEL      0.046700
     40 H141       -3.5700   -3.8690    1.7120 hc        1 GEL      0.036200
     41 H142       -4.5190   -2.4450    1.1410 hc        1 GEL      0.036200
     42 H151       -4.4710   -1.4790    3.4670 hc        1 GEL      0.040700
     43 H152       -3.5220   -2.9040    4.0380 hc        1 GEL      0.040700
     44 H161       -5.3920   -4.4350    3.3290 hc        1 GEL      0.037200
     45 H162       -6.3410   -3.0110    2.7560 hc        1 GEL      0.037200
     46 H171       -6.2920   -2.0440    5.0800 hc        1 GEL      0.038700
     47 H172       -5.3440   -3.4690    5.6520 hc        1 GEL      0.038700
     48 H181       -7.2280   -4.9970    4.9780 hc        1 GEL      0.029033
     49 H182       -7.7720   -3.7380    6.1610 hc        1 GEL      0.029033
     50 H183       -8.1790   -3.5690    4.4040 hc        1 GEL      0.029033
     51 H2          2.6210    0.2390   -1.5500 h1        1 GEL      0.074700
     52 H221        1.8080    0.5240    2.9140 hc        1 GEL      0.069700
     53 H222        3.5210    0.1800    2.5260 hc        1 GEL      0.069700
     54 H231        2.2790    2.9840    2.8400 hc        1 GEL      0.054700
     55 H232        4.0140    2.6290    2.4620 hc        1 GEL      0.054700
     56 H241        4.2370    1.3960    4.6510 hc        1 GEL      0.031700
     57 H242        2.5090    1.7560    5.0300 hc        1 GEL      0.031700
     58 H251        2.9950    4.2240    4.9050 hc        1 GEL      0.039200
     59 H252        4.7230    3.8650    4.5260 hc        1 GEL      0.039200
     60 H261        4.9450    2.6300    6.7100 hc        1 GEL      0.035200
     61 H262        3.2180    2.9900    7.0900 hc        1 GEL      0.035200
     62 H271        5.4310    5.0960    6.5810 hc        1 GEL      0.037700
     63 H272        3.7040    5.4560    6.9610 hc        1 GEL      0.037700
     64 H281        5.1290    5.6100    9.0050 hc        1 GEL      0.026700
     65 H282        3.9360    4.2550    9.1620 hc        1 GEL      0.026700
     66 H283        5.6680    3.8940    8.7810 hc        1 GEL      0.026700
     67 H31         3.1430   -2.0560   -2.2550 h1        1 GEL      0.056700
     68 H32         3.9410   -1.5900   -0.6530 h1        1 GEL      0.056700
     69 H311        2.5560   -6.7290   -2.0740 h1        1 GEL      0.046700
     70 H312        3.8260   -7.1820   -0.8290 h1        1 GEL      0.046700
     71 H321        1.9270   -8.7270   -0.6650 h1        1 GEL      0.051200
     72 H322        2.1040   -7.7250    0.8520 h1        1 GEL      0.051200
     73 HN31        0.2090   -6.5350    0.2430 hn        1 GEL      0.355300
     74 HN32        0.1460   -3.7830   -0.9630 ho        1 GEL      0.506000
     75 H33         0.1180   -7.1840   -1.2390 hn        1 GEL      0.355300
@<TRIPOS>BOND
     1    1    2 1   
     2    1   11 1   
     3    1   32 1   
     4    1   33 1   
     5    2    3 1   
     6    3    4 1   
     7    3   34 1   
     8    3   35 1   
     9    4    5 1   
    10    4   36 1   
    11    4   37 1   
    12    5    6 1   
    13    5   38 1   
    14    5   39 1   
    15    6    7 1   
    16    6   40 1   
    17    6   41 1   
    18    7    8 1   
    19    7   42 1   
    20    7   43 1   
    21    8    9 1   
    22    8   44 1   
    23    8   45 1   
    24    9   10 1   
    25    9   46 1   
    26    9   47 1   
    27   10   48 1   
    28   10   49 1   
    29   10   50 1   
    30   11   12 1   
    31   11   23 1   
    32   11   51 1   
    33   12   13 1   
    34   13   14 1   
    35   13   15 1   
    36   13   16 1   
    37   16   17 1   
    38   16   52 1   
    39   16   53 1   
    40   17   18 1   
    41   17   54 1   
    42   17   55 1   
    43   18   19 1   
    44   18   56 1   
    45   18   57 1   
    46   19   20 1   
    47   19   58 1   
    48   19   59 1   
    49   20   21 1   
    50   20   60 1   
    51   20   61 1   
    52   21   22 1   
    53   21   62 1   
    54   21   63 1   
    55   22   64 1   
    56   22   65 1   
    57   22   66 1   
    58   23   24 1   
    59   23   67 1   
    60   23   68 1   
    61   24   25 1   
    62   25   26 1   
    63   25   27 2   
    64   25   28 1   
    65   26   74 1   
    66   28   29 1   
    67   29   30 1   
    68   29   69 1   
    69   29   70 1   
    70   30   31 1   
    71   30   71 1   
    72   30   72 1   
    73   31   73 1   
    74   31   75 1   
@<TRIPOS>SUBSTRUCTURE
     1 GEL         1 TEMP              0 ****  ****    0 ROOT
