@<TRIPOS>MOLECULE
GEL
   74    73     1     0     0
SMALL
bcc


@<TRIPOS>ATOM
      1 C1         -1.2750   -1.4760   -0.4940 c3        1 GEL      0.112400
      2 O1         -1.9030   -0.4060   -1.2130 os        1 GEL     -0.423600
      3 C11        -3.3450   -0.5630   -1.3610 c3        1 GEL      0.153400
      4 C12        -3.9800    0.8050   -1.7720 c3        1 GEL     -0.144400
      5 C13        -5.5080    0.6450   -1.8860 c3        1 GEL     -0.060400
      6 C14        -6.1890    2.0190   -1.6960 c3        1 GEL     -0.084400
      7 C15        -7.6680    1.9000   -2.0280 c3        1 GEL     -0.076400
      8 C16        -8.4560    2.9580   -1.2460 c3        1 GEL     -0.080400
      9 C17        -9.8860    3.0320   -1.7870 c3        1 GEL     -0.079400
     10 C18       -10.7360    3.8870   -0.8590 c3        1 GEL     -0.090100
     11 C2          0.2270   -1.4080   -0.6920 c3        1 GEL      0.173100
     12 O2          0.8610   -1.5310    0.5370 os        1 GEL     -0.601200
     13 P2          1.7740   -0.3390    1.0430 p5        1 GEL      1.355600
     14 O1P         0.9530    0.9230    1.1250 o         1 GEL     -0.868500
     15 O2P         2.9170   -0.1350    0.0770 o         1 GEL     -0.868500
     16 C22         2.4410   -0.7470    2.7050 c3        1 GEL     -0.328600
     17 C23         3.3530    0.3700    3.1760 c3        1 GEL     -0.067400
     18 C24         4.0300   -0.0450    4.5180 c3        1 GEL     -0.069400
     19 C25         5.0700    1.0030    4.9140 c3        1 GEL     -0.079400
     20 C26         5.8410    0.5170    6.1720 c3        1 GEL     -0.078400
     21 C27         7.0080    1.4830    6.4650 c3        1 GEL     -0.081400
     22 C28         7.8080    0.9710    7.6810 c3        1 GEL     -0.089100
     23 C3          0.6750   -2.5570   -1.6180 c3        1 GEL      0.161400
     24 O3          1.8420   -2.1630   -2.3380 os        1 GEL     -0.586200
     25 P3          2.3770   -3.1240   -3.5190 p5        1 GEL      1.422800
     26 O3P         1.3340   -3.2060   -4.6140 o         1 GEL     -0.832000
     27 O4P         2.6370   -4.5140   -2.9630 o         1 GEL     -0.832000
     28 O5P         3.7310   -2.5280   -4.1180 os        1 GEL     -0.570200
     29 C31         4.3010   -3.1540   -5.2670 c3        1 GEL      0.167400
     30 C32         5.7300   -2.5950   -5.5060 c3        1 GEL      0.109800
     31 N3          6.2030   -3.0210   -6.8000 n3        1 GEL     -0.907800
     32 H11        -1.4810   -1.3940    0.4560 h1        1 GEL      0.042700
     33 H12        -1.6100   -2.3350   -0.8280 h1        1 GEL      0.042700
     34 H111       -3.5310   -1.2310   -2.0550 h1        1 GEL      0.009700
     35 H112       -3.7290   -0.8590   -0.5130 h1        1 GEL      0.009700
     36 H121       -3.7720    1.4790   -1.0930 hc        1 GEL      0.098700
     37 H122       -3.6140    1.0890   -2.6390 hc        1 GEL      0.098700
     38 H131       -5.7330    0.2890   -2.7720 hc        1 GEL      0.013200
     39 H132       -5.8240    0.0270   -1.1960 hc        1 GEL      0.013200
     40 H141       -5.7740    2.6720   -2.2890 hc        1 GEL      0.057200
     41 H142       -6.0850    2.3090   -0.7670 hc        1 GEL      0.057200
     42 H151       -7.9880    1.0060   -1.7800 hc        1 GEL      0.026200
     43 H152       -7.7980    2.0370   -2.9790 hc        1 GEL      0.026200
     44 H161       -8.0230    3.8290   -1.3490 hc        1 GEL      0.043200
     45 H162       -8.4780    2.7130   -0.2900 hc        1 GEL      0.043200
     46 H171       -9.8780    3.4260   -2.6720 hc        1 GEL      0.031200
     47 H172      -10.2650    2.1240   -1.8360 hc        1 GEL      0.031200
     48 H181      -11.6240    4.0220   -1.2580 hc        1 GEL      0.025367
     49 H182      -10.3030    4.7530   -0.7280 hc        1 GEL      0.025367
     50 H183      -10.8310    3.4340    0.0080 hc        1 GEL      0.025367
     51 H2          0.4660   -0.5460   -1.1000 h1        1 GEL      0.084700
     52 H221        1.7090   -0.8490    3.3290 hc        1 GEL      0.062200
     53 H222        2.9490   -1.5860    2.6580 hc        1 GEL      0.062200
     54 H231        2.8310    1.1790    3.3130 hc        1 GEL      0.054200
     55 H232        4.0450    0.5370    2.4970 hc        1 GEL      0.054200
     56 H241        3.3550   -0.1100    5.2150 hc        1 GEL      0.029200
     57 H242        4.4740   -0.9260    4.4060 hc        1 GEL      0.029200
     58 H251        5.7040    1.1340    4.1700 hc        1 GEL      0.036700
     59 H252        4.6250    1.8430    5.1120 hc        1 GEL      0.036700
     60 H261        6.1970   -0.3910    6.0100 hc        1 GEL      0.034200
     61 H262        5.2370    0.4980    6.9350 hc        1 GEL      0.034200
     62 H271        6.6540    2.3700    6.6590 hc        1 GEL      0.035700
     63 H272        7.6010    1.5310    5.6770 hc        1 GEL      0.035700
     64 H281        8.0880    0.0410    7.5220 hc        1 GEL      0.023700
     65 H282        8.6100    1.5400    7.8120 hc        1 GEL      0.023700
     66 H283        7.2470    1.0090    8.4780 hc        1 GEL      0.023700
     67 H31         0.8770   -3.3530   -1.0770 h1        1 GEL      0.030700
     68 H32        -0.0350   -2.7640   -2.2440 h1        1 GEL      0.030700
     69 H311        3.7420   -2.9680   -6.0520 h1        1 GEL      0.015200
     70 H312        4.3490   -4.1230   -5.1210 h1        1 GEL      0.015200
     71 H321        5.7080   -1.6140   -5.4720 h1        1 GEL      0.057200
     72 H322        6.3370   -2.9340   -4.8070 h1        1 GEL      0.057200
     73 HN31        6.4980   -2.2860   -7.2780 hn        1 GEL      0.328300
     74 HN32        6.9020   -3.6210   -6.6930 hn        1 GEL      0.328300
@<TRIPOS>BOND
     1    1    2 1   
     2    1   11 1   
     3    1   32 1   
     4    1   33 1   
     5    2    3 1   
     6    3    4 1   
     7    3   34 1   
     8    3   35 1   
     9    4    5 1   
    10    4   36 1   
    11    4   37 1   
    12    5    6 1   
    13    5   38 1   
    14    5   39 1   
    15    6    7 1   
    16    6   40 1   
    17    6   41 1   
    18    7    8 1   
    19    7   42 1   
    20    7   43 1   
    21    8    9 1   
    22    8   44 1   
    23    8   45 1   
    24    9   10 1   
    25    9   46 1   
    26    9   47 1   
    27   10   48 1   
    28   10   49 1   
    29   10   50 1   
    30   11   12 1   
    31   11   23 1   
    32   11   51 1   
    33   12   13 1   
    34   13   14 1   
    35   13   15 1   
    36   13   16 1   
    37   16   17 1   
    38   16   52 1   
    39   16   53 1   
    40   17   18 1   
    41   17   54 1   
    42   17   55 1   
    43   18   19 1   
    44   18   56 1   
    45   18   57 1   
    46   19   20 1   
    47   19   58 1   
    48   19   59 1   
    49   20   21 1   
    50   20   60 1   
    51   20   61 1   
    52   21   22 1   
    53   21   62 1   
    54   21   63 1   
    55   22   64 1   
    56   22   65 1   
    57   22   66 1   
    58   23   24 1   
    59   23   67 1   
    60   23   68 1   
    61   24   25 1   
    62   25   26 1   
    63   25   27 1   
    64   25   28 1   
    65   28   29 1   
    66   29   30 1   
    67   29   69 1   
    68   29   70 1   
    69   30   31 1   
    70   30   71 1   
    71   30   72 1   
    72   31   73 1   
    73   31   74 1   
@<TRIPOS>SUBSTRUCTURE
     1 GEL         1 TEMP              0 ****  ****    0 ROOT
