@<TRIPOS>MOLECULE
GEM
   26    25     1     0     0
SMALL
bcc


@<TRIPOS>ATOM
      1 C8          1.7050    0.0510   -0.0620 c3        1 GEM     -0.015600
      2 S7         -0.0690   -0.2840   -0.2930 ss        1 GEM     -0.393200
      3 C6         -0.3420   -1.8260    0.5170 c3        1 GEM     -0.055300
      4 C5         -1.6980   -1.7660    1.2030 c3        1 GEM      0.201800
      5 N3         -2.0200   -2.9800    1.9310 nh        1 GEM     -0.848200
      6 C1         -3.3810   -3.3270    2.1310 c2        1 GEM      0.753100
      7 N4         -3.6250   -4.7240    2.4160 nh        1 GEM     -0.885800
      8 N2         -4.4120   -2.5090    2.1320 n2        1 GEM     -0.930100
      9 C9          2.0860    0.0300    1.4250 c         1 GEM      0.908600
     10 O14         2.2740    1.1060    2.0620 o         1 GEM     -0.861800
     11 O15         2.2160   -1.1090    1.9820 o         1 GEM     -0.861800
     12 C10         1.9170    1.3670   -0.7630 c3        1 GEM     -0.170400
     13 C11         2.5020    1.2720   -2.1780 c         1 GEM      0.905600
     14 O12         3.1460    0.2470   -2.5500 o         1 GEM     -0.877300
     15 O13         2.3370    2.2750   -2.9430 o         1 GEM     -0.877300
     16 HC8         2.2730   -0.7590   -0.5860 h1        1 GEM      0.093700
     17 HC61       -0.3230   -2.6510   -0.2350 h1        1 GEM      0.087200
     18 HC62        0.4880   -2.0020    1.2600 h1        1 GEM      0.087200
     19 HC51       -2.4840   -1.5420    0.4240 h1        1 GEM      0.046200
     20 HC52       -1.6960   -0.9190    1.9490 h1        1 GEM      0.046200
     21 HN3        -1.4030   -3.7380    1.7310 hn        1 GEM      0.407800
     22 HN41       -2.9610   -5.0890    3.0690 hn        1 GEM      0.372300
     23 HN42       -4.5570   -4.8770    2.7440 hn        1 GEM      0.372300
     24 HN21       -4.2110   -1.5770    1.8430 hn        1 GEM      0.396400
     25 H101        0.9500    1.9360   -0.8250 hc        1 GEM      0.048700
     26 H102        2.6190    1.9900   -0.1460 hc        1 GEM      0.048700
@<TRIPOS>BOND
     1    1    2 1   
     2    1    9 1   
     3    1   12 1   
     4    1   16 1   
     5    2    3 1   
     6    3    4 1   
     7    3   17 1   
     8    3   18 1   
     9    4    5 1   
    10    4   19 1   
    11    4   20 1   
    12    5    6 1   
    13    5   21 1   
    14    6    7 1   
    15    6    8 2   
    16    7   22 1   
    17    7   23 1   
    18    8   24 1   
    19    9   10 1   
    20    9   11 1   
    21   12   13 1   
    22   12   25 1   
    23   12   26 1   
    24   13   14 1   
    25   13   15 1   
@<TRIPOS>SUBSTRUCTURE
     1 GEM         1 TEMP              0 ****  ****    0 ROOT
