@<TRIPOS>MOLECULE
GEM
   26    24     1     0     0
SMALL
bcc


@<TRIPOS>ATOM
      1 C8          2.2090    1.1240    0.2170 c3        1 GEM     -0.011600
      2 S7          0.4250    1.1460    0.1690 ss        1 GEM     -0.396200
      3 C6         -0.1910   -0.5320   -0.0060 c3        1 GEM     -0.040300
      4 C5         -1.7170   -0.5010   -0.2340 c3        1 GEM      0.197800
      5 N3         -2.2570   -1.8400   -0.0920 nh        1 GEM     -0.778000
      6 C1         -3.6680   -2.0820   -0.3290 c2        1 GEM      0.346000
      7 N4         -4.4590   -2.7610    0.6620 nh        1 GEM     -0.828600
      8 N2         -4.2230   -1.6820   -1.4490 n1        1 GEM     -0.408000
      9 C9          2.6740    1.3730    1.6200 c         1 GEM      0.903600
     10 O14         2.1540    2.2980    2.3000 o         1 GEM     -0.874800
     11 O15         3.5380    0.6320    2.1320 o         1 GEM     -0.874800
     12 C10         2.7530    2.2070   -0.6960 c3        1 GEM     -0.169400
     13 C11         4.2530    2.3220   -0.5090 c         1 GEM      0.906600
     14 O12         4.7330    3.2710    0.1780 o         1 GEM     -0.873800
     15 O13         5.0180    1.5330   -1.1070 o         1 GEM     -0.873800
     16 HC8         2.5330    0.2480   -0.0850 h1        1 GEM      0.099700
     17 HC61        0.2470   -0.9630   -0.7760 h1        1 GEM      0.070700
     18 HC62        0.0070   -1.0390    0.8090 h1        1 GEM      0.070700
     19 HC51       -1.9070   -0.1670   -1.1370 h1        1 GEM      0.023700
     20 HC52       -2.1320    0.0880    0.4250 h1        1 GEM      0.023700
     21 HN3        -1.7120   -2.5250    0.1270 hn        1 GEM      0.435800
     22 HN41       -4.0650   -3.0850    1.4160 hn        1 GEM      0.421300
     23 HN42       -5.3760   -2.8540    0.5400 hn        1 GEM      0.421300
     24 HN21       -3.7250   -1.2530   -2.0750 DU        1 GEM      0.113000
     25 H101        2.5580    1.9790   -1.6230 hc        1 GEM      0.048700
     26 H102        2.3300    3.0640   -0.4750 hc        1 GEM      0.048700
@<TRIPOS>BOND
     1    1    2 1   
     2    1    9 1   
     3    1   12 1   
     4    1   16 1   
     5    2    3 1   
     6    3    4 1   
     7    3   17 1   
     8    3   18 1   
     9    4    5 1   
    10    4   19 1   
    11    4   20 1   
    12    5    6 1   
    13    5   21 1   
    14    6    7 1   
    15    6    8 2   
    16    7   22 1   
    17    7   23 1   
    18    9   10 1   
    19    9   11 1   
    20   12   13 1   
    21   12   25 1   
    22   12   26 1   
    23   13   14 1   
    24   13   15 1   
@<TRIPOS>SUBSTRUCTURE
     1 GEM         1 TEMP              0 ****  ****    0 ROOT
