@<TRIPOS>MOLECULE
GEM
   26    25     1     0     0
SMALL
bcc


@<TRIPOS>ATOM
      1 C8         -0.3660    0.3120   -1.6750 c3        1 GEM     -0.016600
      2 S7          1.0170    0.0730   -0.5160 ss        1 GEM     -0.396200
      3 C6          0.5260    0.9330    0.9420 c3        1 GEM     -0.043300
      4 C5          0.6090   -0.0150    2.1300 c3        1 GEM      0.187800
      5 N3          0.0600    0.5730    3.3420 nh        1 GEM     -0.842200
      6 C1          0.0190   -0.2390    4.5150 c2        1 GEM      0.751100
      7 N4         -0.8360    0.2560    5.5670 nh        1 GEM     -0.883800
      8 N2          0.7070   -1.3350    4.7500 n2        1 GEM     -0.929100
      9 C9         -1.7000   -0.1090   -1.0410 c         1 GEM      0.907600
     10 O14        -2.2460   -1.2060   -1.3470 o         1 GEM     -0.862800
     11 O15        -2.2330    0.6930   -0.2050 o         1 GEM     -0.862800
     12 C10         0.0400   -0.4680   -2.8970 c3        1 GEM     -0.170400
     13 C11         0.6510    0.3620   -4.0330 c         1 GEM      0.905600
     14 O12         0.4240    1.6050   -4.1280 o         1 GEM     -0.877300
     15 O13         1.3650   -0.2560   -4.8860 o         1 GEM     -0.877300
     16 HC8        -0.4180    1.4040   -1.9170 h1        1 GEM      0.093700
     17 HC61       -0.5250    1.3130    0.8010 h1        1 GEM      0.086200
     18 HC62        1.2040    1.8050    1.0990 h1        1 GEM      0.086200
     19 HC51        1.6910   -0.2620    2.3280 h1        1 GEM      0.045200
     20 HC52        0.0740   -0.9730    1.8600 h1        1 GEM      0.045200
     21 HN3        -0.7900    1.0710    3.1560 hn        1 GEM      0.412800
     22 HN41       -0.6460   -0.1820    6.4440 hn        1 GEM      0.373800
     23 HN42       -0.8000    1.2510    5.6480 hn        1 GEM      0.373800
     24 HN21        1.1880   -1.7080    3.9610 hn        1 GEM      0.395400
     25 H101        0.7750   -1.2710   -2.6200 hc        1 GEM      0.048200
     26 H102       -0.8670   -0.9880   -3.3070 hc        1 GEM      0.048200
@<TRIPOS>BOND
     1    1    2 1   
     2    1    9 1   
     3    1   12 1   
     4    1   16 1   
     5    2    3 1   
     6    3    4 1   
     7    3   17 1   
     8    3   18 1   
     9    4    5 1   
    10    4   19 1   
    11    4   20 1   
    12    5    6 1   
    13    5   21 1   
    14    6    7 1   
    15    6    8 2   
    16    7   22 1   
    17    7   23 1   
    18    8   24 1   
    19    9   10 1   
    20    9   11 1   
    21   12   13 1   
    22   12   25 1   
    23   12   26 1   
    24   13   14 1   
    25   13   15 1   
@<TRIPOS>SUBSTRUCTURE
     1 GEM         1 TEMP              0 ****  ****    0 ROOT
