@<TRIPOS>MOLECULE
GEN
   30    32     1     0     0
SMALL
bcc


@<TRIPOS>ATOM
      1 C1         -0.1140   -0.1710   -0.0260 ca        1 GEN     -0.229000
      2 C2          1.2790   -0.3120   -0.0550 ca        1 GEN      0.216100
      3 O2          1.8400   -0.5320   -1.2870 oh        1 GEN     -0.484100
      4 C3          2.0500   -0.2310    1.1140 ca        1 GEN     -0.348000
      5 C4          1.4100   -0.0020    2.3380 ca        1 GEN      0.247100
      6 O4          2.1100    0.0860    3.5080 oh        1 GEN     -0.447100
      7 C5          0.0040    0.1490    2.4190 ca        1 GEN     -0.278600
      8 C6         -0.6810    0.3960    3.6960 c         1 GEN      0.603900
      9 O6         -0.0740    0.5390    4.7640 o         1 GEN     -0.522100
     10 C7         -2.1530    0.4660    3.5840 cc        1 GEN     -0.188400
     11 C8         -2.7490    0.3710    2.3720 cd        1 GEN      0.067100
     12 O9         -2.0970    0.1860    1.1750 os        1 GEN     -0.216200
     13 C10        -0.7200    0.0560    1.2170 ca        1 GEN      0.202100
     14 C11        -2.9690    0.6340    4.7820 ca        1 GEN     -0.076800
     15 C12        -4.1890   -0.0520    4.9000 ca        1 GEN     -0.074000
     16 C13        -4.9940    0.1070    6.0210 ca        1 GEN     -0.188000
     17 C14        -4.5710    0.9670    7.0480 ca        1 GEN      0.130100
     18 O14        -5.4100    1.0890    8.1320 oh        1 GEN     -0.497100
     19 C15        -3.3520    1.6520    6.9520 ca        1 GEN     -0.188000
     20 C16        -2.5580    1.4800    5.8220 ca        1 GEN     -0.074000
     21 H1         -0.7110   -0.2360   -0.9450 ha        1 GEN      0.175000
     22 H2          2.7990   -0.6130   -1.1740 ho        1 GEN      0.427000
     23 H3          3.1420   -0.3460    1.0700 ha        1 GEN      0.143000
     24 H4          3.0520   -0.0390    3.3100 ho        1 GEN      0.421000
     25 H8         -3.8330    0.4330    2.1740 h4        1 GEN      0.184000
     26 H12        -4.5110   -0.7360    4.1000 ha        1 GEN      0.144000
     27 H13        -5.9490   -0.4280    6.1200 ha        1 GEN      0.143000
     28 H14        -4.9880    1.6840    8.7690 ho        1 GEN      0.420000
     29 H15        -3.0220    2.3160    7.7630 ha        1 GEN      0.143000
     30 H16        -1.5890    2.0010    5.7500 ha        1 GEN      0.144000
@<TRIPOS>BOND
     1    1    2 ar  
     2    1   13 ar  
     3    1   21 1   
     4    2    3 1   
     5    2    4 ar  
     6    3   22 1   
     7    4    5 ar  
     8    4   23 1   
     9    5    6 1   
    10    5    7 ar  
    11    6   24 1   
    12    7    8 1   
    13    7   13 ar  
    14    8    9 2   
    15    8   10 1   
    16   10   11 2   
    17   10   14 1   
    18   11   12 1   
    19   11   25 1   
    20   12   13 1   
    21   14   15 ar  
    22   14   20 ar  
    23   15   16 ar  
    24   15   26 1   
    25   16   17 ar  
    26   16   27 1   
    27   17   18 1   
    28   17   19 ar  
    29   18   28 1   
    30   19   20 ar  
    31   19   29 1   
    32   20   30 1   
@<TRIPOS>SUBSTRUCTURE
     1 GEN         1 TEMP              0 ****  ****    0 ROOT
