@<TRIPOS>MOLECULE
GEN
   30    32     1     0     0
SMALL
bcc


@<TRIPOS>ATOM
      1 C1         -0.1200   -0.1830   -0.0260 ca        1 GEN     -0.229000
      2 C2          1.2730   -0.3260   -0.0570 ca        1 GEN      0.216100
      3 O2          1.8310   -0.5510   -1.2890 oh        1 GEN     -0.484100
      4 C3          2.0460   -0.2420    1.1100 ca        1 GEN     -0.348000
      5 C4          1.4080   -0.0090    2.3350 ca        1 GEN      0.247100
      6 O4          2.1100    0.0830    3.5030 oh        1 GEN     -0.447100
      7 C5          0.0030    0.1440    2.4180 ca        1 GEN     -0.278600
      8 C6         -0.6800    0.3960    3.6940 c         1 GEN      0.603900
      9 O6         -0.0710    0.5420    4.7610 o         1 GEN     -0.522100
     10 C7         -2.1530    0.4670    3.5840 cc        1 GEN     -0.188400
     11 C8         -2.7500    0.3690    2.3730 cd        1 GEN      0.067100
     12 O9         -2.1010    0.1790    1.1770 os        1 GEN     -0.216200
     13 C10        -0.7230    0.0480    1.2170 ca        1 GEN      0.202100
     14 C11        -2.9670    0.6390    4.7840 ca        1 GEN     -0.076800
     15 C12        -4.1880   -0.0450    4.9060 ca        1 GEN     -0.074000
     16 C13        -4.9910    0.1180    6.0270 ca        1 GEN     -0.188000
     17 C14        -4.5650    0.9800    7.0510 ca        1 GEN      0.130100
     18 O14        -5.4020    1.1070    8.1360 oh        1 GEN     -0.497100
     19 C15        -3.3450    1.6640    6.9500 ca        1 GEN     -0.188000
     20 C16        -2.5530    1.4880    5.8200 ca        1 GEN     -0.074000
     21 H1         -0.7180   -0.2500   -0.9440 ha        1 GEN      0.175000
     22 H2          2.7910   -0.6320   -1.1770 ho        1 GEN      0.427000
     23 H3          3.1370   -0.3580    1.0650 ha        1 GEN      0.143000
     24 H4          3.0510   -0.0440    3.3040 ho        1 GEN      0.421000
     25 H8         -3.8350    0.4320    2.1770 h4        1 GEN      0.184000
     26 H12        -4.5110   -0.7310    4.1080 ha        1 GEN      0.144000
     27 H13        -5.9450   -0.4160    6.1290 ha        1 GEN      0.143000
     28 H14        -4.9790    1.7040    8.7700 ho        1 GEN      0.420000
     29 H15        -3.0140    2.3300    7.7590 ha        1 GEN      0.143000
     30 H16        -1.5840    2.0080    5.7450 ha        1 GEN      0.144000
@<TRIPOS>BOND
     1    1    2 ar  
     2    1   13 ar  
     3    1   21 1   
     4    2    3 1   
     5    2    4 ar  
     6    3   22 1   
     7    4    5 ar  
     8    4   23 1   
     9    5    6 1   
    10    5    7 ar  
    11    6   24 1   
    12    7    8 1   
    13    7   13 ar  
    14    8    9 2   
    15    8   10 1   
    16   10   11 2   
    17   10   14 1   
    18   11   12 1   
    19   11   25 1   
    20   12   13 1   
    21   14   15 ar  
    22   14   20 ar  
    23   15   16 ar  
    24   15   26 1   
    25   16   17 ar  
    26   16   27 1   
    27   17   18 1   
    28   17   19 ar  
    29   18   28 1   
    30   19   20 ar  
    31   19   29 1   
    32   20   30 1   
@<TRIPOS>SUBSTRUCTURE
     1 GEN         1 TEMP              0 ****  ****    0 ROOT
