@<TRIPOS>MOLECULE
GEN
   30    32     1     0     0
SMALL
bcc


@<TRIPOS>ATOM
      1 C1         -1.4550    0.1620   -3.4020 ca        1 GEN     -0.231000
      2 C2         -0.4580    0.1710   -4.3900 ca        1 GEN      0.216100
      3 O2         -0.8950    0.1740   -5.6890 oh        1 GEN     -0.484100
      4 C3          0.9010    0.1750   -4.0600 ca        1 GEN     -0.298000
      5 C4          1.2820    0.1720   -2.7080 ca        1 GEN      0.268100
      6 O4          2.6290    0.1770   -2.5060 oh        1 GEN     -0.497100
      7 C5          0.3130    0.1650   -1.6740 ca        1 GEN     -0.334600
      8 C6          0.6610    0.1700   -0.2510 c         1 GEN      0.614900
      9 O6          1.8410    0.2310    0.1420 o         1 GEN     -0.587100
     10 C7         -0.4840    0.1050    0.6720 cc        1 GEN     -0.193400
     11 C8         -1.7480    0.1090    0.1810 cd        1 GEN      0.081100
     12 O9         -2.0800    0.1490   -1.1480 os        1 GEN     -0.214200
     13 C10        -1.0420    0.1580   -2.0670 ca        1 GEN      0.204100
     14 C11        -0.2630    0.0310    2.1130 ca        1 GEN     -0.077800
     15 C12        -1.0780   -0.7980    2.9030 ca        1 GEN     -0.073000
     16 C13        -0.9030   -0.8700    4.2790 ca        1 GEN     -0.187500
     17 C14         0.1080   -0.1020    4.8790 ca        1 GEN      0.131100
     18 O14         0.2320   -0.2100    6.2450 oh        1 GEN     -0.496100
     19 C15         0.9360    0.7230    4.1050 ca        1 GEN     -0.187500
     20 C16         0.7470    0.7830    2.7280 ca        1 GEN     -0.073000
     21 H1         -2.5190    0.1580   -3.6700 ha        1 GEN      0.175000
     22 H2         -0.1190    0.1790   -6.2710 ho        1 GEN      0.431000
     23 H3          1.6790    0.1800   -4.8370 ha        1 GEN      0.161000
     24 H4          2.8360    0.1650   -1.5550 ho        1 GEN      0.469000
     25 H8         -2.6760    0.0860    0.7790 h4        1 GEN      0.187000
     26 H12        -1.8610   -1.4090    2.4270 ha        1 GEN      0.142500
     27 H13        -1.5360   -1.5180    4.9020 ha        1 GEN      0.144500
     28 H14         0.9740    0.3470    6.5220 ho        1 GEN      0.421000
     29 H15         1.7310    1.3150    4.5800 ha        1 GEN      0.144500
     30 H16         1.4070    1.4150    2.1130 ha        1 GEN      0.142500
@<TRIPOS>BOND
     1    1    2 ar  
     2    1   13 ar  
     3    1   21 1   
     4    2    3 1   
     5    2    4 ar  
     6    3   22 1   
     7    4    5 ar  
     8    4   23 1   
     9    5    6 1   
    10    5    7 ar  
    11    6   24 1   
    12    7    8 1   
    13    7   13 ar  
    14    8    9 2   
    15    8   10 1   
    16   10   11 2   
    17   10   14 1   
    18   11   12 1   
    19   11   25 1   
    20   12   13 1   
    21   14   15 ar  
    22   14   20 ar  
    23   15   16 ar  
    24   15   26 1   
    25   16   17 ar  
    26   16   27 1   
    27   17   18 1   
    28   17   19 ar  
    29   18   28 1   
    30   19   20 ar  
    31   19   29 1   
    32   20   30 1   
@<TRIPOS>SUBSTRUCTURE
     1 GEN         1 TEMP              0 ****  ****    0 ROOT
