@<TRIPOS>MOLECULE
GEO
   29    30     1     0     0
SMALL
bcc


@<TRIPOS>ATOM
      1 O5'         0.0300   -0.7620    0.2980 oh        1 GEO     -0.593800
      2 C5'         1.4420   -0.7760    0.2780 c3        1 GEO      0.115400
      3 C4'         2.0060    0.0280    1.4490 c3        1 GEO      0.106100
      4 O4'         1.5920   -0.5890    2.6810 os        1 GEO     -0.420600
      5 C1'         2.6920   -1.0020    3.4910 c3        1 GEO      0.273500
      6 N1          2.7340   -2.4440    3.6390 n         1 GEO     -0.397000
      7 C6          2.2890   -3.0030    4.8170 cc        1 GEO      0.071600
      8 C5          2.2430   -4.3560    5.0070 cd        1 GEO     -0.416600
      9 C4          2.6540   -5.2220    3.8980 cd        1 GEO      0.766500
     10 N3          3.0610   -4.7170    2.7180 nc        1 GEO     -0.722100
     11 C2          3.1060   -3.3310    2.5520 c         1 GEO      0.850900
     12 O2          3.4740   -2.8000    1.4840 o         1 GEO     -0.635500
     13 N4          2.6190   -6.5810    4.0820 nv        1 GEO     -0.926800
     14 C2'         3.9920   -0.3360    2.8630 c3        1 GEO      0.355600
     15 F1          5.1180   -1.1170    2.8670 f         1 GEO     -0.219800
     16 F2          4.3960    0.7340    3.6340 f         1 GEO     -0.219800
     17 C3'         3.5380    0.1010    1.4250 c3        1 GEO      0.093100
     18 O3'         3.9000    1.4360    1.1570 oh        1 GEO     -0.573800
     19 H5'        -0.2440   -1.1680    1.1310 ho        1 GEO      0.408000
     20 H5'1        1.8290   -1.8300    0.3030 h1        1 GEO      0.073200
     21 H5'2        1.7260   -0.2800   -0.6880 h1        1 GEO      0.073200
     22 H4'         1.5530    1.0600    1.4680 h1        1 GEO      0.101700
     23 H1'         2.5060   -0.5350    4.5070 h2        1 GEO      0.098700
     24 H6          1.9750   -2.3070    5.6190 h4        1 GEO      0.158000
     25 H5          1.9050   -4.7810    5.9580 ha        1 GEO      0.157000
     26 HN41        2.8690   -7.2010    3.3520 hn        1 GEO      0.446800
     27 HN42        2.2830   -6.9420    4.9370 hn        1 GEO      0.446800
     28 H3'         3.9830   -0.6080    0.6750 h1        1 GEO      0.109700
     29 H1          4.8630    1.4870    1.2360 ho        1 GEO      0.420000
@<TRIPOS>BOND
     1    1    2 1   
     2    1   19 1   
     3    2    3 1   
     4    2   20 1   
     5    2   21 1   
     6    3    4 1   
     7    3   17 1   
     8    3   22 1   
     9    4    5 1   
    10    5    6 1   
    11    5   14 1   
    12    5   23 1   
    13    6    7 1   
    14    6   11 1   
    15    7    8 2   
    16    7   24 1   
    17    8    9 1   
    18    8   25 1   
    19    9   10 2   
    20    9   13 1   
    21   10   11 1   
    22   11   12 2   
    23   13   26 1   
    24   13   27 1   
    25   14   15 1   
    26   14   16 1   
    27   14   17 1   
    28   17   18 1   
    29   17   28 1   
    30   18   29 1   
@<TRIPOS>SUBSTRUCTURE
     1 GEO         1 TEMP              0 ****  ****    0 ROOT
