@<TRIPOS>MOLECULE
GEO
   30    31     1     0     0
SMALL
bcc


@<TRIPOS>ATOM
      1 O5'         0.7300   -2.0590    1.1570 oh        1 GEO     -0.603800
      2 C5'         1.5630   -1.1480    0.4710 c3        1 GEO      0.108400
      3 C4'         2.0750   -0.0590    1.4200 c3        1 GEO      0.092100
      4 O4'         1.7230   -0.4120    2.7730 os        1 GEO     -0.391600
      5 C1'         2.8420   -0.8640    3.5130 c3        1 GEO      0.245500
      6 N1          2.8160   -2.3270    3.6670 n         1 GEO     -0.347000
      7 C6          2.1820   -2.8510    4.7590 cc        1 GEO      0.134600
      8 C5          2.0100   -4.2150    4.9400 cd        1 GEO     -0.438600
      9 C4          2.4990   -5.0520    3.8800 cd        1 GEO      0.610500
     10 N3          3.0990   -4.6260    2.7900 nc        1 GEO     -0.609100
     11 C2          3.2730   -3.2170    2.6240 c         1 GEO      0.848900
     12 O2          3.8230   -2.7730    1.6110 o         1 GEO     -0.520500
     13 N4          2.3040   -6.5210    4.0230 n4        1 GEO     -0.802600
     14 C2'         4.1260   -0.2580    2.7930 c3        1 GEO      0.364600
     15 F1          5.2210   -1.0800    2.7700 f         1 GEO     -0.205800
     16 F2          4.5900    0.8210    3.5080 f         1 GEO     -0.205800
     17 C3'         3.5980    0.1450    1.3620 c3        1 GEO      0.103100
     18 O3'         3.8240    1.5090    1.1140 oh        1 GEO     -0.562800
     19 H5'        -0.0190   -1.5580    1.5040 ho        1 GEO      0.413000
     20 H5'1        1.0110   -0.6680   -0.3810 h1        1 GEO      0.076700
     21 H5'2        2.4000   -1.7810    0.0660 h1        1 GEO      0.076700
     22 H4'         1.5400    0.9190    1.2430 h1        1 GEO      0.123700
     23 H1'         2.7370   -0.4020    4.5430 h2        1 GEO      0.126700
     24 H6          1.8040   -2.1370    5.5240 h4        1 GEO      0.200000
     25 H5          1.5190   -4.6060    5.8370 ha        1 GEO      0.185000
     26 HN41        2.7650   -6.8290    4.8870 hn        1 GEO      0.479467
     27 HN42        1.2970   -6.7100    4.0810 hn        1 GEO      0.479467
     28 H3'         4.0960   -0.5100    0.5970 h1        1 GEO      0.105700
     29 H1          4.7820    1.6470    1.0870 ho        1 GEO      0.433000
     30 H43         2.7030   -7.0320    3.2210 hn        1 GEO      0.479467
@<TRIPOS>BOND
     1    1    2 1   
     2    1   19 1   
     3    2    3 1   
     4    2   20 1   
     5    2   21 1   
     6    3    4 1   
     7    3   17 1   
     8    3   22 1   
     9    4    5 1   
    10    5    6 1   
    11    5   14 1   
    12    5   23 1   
    13    6    7 1   
    14    6   11 1   
    15    7    8 2   
    16    7   24 1   
    17    8    9 1   
    18    8   25 1   
    19    9   10 2   
    20    9   13 1   
    21   10   11 1   
    22   11   12 2   
    23   13   26 1   
    24   13   27 1   
    25   13   30 1   
    26   14   15 1   
    27   14   16 1   
    28   14   17 1   
    29   17   18 1   
    30   17   28 1   
    31   18   29 1   
@<TRIPOS>SUBSTRUCTURE
     1 GEO         1 TEMP              0 ****  ****    0 ROOT
