@<TRIPOS>MOLECULE
GEO
   29    28     1     0     0
SMALL
bcc


@<TRIPOS>ATOM
      1 O5'        -2.3580    3.2360   -0.5910 oh        1 GEO     -0.314000
      2 C5'        -0.9450    3.2480   -0.3690 c3        1 GEO     -0.048000
      3 C4'        -0.5840    2.2190    0.7520 c3        1 GEO      0.025000
      4 O4'        -0.9850    1.0530    0.4230 os        1 GEO     -0.241000
      5 C1'         0.0830    0.0390    1.0090 c3        1 GEO      0.121000
      6 N1          0.0550   -1.1880    0.2730 n3        1 GEO     -0.295000
      7 C6         -1.0950   -1.6200   -0.2720 c2        1 GEO      0.070000
      8 C5         -1.1200   -2.8060   -0.9810 c1        1 GEO     -0.342000
      9 C4          0.0290   -3.5390   -1.1280 c1        1 GEO      0.231000
     10 N3          1.1810   -3.1040   -0.5810 n1        1 GEO     -0.294000
     11 C2          1.2060   -1.9260    0.1240 c1        1 GEO      0.361000
     12 O2          2.2530   -1.5340    0.6200 o         1 GEO     -0.337000
     13 N4          0.0190   -4.7420   -1.9150 n3        1 GEO     -0.356000
     14 C2'         1.2650    0.6220    0.8740 c3        1 GEO      0.202000
     15 F1          1.8280    0.2720   -0.2900 f         1 GEO     -0.143500
     16 F2          2.0690    0.2900    1.9010 f         1 GEO     -0.143500
     17 C3'         0.9780    2.0920    0.8920 c3        1 GEO     -0.037000
     18 O3'         1.4000    2.6470    2.0730 oh        1 GEO     -0.301000
     19 H5'        -2.5710    3.8600   -1.2220 ho        1 GEO      0.206000
     20 H5'1       -0.6690    4.1340   -0.0960 h1        1 GEO      0.077500
     21 H5'2       -0.4850    3.0030   -1.1920 h1        1 GEO      0.077500
     22 H4'        -0.9830    2.4880    1.6050 h1        1 GEO      0.159000
     23 H1'        -0.1030   -0.1340    1.9650 h2        1 GEO      0.176000
     24 H6         -1.9340   -1.0840   -0.1650 h4        1 GEO      0.185000
     25 H5         -1.9730   -3.1290   -1.3860 ha        1 GEO      0.154000
     26 HN41        0.8050   -5.2020   -2.0640 hn        1 GEO      0.232500
     27 HN42       -0.7580   -5.0280   -2.3060 hn        1 GEO      0.232500
     28 H3'         1.4150    2.5260    0.1460 h1        1 GEO      0.116000
     29 H1          1.9790    3.3090    1.9010 ho        1 GEO      0.226000
@<TRIPOS>BOND
     1    1    2 1   
     2    1   19 1   
     3    2    3 1   
     4    2   20 1   
     5    2   21 1   
     6    3    4 1   
     7    3   17 1   
     8    3   22 1   
     9    4    5 1   
    10    5    6 1   
    11    5   14 1   
    12    5   23 1   
    13    6    7 1   
    14    6   11 1   
    15    7    8 1   
    16    7   24 1   
    17    8   25 1   
    18    9   10 1   
    19    9   13 1   
    20   11   12 1   
    21   13   26 1   
    22   13   27 1   
    23   14   15 1   
    24   14   16 1   
    25   14   17 1   
    26   17   18 1   
    27   17   28 1   
    28   18   29 1   
@<TRIPOS>SUBSTRUCTURE
     1 GEO         1 TEMP              0 ****  ****    0 ROOT
