@<TRIPOS>MOLECULE
GEO
   29    30     1     0     0
SMALL
bcc


@<TRIPOS>ATOM
      1 O5'        -2.5310    2.8920   -0.3650 oh        1 GEO     -0.593800
      2 C5'        -2.4010    1.7610    0.4690 c3        1 GEO      0.115400
      3 C4'        -2.4420    0.4740   -0.3540 c3        1 GEO      0.106100
      4 O4'        -1.3240    0.4660   -1.2610 os        1 GEO     -0.420600
      5 C1'        -0.4580   -0.6510   -1.0610 c3        1 GEO      0.273500
      6 N1          0.8550   -0.2330   -0.6090 n         1 GEO     -0.397000
      7 C6          1.8940   -0.2130   -1.5150 cc        1 GEO      0.071600
      8 C5          3.1440    0.2260   -1.1770 cd        1 GEO     -0.416600
      9 C4          3.3580    0.7140    0.1870 cd        1 GEO      0.766500
     10 N3          2.3620    0.7450    1.0930 nc        1 GEO     -0.722100
     11 C2          1.0950    0.2850    0.7260 c         1 GEO      0.850900
     12 O2          0.1310    0.2870    1.5180 o         1 GEO     -0.635500
     13 N4          4.6120    1.1460    0.5390 nh        1 GEO     -0.926800
     14 C2'        -1.2280   -1.6570   -0.1010 c3        1 GEO      0.355600
     15 F1         -0.4560   -2.2910    0.8360 f         1 GEO     -0.219800
     16 F2         -1.7140   -2.7250   -0.8260 f         1 GEO     -0.219800
     17 C3'        -2.3770   -0.7830    0.5200 c3        1 GEO      0.093100
     18 O3'        -3.6220   -1.4360    0.4280 oh        1 GEO     -0.573800
     19 H5'        -1.7860    2.8770   -0.9780 ho        1 GEO      0.408000
     20 H5'1       -3.2920    1.7960    1.1520 h1        1 GEO      0.073200
     21 H5'2       -1.4520    1.8150    1.0670 h1        1 GEO      0.073200
     22 H4'        -3.3560    0.4610   -1.0130 h1        1 GEO      0.101700
     23 H1'        -0.3570   -1.1350   -2.0810 h2        1 GEO      0.098700
     24 H6          1.6770   -0.5780   -2.5380 h4        1 GEO      0.158000
     25 H5          3.9610    0.2150   -1.9070 ha        1 GEO      0.157000
     26 HN41        4.7920    1.5050    1.4440 hn        1 GEO      0.446800
     27 HN42        5.3240    1.1590   -0.1440 hn        1 GEO      0.446800
     28 H3'        -2.1110   -0.5440    1.5860 h1        1 GEO      0.109700
     29 H1         -3.5380   -2.2710    0.9080 ho        1 GEO      0.420000
@<TRIPOS>BOND
     1    1    2 1   
     2    1   19 1   
     3    2    3 1   
     4    2   20 1   
     5    2   21 1   
     6    3    4 1   
     7    3   17 1   
     8    3   22 1   
     9    4    5 1   
    10    5    6 1   
    11    5   14 1   
    12    5   23 1   
    13    6    7 1   
    14    6   11 1   
    15    7    8 2   
    16    7   24 1   
    17    8    9 1   
    18    8   25 1   
    19    9   10 2   
    20    9   13 1   
    21   10   11 1   
    22   11   12 2   
    23   13   26 1   
    24   13   27 1   
    25   14   15 1   
    26   14   16 1   
    27   14   17 1   
    28   17   18 1   
    29   17   28 1   
    30   18   29 1   
@<TRIPOS>SUBSTRUCTURE
     1 GEO         1 TEMP              0 ****  ****    0 ROOT
