@<TRIPOS>MOLECULE
GEP
   52    51     1     0     0
SMALL
bcc


@<TRIPOS>ATOM
      1 N1          0.6540    2.9850    2.5930 n4        1 GEP      0.055000
      2 C2          0.8400    4.0560    1.6330 c3        1 GEP     -0.135500
      3 C3          1.0380    5.4090    2.2980 c3        1 GEP     -0.176000
      4 C4         -0.0140    5.7110    3.2700 c3        1 GEP     -0.171000
      5 C5         -0.2080    4.6230    4.2410 c3        1 GEP     -0.176000
      6 C6         -0.4000    3.2820    3.5720 c3        1 GEP     -0.135500
      7 C7          1.9230    2.7700    3.3150 c3        1 GEP     -0.217000
      8 C8          0.3130    1.7880    1.8930 c3        1 GEP     -0.131000
      9 C9          1.4370    1.4410    0.8640 c3        1 GEP     -0.109000
     10 C10         1.1420    0.0460    0.2240 c2        1 GEP     -0.162000
     11 C11         2.0130   -1.0140    0.4420 c2        1 GEP     -0.100000
     12 C12         1.8230   -2.2210   -0.2240 c1        1 GEP     -0.151000
     13 C13         0.7560   -2.3710   -1.1100 c1        1 GEP      0.117000
     14 C14        -0.1140   -1.3180   -1.3290 c1        1 GEP     -0.162000
     15 C15         0.0780   -0.0990   -0.6590 c1        1 GEP     -0.091000
     16 N16         0.5830   -3.6270   -1.8360 n         1 GEP     -0.299000
     17 C17        -0.4980   -3.7770   -2.7820 c2        1 GEP      0.300000
     18 O18        -1.2570   -2.8670   -2.9760 o         1 GEP     -0.347000
     19 C19        -0.7550   -5.0980   -3.4040 c3        1 GEP     -0.186000
     20 C20        -1.7800   -4.9270   -4.5630 c3        1 GEP     -0.139000
     21 C21        -2.5540   -6.2610   -4.7870 c3        1 GEP     -0.207000
     22 C22        -3.8270   -5.9820   -5.6110 c2        1 GEP      0.327000
     23 O23        -3.9840   -6.5360   -6.7450 o         1 GEP     -0.613000
     24 O24        -4.7500   -5.2800   -5.1230 o         1 GEP     -0.613000
     25 H21         1.6220    3.8570    1.0850 hx        1 GEP      0.141750
     26 H22         0.0350    4.1000    1.0460 hx        1 GEP      0.141750
     27 H31         1.0420    6.1140    1.6020 hc        1 GEP      0.110750
     28 H32         1.9020    5.4110    2.7550 hc        1 GEP      0.110750
     29 H41         0.2250    6.5240    3.7510 hc        1 GEP      0.096500
     30 H42        -0.8760    5.8660    2.7770 hc        1 GEP      0.096500
     31 H51        -0.9850    4.8180    4.7780 hc        1 GEP      0.110750
     32 H52         0.5800    4.5750    4.8280 hc        1 GEP      0.110750
     33 H61        -0.4000    2.5890    4.2540 hx        1 GEP      0.141750
     34 H62        -1.2830    3.2750    3.1060 hx        1 GEP      0.141750
     35 H71         2.6790    2.8290    2.6780 hx        1 GEP      0.154667
     36 H72         1.9160    1.8710    3.7360 hx        1 GEP      0.154667
     37 H73         2.0270    3.4650    4.0190 hx        1 GEP      0.154667
     38 H81         0.2180    1.0340    2.5500 hx        1 GEP      0.150500
     39 H82        -0.5140    1.9120    1.4300 hx        1 GEP      0.150500
     40 H91         2.2830    1.4170    1.3110 hc        1 GEP      0.094500
     41 H92         1.4580    2.1030    0.1800 hc        1 GEP      0.094500
     42 H11         2.7910   -0.8870    0.9820 ha        1 GEP      0.117000
     43 H12         2.5050   -2.9390   -0.1480 ha        1 GEP      0.145000
     44 H14        -0.8020   -1.4000   -1.9770 ha        1 GEP      0.168000
     45 H15        -0.4900    0.6880   -0.8870 ha        1 GEP      0.126000
     46 HN6         1.1560   -4.3470   -1.6660 hn        1 GEP      0.255000
     47 H191       -1.1180   -5.7090   -2.7360 hc        1 GEP      0.106000
     48 H192        0.0900   -5.4630   -3.7580 hc        1 GEP      0.106000
     49 H201       -1.2960   -4.6790   -5.3960 hc        1 GEP      0.087000
     50 H202       -2.4280   -4.2060   -4.3260 hc        1 GEP      0.087000
     51 H211       -2.8130   -6.6560   -3.8950 hc        1 GEP      0.083000
     52 H212       -1.9820   -6.8930   -5.2720 hc        1 GEP      0.083000
@<TRIPOS>BOND
     1    1    2 1   
     2    1    6 1   
     3    1    7 1   
     4    1    8 1   
     5    2    3 1   
     6    2   25 1   
     7    2   26 1   
     8    3    4 1   
     9    3   27 1   
    10    3   28 1   
    11    4    5 1   
    12    4   29 1   
    13    4   30 1   
    14    5    6 1   
    15    5   31 1   
    16    5   32 1   
    17    6   33 1   
    18    6   34 1   
    19    7   35 1   
    20    7   36 1   
    21    7   37 1   
    22    8    9 1   
    23    8   38 1   
    24    8   39 1   
    25    9   10 1   
    26    9   40 1   
    27    9   41 1   
    28   10   11 1   
    29   10   15 1   
    30   11   12 1   
    31   11   42 1   
    32   12   43 1   
    33   13   14 1   
    34   13   16 1   
    35   14   44 1   
    36   15   45 1   
    37   16   17 1   
    38   16   46 1   
    39   17   18 1   
    40   17   19 1   
    41   19   20 1   
    42   19   47 1   
    43   19   48 1   
    44   20   21 1   
    45   20   49 1   
    46   20   50 1   
    47   21   22 1   
    48   21   51 1   
    49   21   52 1   
    50   22   23 1   
    51   22   24 1   
@<TRIPOS>SUBSTRUCTURE
     1 GEP         1 TEMP              0 ****  ****    0 ROOT
