@<TRIPOS>MOLECULE
GEP
   53    54     1     0     0
SMALL
bcc


@<TRIPOS>ATOM
      1 N1         -0.0190   -0.1490    0.0130 n4        1 GEP     -0.606800
      2 C2          1.4450    0.1320    0.2220 c3        1 GEP      0.117300
      3 C3          1.7960    0.5620    1.6400 c3        1 GEP     -0.102400
      4 C4          0.9730    1.7520    2.0780 c3        1 GEP     -0.095400
      5 C5         -0.5050    1.4770    1.9110 c3        1 GEP     -0.102400
      6 C6         -0.8340    1.0280    0.4950 c3        1 GEP      0.117300
      7 C7         -0.4200   -1.3780    0.7510 c3        1 GEP      0.089100
      8 C8         -0.2990   -0.3230   -1.4620 c3        1 GEP      0.111800
      9 C9          0.4080   -1.4980   -2.1350 c3        1 GEP     -0.030100
     10 C10         0.0190   -1.5180   -3.5700 ca        1 GEP     -0.177300
     11 C11         0.8690   -0.9870   -4.5470 ca        1 GEP     -0.086500
     12 C12         0.5140   -1.0140   -5.8870 ca        1 GEP     -0.173000
     13 C13        -0.7220   -1.5820   -6.2970 ca        1 GEP      0.113600
     14 C14        -1.5700   -2.1250   -5.3030 ca        1 GEP     -0.173000
     15 C15        -1.1940   -2.0880   -3.9660 ca        1 GEP     -0.086500
     16 N16        -1.0340   -1.5780   -7.6570 n         1 GEP     -0.473100
     17 C17        -2.2010   -2.0400   -8.2600 c         1 GEP      0.671100
     18 O18        -3.1490   -2.5300   -7.6220 o         1 GEP     -0.582100
     19 C19        -2.2680   -1.8880   -9.7720 c3        1 GEP     -0.156400
     20 C20        -1.3280   -2.8440  -10.4820 c3        1 GEP     -0.070400
     21 C21        -0.6470   -2.1960  -11.6690 c3        1 GEP     -0.181400
     22 C22         0.3780   -1.1830  -11.2570 c         1 GEP      0.637100
     23 O23         0.6330   -0.7900  -10.1150 o         1 GEP     -0.531000
     24 O24         1.1470   -0.5890  -12.2140 oh        1 GEP     -0.566100
     25 H21         2.0160   -0.8020   -0.0440 hx        1 GEP      0.096950
     26 H22         1.7320    0.9510   -0.4990 hx        1 GEP      0.096950
     27 H31         2.8880    0.8270    1.6490 hc        1 GEP      0.081950
     28 H32         1.6550   -0.2910    2.3540 hc        1 GEP      0.081950
     29 H41         1.1920    1.9850    3.1540 hc        1 GEP      0.076700
     30 H42         1.2610    2.6560    1.4780 hc        1 GEP      0.076700
     31 H51        -1.0940    2.4140    2.1080 hc        1 GEP      0.081950
     32 H52        -0.8440    0.7120    2.6580 hc        1 GEP      0.081950
     33 H61        -0.6380    1.8810   -0.2170 hx        1 GEP      0.096950
     34 H62        -1.9210    0.7390    0.4260 hx        1 GEP      0.096950
     35 H71         0.2480   -2.2300    0.4550 hx        1 GEP      0.097367
     36 H72        -0.3250   -1.2030    1.8550 hx        1 GEP      0.097367
     37 H73        -1.4840   -1.6320    0.5020 hx        1 GEP      0.097367
     38 H81         0.0050    0.6330   -1.9790 hx        1 GEP      0.099200
     39 H82        -1.4140   -0.4530   -1.5760 hx        1 GEP      0.099200
     40 H91         0.1080   -2.4660   -1.6520 hc        1 GEP      0.061700
     41 H92         1.5220   -1.3940   -2.0400 hc        1 GEP      0.061700
     42 H11         1.8370   -0.5490   -4.2570 ha        1 GEP      0.128000
     43 H12         1.2070   -0.5930   -6.6340 ha        1 GEP      0.169500
     44 H14        -2.5350   -2.5850   -5.5770 ha        1 GEP      0.169500
     45 H15        -1.8660   -2.5280   -3.2120 ha        1 GEP      0.128000
     46 HN6         0.9130   -0.9300  -13.0890 ho        1 GEP      0.434000
     47 H191       -3.3290   -2.0870  -10.0800 hc        1 GEP      0.082700
     48 H192       -2.0270   -0.8250  -10.0430 hc        1 GEP      0.082700
     49 H201       -1.9090   -3.7350  -10.8430 hc        1 GEP      0.067700
     50 H202       -0.5400   -3.2270   -9.7800 hc        1 GEP      0.067700
     51 H211       -0.1360   -2.9880  -12.2830 hc        1 GEP      0.083700
     52 H212       -1.4050   -1.6900  -12.3260 hc        1 GEP      0.083700
     53 H162       -0.3320   -1.2020   -8.2660 hn        1 GEP      0.354500
@<TRIPOS>BOND
     1    1    2 1   
     2    1    6 1   
     3    1    7 1   
     4    1    8 1   
     5    2    3 1   
     6    2   25 1   
     7    2   26 1   
     8    3    4 1   
     9    3   27 1   
    10    3   28 1   
    11    4    5 1   
    12    4   29 1   
    13    4   30 1   
    14    5    6 1   
    15    5   31 1   
    16    5   32 1   
    17    6   33 1   
    18    6   34 1   
    19    7   35 1   
    20    7   36 1   
    21    7   37 1   
    22    8    9 1   
    23    8   38 1   
    24    8   39 1   
    25    9   10 1   
    26    9   40 1   
    27    9   41 1   
    28   10   11 ar  
    29   10   15 ar  
    30   11   12 ar  
    31   11   42 1   
    32   12   13 ar  
    33   12   43 1   
    34   13   14 ar  
    35   13   16 1   
    36   14   15 ar  
    37   14   44 1   
    38   15   45 1   
    39   16   17 1   
    40   16   53 1   
    41   17   18 2   
    42   17   19 1   
    43   19   20 1   
    44   19   47 1   
    45   19   48 1   
    46   20   21 1   
    47   20   49 1   
    48   20   50 1   
    49   21   22 1   
    50   21   51 1   
    51   21   52 1   
    52   22   23 2   
    53   22   24 1   
    54   24   46 1   
@<TRIPOS>SUBSTRUCTURE
     1 GEP         1 TEMP              0 ****  ****    0 ROOT
