@<TRIPOS>MOLECULE
GEP
   52    53     1     0     0
SMALL
bcc


@<TRIPOS>ATOM
      1 N1         -0.0670   -0.3570   -1.7160 n4        1 GEP     -0.575800
      2 C2          0.5150   -0.3870   -0.3350 c3        1 GEP      0.098300
      3 C3         -0.3890   -1.0230    0.7140 c3        1 GEP     -0.096900
      4 C4         -1.7530   -0.3670    0.7360 c3        1 GEP     -0.092400
      5 C5         -2.3700   -0.3640   -0.6440 c3        1 GEP     -0.096900
      6 C6         -1.4480    0.2590   -1.6770 c3        1 GEP      0.098300
      7 C7         -0.1670   -1.7320   -2.2760 c3        1 GEP      0.059100
      8 C8          0.7860    0.5110   -2.6060 c3        1 GEP      0.091800
      9 C9          2.1950   -0.0040   -2.9320 c3        1 GEP     -0.029100
     10 C10         2.2090   -0.5590   -4.3120 ca        1 GEP     -0.151300
     11 C11         2.0550    0.3110   -5.3990 ca        1 GEP     -0.087000
     12 C12         1.7250   -0.1740   -6.6560 ca        1 GEP     -0.164500
     13 C13         1.5040   -1.5600   -6.8360 ca        1 GEP      0.084600
     14 C14         1.8780   -2.4420   -5.7930 ca        1 GEP     -0.164500
     15 C15         2.2250   -1.9360   -4.5470 ca        1 GEP     -0.087000
     16 N16         0.8690   -2.0710   -7.9830 ns        1 GEP     -0.452100
     17 C17        -0.0290   -1.2510   -8.7160 c         1 GEP      0.662100
     18 O18         0.3460   -0.1810   -9.2150 o         1 GEP     -0.553100
     19 C19        -1.4520   -1.7510   -8.8770 c3        1 GEP     -0.167400
     20 C20        -2.1650   -1.8350   -7.5390 c3        1 GEP     -0.072400
     21 C21        -2.2090   -0.5130   -6.7990 c3        1 GEP     -0.179400
     22 C22        -1.9210   -0.6480   -5.3120 c         1 GEP      0.910600
     23 O23        -1.5620    0.3890   -4.6610 o         1 GEP     -0.873300
     24 O24        -2.0260   -1.7640   -4.7170 o         1 GEP     -0.873300
     25 H21         1.4890   -0.9500   -0.3790 hx        1 GEP      0.105950
     26 H22         0.7290    0.6780   -0.0330 hx        1 GEP      0.105950
     27 H31         0.1130   -0.9040    1.7100 hc        1 GEP      0.070450
     28 H32        -0.4960   -2.1230    0.5210 hc        1 GEP      0.070450
     29 H41        -2.4210   -0.9170    1.4490 hc        1 GEP      0.056200
     30 H42        -1.6570    0.6860    1.1110 hc        1 GEP      0.056200
     31 H51        -2.6460   -1.4090   -0.9490 hc        1 GEP      0.070450
     32 H52        -3.3170    0.2380   -0.6410 hc        1 GEP      0.070450
     33 H61        -1.3170    1.3540   -1.4570 hx        1 GEP      0.105950
     34 H62        -1.8920    0.1420   -2.7290 hx        1 GEP      0.105950
     35 H71         0.8550   -2.1800   -2.3540 hx        1 GEP      0.110033
     36 H72        -0.6510   -1.6730   -3.3080 hx        1 GEP      0.110033
     37 H73        -0.8100   -2.3610   -1.6100 hx        1 GEP      0.110033
     38 H81         0.8680    1.5130   -2.0980 hx        1 GEP      0.124200
     39 H82         0.1950    0.6390   -3.5770 hx        1 GEP      0.124200
     40 H91         2.8930    0.8750   -2.8700 hc        1 GEP      0.054700
     41 H92         2.5570   -0.7630   -2.1920 hc        1 GEP      0.054700
     42 H11         2.1420    1.3980   -5.2470 ha        1 GEP      0.126500
     43 H12         1.5680    0.5290   -7.4910 ha        1 GEP      0.154000
     44 H14         1.8430   -3.5310   -5.9450 ha        1 GEP      0.154000
     45 H15         2.4740   -2.6350   -3.7340 ha        1 GEP      0.126500
     46 HN6         0.5410   -3.0090   -7.8590 hn        1 GEP      0.297500
     47 H191       -1.4480   -2.7570   -9.3720 hc        1 GEP      0.067200
     48 H192       -1.9880   -1.0340   -9.5540 hc        1 GEP      0.067200
     49 H201       -3.2110   -2.1940   -7.7280 hc        1 GEP      0.055700
     50 H202       -1.6760   -2.6090   -6.8880 hc        1 GEP      0.055700
     51 H211       -3.2230   -0.0480   -6.9040 hc        1 GEP      0.051700
     52 H212       -1.4680    0.2100   -7.2310 hc        1 GEP      0.051700
@<TRIPOS>BOND
     1    1    2 1   
     2    1    6 1   
     3    1    7 1   
     4    1    8 1   
     5    2    3 1   
     6    2   25 1   
     7    2   26 1   
     8    3    4 1   
     9    3   27 1   
    10    3   28 1   
    11    4    5 1   
    12    4   29 1   
    13    4   30 1   
    14    5    6 1   
    15    5   31 1   
    16    5   32 1   
    17    6   33 1   
    18    6   34 1   
    19    7   35 1   
    20    7   36 1   
    21    7   37 1   
    22    8    9 1   
    23    8   38 1   
    24    8   39 1   
    25    9   10 1   
    26    9   40 1   
    27    9   41 1   
    28   10   11 ar  
    29   10   15 ar  
    30   11   12 ar  
    31   11   42 1   
    32   12   13 ar  
    33   12   43 1   
    34   13   14 ar  
    35   13   16 1   
    36   14   15 ar  
    37   14   44 1   
    38   15   45 1   
    39   16   17 1   
    40   16   46 1   
    41   17   18 2   
    42   17   19 1   
    43   19   20 1   
    44   19   47 1   
    45   19   48 1   
    46   20   21 1   
    47   20   49 1   
    48   20   50 1   
    49   21   22 1   
    50   21   51 1   
    51   21   52 1   
    52   22   23 1   
    53   22   24 1   
@<TRIPOS>SUBSTRUCTURE
     1 GEP         1 TEMP              0 ****  ****    0 ROOT
