@<TRIPOS>MOLECULE
GEP
   52    53     1     0     0
SMALL
bcc


@<TRIPOS>ATOM
      1 N1          0.0190   -0.5180   -0.3770 n4        1 GEP     -0.605800
      2 C2          1.3260    0.0180    0.1360 c3        1 GEP      0.115800
      3 C3          1.4800   -0.0640    1.6480 c3        1 GEP     -0.101900
      4 C4          0.3240    0.6020    2.3610 c3        1 GEP     -0.094400
      5 C5         -0.9990    0.0450    1.8840 c3        1 GEP     -0.101900
      6 C6         -1.1220    0.1250    0.3690 c3        1 GEP      0.115800
      7 C7         -0.0400   -1.9960   -0.2080 c3        1 GEP      0.090100
      8 C8         -0.1300   -0.1690   -1.8430 c3        1 GEP      0.109800
      9 C9          1.0360   -0.5890   -2.7400 c3        1 GEP     -0.019100
     10 C10         0.5680   -0.5300   -4.1480 ca        1 GEP     -0.200300
     11 C11         1.0710    0.4150   -5.0410 ca        1 GEP     -0.107000
     12 C12         0.6270    0.4570   -6.3590 ca        1 GEP     -0.157000
     13 C13        -0.3540   -0.4540   -6.8070 ca        1 GEP      0.116600
     14 C14        -0.8450   -1.4350   -5.8970 ca        1 GEP     -0.157000
     15 C15        -0.3830   -1.4620   -4.5960 ca        1 GEP     -0.107000
     16 N16        -0.8890   -0.4260   -8.0960 n         1 GEP     -0.465100
     17 C17        -0.1610   -0.1530   -9.2520 c         1 GEP      0.666100
     18 O18         0.8820    0.5300   -9.2410 o         1 GEP     -0.621100
     19 C19        -0.7350   -0.7040  -10.5470 c3        1 GEP     -0.150400
     20 C20        -0.6770   -2.2210  -10.6020 c3        1 GEP     -0.066400
     21 C21        -1.9520   -2.9180  -10.1760 c3        1 GEP     -0.198400
     22 C22        -1.9780   -3.2320   -8.6780 c         1 GEP      0.892600
     23 O23        -1.1470   -4.0450   -8.1910 o         1 GEP     -0.850300
     24 O24        -2.8310   -2.6200   -7.9520 o         1 GEP     -0.850300
     25 H21         2.1530   -0.5610   -0.3660 hx        1 GEP      0.097450
     26 H22         1.3920    1.0950   -0.1920 hx        1 GEP      0.097450
     27 H31         1.5720   -1.1330    1.9740 hc        1 GEP      0.077200
     28 H32         2.4430    0.4500    1.9150 hc        1 GEP      0.077200
     29 H41         0.3560    1.7100    2.1820 hc        1 GEP      0.070700
     30 H42         0.4220    0.4410    3.4670 hc        1 GEP      0.070700
     31 H51        -1.1240   -1.0130    2.2350 hc        1 GEP      0.077200
     32 H52        -1.8460    0.6410    2.3200 hc        1 GEP      0.077200
     33 H61        -1.1550    1.2100    0.0600 hx        1 GEP      0.097450
     34 H62        -2.0740   -0.3740    0.0310 hx        1 GEP      0.097450
     35 H71        -0.9940   -2.3850   -0.6560 hx        1 GEP      0.097033
     36 H72         0.8320   -2.4720   -0.7310 hx        1 GEP      0.097033
     37 H73        -0.0040   -2.2540    0.8820 hx        1 GEP      0.097033
     38 H81        -0.2590    0.9480   -1.9160 hx        1 GEP      0.101700
     39 H82        -1.0780   -0.6660   -2.2040 hx        1 GEP      0.101700
     40 H91         1.3740   -1.6330   -2.5060 hc        1 GEP      0.052200
     41 H92         1.9070    0.1000   -2.5790 hc        1 GEP      0.052200
     42 H11         1.8350    1.1350   -4.7110 ha        1 GEP      0.112000
     43 H12         1.0580    1.1890   -7.0620 ha        1 GEP      0.200000
     44 H14        -1.5740   -2.1990   -6.2630 ha        1 GEP      0.200000
     45 H15        -0.7480   -2.2440   -3.9140 ha        1 GEP      0.112000
     46 HN6        -1.7160   -1.0030   -8.2180 hn        1 GEP      0.379500
     47 H191       -1.7900   -0.3440  -10.6730 hc        1 GEP      0.064200
     48 H192       -0.1220   -0.2720  -11.3820 hc        1 GEP      0.064200
     49 H201       -0.4500   -2.5070  -11.6650 hc        1 GEP      0.047700
     50 H202        0.1710   -2.6010   -9.9720 hc        1 GEP      0.047700
     51 H211       -2.0310   -3.8920  -10.7230 hc        1 GEP      0.039200
     52 H212       -2.8490   -2.3010  -10.4390 hc        1 GEP      0.039200
@<TRIPOS>BOND
     1    1    2 1   
     2    1    6 1   
     3    1    7 1   
     4    1    8 1   
     5    2    3 1   
     6    2   25 1   
     7    2   26 1   
     8    3    4 1   
     9    3   27 1   
    10    3   28 1   
    11    4    5 1   
    12    4   29 1   
    13    4   30 1   
    14    5    6 1   
    15    5   31 1   
    16    5   32 1   
    17    6   33 1   
    18    6   34 1   
    19    7   35 1   
    20    7   36 1   
    21    7   37 1   
    22    8    9 1   
    23    8   38 1   
    24    8   39 1   
    25    9   10 1   
    26    9   40 1   
    27    9   41 1   
    28   10   11 ar  
    29   10   15 ar  
    30   11   12 ar  
    31   11   42 1   
    32   12   13 ar  
    33   12   43 1   
    34   13   14 ar  
    35   13   16 1   
    36   14   15 ar  
    37   14   44 1   
    38   15   45 1   
    39   16   17 1   
    40   16   46 1   
    41   17   18 2   
    42   17   19 1   
    43   19   20 1   
    44   19   47 1   
    45   19   48 1   
    46   20   21 1   
    47   20   49 1   
    48   20   50 1   
    49   21   22 1   
    50   21   51 1   
    51   21   52 1   
    52   22   23 1   
    53   22   24 1   
@<TRIPOS>SUBSTRUCTURE
     1 GEP         1 TEMP              0 ****  ****    0 ROOT
