@<TRIPOS>MOLECULE
GEP
   52    53     1     0     0
SMALL
bcc


@<TRIPOS>ATOM
      1 N1          3.5100   -0.0260   -0.1390 n4        1 GEP     -0.575800
      2 C2          4.8940   -0.4530    0.2480 c3        1 GEP      0.098300
      3 C3          5.7980    0.6860    0.7000 c3        1 GEP     -0.096900
      4 C4          5.8610    1.7860   -0.3370 c3        1 GEP     -0.092400
      5 C5          4.4720    2.2550   -0.7090 c3        1 GEP     -0.096900
      6 C6          3.5820    1.1040   -1.1420 c3        1 GEP      0.098300
      7 C7          2.7480    0.4360    1.0530 c3        1 GEP      0.059100
      8 C8          2.7940   -1.1730   -0.8060 c3        1 GEP      0.091800
      9 C9          2.4530   -2.3840    0.0740 c3        1 GEP     -0.029100
     10 C10         1.0080   -2.3470    0.4240 ca        1 GEP     -0.151300
     11 C11         0.0560   -2.5550   -0.5830 ca        1 GEP     -0.087000
     12 C12        -1.2710   -2.2010   -0.3890 ca        1 GEP     -0.164500
     13 C13        -1.6640   -1.5890    0.8240 ca        1 GEP      0.084600
     14 C14        -0.7490   -1.5910    1.9050 ca        1 GEP     -0.164500
     15 C15         0.5720   -1.9670    1.6960 ca        1 GEP     -0.087000
     16 N16        -2.8990   -0.9290    0.9630 n         1 GEP     -0.452100
     17 C17        -3.5380   -0.3860   -0.1820 c         1 GEP      0.662100
     18 O18        -3.8580   -1.1060   -1.1390 o         1 GEP     -0.553100
     19 C19        -3.8310    1.1030   -0.1740 c3        1 GEP     -0.167400
     20 C20        -2.5510    1.9180   -0.1440 c3        1 GEP     -0.072400
     21 C21        -1.6250    1.6260   -1.3070 c3        1 GEP     -0.179400
     22 C22        -0.1630    1.5180   -0.9000 c         1 GEP      0.910600
     23 O23         0.6480    0.9200   -1.6830 o         1 GEP     -0.873300
     24 O24         0.2540    2.0040    0.1950 o         1 GEP     -0.873300
     25 H21         4.8060   -1.2120    1.0740 hx        1 GEP      0.105950
     26 H22         5.3580   -0.9510   -0.6510 hx        1 GEP      0.105950
     27 H31         6.8210    0.2580    0.8720 hc        1 GEP      0.070450
     28 H32         5.4400    1.1030    1.6790 hc        1 GEP      0.070450
     29 H41         6.3910    1.4100   -1.2520 hc        1 GEP      0.056200
     30 H42         6.4570    2.6470    0.0650 hc        1 GEP      0.056200
     31 H51         4.5260    2.9730   -1.5700 hc        1 GEP      0.070450
     32 H52         4.0050    2.8050    0.1500 hc        1 GEP      0.070450
     33 H61         3.9670    0.6680   -2.1050 hx        1 GEP      0.105950
     34 H62         2.5070    1.4710   -1.3050 hx        1 GEP      0.105950
     35 H71         1.7170    0.7900    0.7160 hx        1 GEP      0.110033
     36 H72         2.6460   -0.4060    1.7820 hx        1 GEP      0.110033
     37 H73         3.2870    1.2930    1.5320 hx        1 GEP      0.110033
     38 H81         1.8290   -0.7320   -1.2340 hx        1 GEP      0.124200
     39 H82         3.4470   -1.5100   -1.6590 hx        1 GEP      0.124200
     40 H91         2.6740   -3.3060   -0.5300 hc        1 GEP      0.054700
     41 H92         3.0860   -2.4360    0.9960 hc        1 GEP      0.054700
     42 H11         0.3710   -2.9520   -1.5600 ha        1 GEP      0.126500
     43 H12        -1.9980   -2.3350   -1.2070 ha        1 GEP      0.154000
     44 H14        -1.0610   -1.2430    2.9010 ha        1 GEP      0.154000
     45 H15         1.2820   -1.9250    2.5360 ha        1 GEP      0.126500
     46 HN6        -2.9290   -0.3260    1.7600 hn        1 GEP      0.297500
     47 H191       -4.4150    1.3390   -1.1020 hc        1 GEP      0.067200
     48 H192       -4.4690    1.3600    0.7110 hc        1 GEP      0.067200
     49 H201       -2.8330    3.0040   -0.1540 hc        1 GEP      0.055700
     50 H202       -2.0020    1.7430    0.8210 hc        1 GEP      0.055700
     51 H211       -1.9140    0.6680   -1.8150 hc        1 GEP      0.051700
     52 H212       -1.7010    2.4400   -2.0740 hc        1 GEP      0.051700
@<TRIPOS>BOND
     1    1    2 1   
     2    1    6 1   
     3    1    7 1   
     4    1    8 1   
     5    2    3 1   
     6    2   25 1   
     7    2   26 1   
     8    3    4 1   
     9    3   27 1   
    10    3   28 1   
    11    4    5 1   
    12    4   29 1   
    13    4   30 1   
    14    5    6 1   
    15    5   31 1   
    16    5   32 1   
    17    6   33 1   
    18    6   34 1   
    19    7   35 1   
    20    7   36 1   
    21    7   37 1   
    22    8    9 1   
    23    8   38 1   
    24    8   39 1   
    25    9   10 1   
    26    9   40 1   
    27    9   41 1   
    28   10   11 ar  
    29   10   15 ar  
    30   11   12 ar  
    31   11   42 1   
    32   12   13 ar  
    33   12   43 1   
    34   13   14 ar  
    35   13   16 1   
    36   14   15 ar  
    37   14   44 1   
    38   15   45 1   
    39   16   17 1   
    40   16   46 1   
    41   17   18 2   
    42   17   19 1   
    43   19   20 1   
    44   19   47 1   
    45   19   48 1   
    46   20   21 1   
    47   20   49 1   
    48   20   50 1   
    49   21   22 1   
    50   21   51 1   
    51   21   52 1   
    52   22   23 1   
    53   22   24 1   
@<TRIPOS>SUBSTRUCTURE
     1 GEP         1 TEMP              0 ****  ****    0 ROOT
