@<TRIPOS>MOLECULE
GEQ
   53    58     1     0     0
SMALL
bcc


@<TRIPOS>ATOM
      1 C1A        -0.1040    0.5450    0.1560 ca        1 GEQ     -0.046000
      2 C2A         1.1880    0.0470    0.0270 ca        1 GEQ     -0.166600
      3 C3A         1.9140   -0.4140    1.1480 ca        1 GEQ     -0.072000
      4 C4A         1.3620   -0.4110    2.4170 ca        1 GEQ     -0.153000
      5 C5A         0.0540    0.0810    2.5630 ca        1 GEQ     -0.030200
      6 C6A        -0.6890    0.5700    1.4210 ca        1 GEQ     -0.108800
      7 C7A        -1.9740    1.0030    1.9240 cc        1 GEQ     -0.180200
      8 C8A        -1.9750    0.7740    3.2960 cd        1 GEQ     -0.108100
      9 N9A        -0.7550    0.2100    3.6910 na        1 GEQ     -0.193400
     10 C1B         1.8890    0.0500   -1.2890 c         1 GEQ      0.667700
     11 O2B         3.0310    0.5410   -1.3990 o         1 GEQ     -0.600100
     12 N1C         1.2170   -0.4340   -2.4170 n         1 GEQ     -0.453800
     13 C2C         1.9000   -0.4470   -3.6950 c3        1 GEQ      0.078000
     14 C3C         2.3360   -1.8540   -4.1600 c3        1 GEQ      0.146300
     15 N4C         1.2560   -2.8260   -4.0780 n3        1 GEQ     -0.727600
     16 C5C         0.5990   -2.8360   -2.7800 c3        1 GEQ      0.146300
     17 C6C         0.1710   -1.4260   -2.3150 c3        1 GEQ      0.078000
     18 C1D         1.6150   -4.1450   -4.5690 c3        1 GEQ      0.281100
     19 C1E         0.4020   -4.9780   -4.9750 ca        1 GEQ     -0.102300
     20 C2E        -0.6500   -4.6330   -5.8010 ca        1 GEQ     -0.106000
     21 C3E        -1.6360   -5.5960   -6.0680 ca        1 GEQ     -0.130000
     22 C4E        -1.5580   -6.8700   -5.5130 ca        1 GEQ     -0.129500
     23 C5E        -0.4950   -7.2250   -4.6720 ca        1 GEQ     -0.108000
     24 C6E         0.4810   -6.2790   -4.4010 cp        1 GEQ     -0.038500
     25 C1F         2.3580   -5.0980   -3.6330 ca        1 GEQ     -0.102300
     26 C2F         3.5360   -4.9110   -2.9360 ca        1 GEQ     -0.106000
     27 C3F         4.0450   -5.9700   -2.1680 ca        1 GEQ     -0.130000
     28 C4F         3.3840   -7.1920   -2.1100 ca        1 GEQ     -0.129500
     29 C5F         2.1910   -7.3960   -2.8180 ca        1 GEQ     -0.108000
     30 C6F         1.6820   -6.3530   -3.5740 cp        1 GEQ     -0.038500
     31 H1A        -0.6570    0.9200   -0.7180 ha        1 GEQ      0.146000
     32 H3A         2.9460   -0.7680    0.9970 ha        1 GEQ      0.148000
     33 H4A         1.9320   -0.7750    3.2830 ha        1 GEQ      0.137000
     34 H7A        -2.7780    1.4280    1.3320 ha        1 GEQ      0.159000
     35 H8A        -2.7570    0.9660    4.0320 h4        1 GEQ      0.167000
     36 H9A        -0.4950   -0.0180    4.6120 hn        1 GEQ      0.300700
     37 H2C1        2.8170    0.2040   -3.6470 h1        1 GEQ      0.066950
     38 H2C2        1.1880   -0.0150   -4.4540 h1        1 GEQ      0.066950
     39 H3C1        3.2370   -2.1670   -3.5580 h1        1 GEQ      0.044450
     40 H3C2        2.6510   -1.7740   -5.2380 h1        1 GEQ      0.044450
     41 H5C1        1.2550   -3.3000   -1.9870 h1        1 GEQ      0.044450
     42 H5C2       -0.3300   -3.4660   -2.8730 h1        1 GEQ      0.044450
     43 H6C1       -0.1930   -1.5140   -1.2540 h1        1 GEQ      0.066950
     44 H6C2       -0.6870   -1.0750   -2.9570 h1        1 GEQ      0.066950
     45 H1D         2.2570   -4.0010   -5.4920 h1        1 GEQ      0.082700
     46 H2E        -0.7190   -3.6260   -6.2370 ha        1 GEQ      0.141000
     47 H3E        -2.4800   -5.3350   -6.7230 ha        1 GEQ      0.132500
     48 H4E        -2.3400   -7.6120   -5.7360 ha        1 GEQ      0.131500
     49 H5E        -0.4400   -8.2330   -4.2370 ha        1 GEQ      0.135500
     50 H2F         4.0790   -3.9560   -2.9740 ha        1 GEQ      0.141000
     51 H3F         4.9810   -5.8260   -1.6070 ha        1 GEQ      0.132500
     52 H4F         3.7980   -8.0120   -1.5040 ha        1 GEQ      0.131500
     53 H5F         1.6740   -8.3640   -2.7730 ha        1 GEQ      0.135500
@<TRIPOS>BOND
     1    1    2 ar  
     2    1    6 ar  
     3    1   31 1   
     4    2    3 ar  
     5    2   10 1   
     6    3    4 ar  
     7    3   32 1   
     8    4    5 ar  
     9    4   33 1   
    10    5    6 ar  
    11    5    9 1   
    12    6    7 1   
    13    7    8 2   
    14    7   34 1   
    15    8    9 1   
    16    8   35 1   
    17    9   36 1   
    18   10   11 2   
    19   10   12 1   
    20   12   13 1   
    21   12   17 1   
    22   13   14 1   
    23   13   37 1   
    24   13   38 1   
    25   14   15 1   
    26   14   39 1   
    27   14   40 1   
    28   15   16 1   
    29   15   18 1   
    30   16   17 1   
    31   16   41 1   
    32   16   42 1   
    33   17   43 1   
    34   17   44 1   
    35   18   19 1   
    36   18   25 1   
    37   18   45 1   
    38   19   20 ar  
    39   19   24 ar  
    40   20   21 ar  
    41   20   46 1   
    42   21   22 ar  
    43   21   47 1   
    44   22   23 ar  
    45   22   48 1   
    46   23   24 ar  
    47   23   49 1   
    48   24   30 1   
    49   25   26 ar  
    50   25   30 ar  
    51   26   27 ar  
    52   26   50 1   
    53   27   28 ar  
    54   27   51 1   
    55   28   29 ar  
    56   28   52 1   
    57   29   30 ar  
    58   29   53 1   
@<TRIPOS>SUBSTRUCTURE
     1 GEQ         1 TEMP              0 ****  ****    0 ROOT
