@<TRIPOS>MOLECULE
GEQ
   53    58     1     0     0
SMALL
bcc


@<TRIPOS>ATOM
      1 C1A        -0.1060    0.5460    0.1520 ca        1 GEQ     -0.046000
      2 C2A         1.1880    0.0510    0.0220 ca        1 GEQ     -0.166600
      3 C3A         1.9160   -0.4050    1.1430 ca        1 GEQ     -0.072000
      4 C4A         1.3670   -0.4000    2.4130 ca        1 GEQ     -0.153000
      5 C5A         0.0580    0.0890    2.5600 ca        1 GEQ     -0.030200
      6 C6A        -0.6890    0.5740    1.4170 ca        1 GEQ     -0.108800
      7 C7A        -1.9740    1.0050    1.9210 cc        1 GEQ     -0.180200
      8 C8A        -1.9720    0.7790    3.2940 cd        1 GEQ     -0.108100
      9 N9A        -0.7500    0.2200    3.6890 na        1 GEQ     -0.193400
     10 C1B         1.8850    0.0520   -1.2950 c         1 GEQ      0.667700
     11 O2B         3.0270    0.5450   -1.4080 o         1 GEQ     -0.600100
     12 N1C         1.2130   -0.4350   -2.4210 n         1 GEQ     -0.453800
     13 C2C         1.8930   -0.4490   -3.7000 c3        1 GEQ      0.078000
     14 C3C         2.3310   -1.8560   -4.1640 c3        1 GEQ      0.146300
     15 N4C         1.2520   -2.8290   -4.0780 n3        1 GEQ     -0.727600
     16 C5C         0.5980   -2.8390   -2.7800 c3        1 GEQ      0.146300
     17 C6C         0.1690   -1.4280   -2.3150 c3        1 GEQ      0.078000
     18 C1D         1.6130   -4.1480   -4.5690 c3        1 GEQ      0.281100
     19 C1E         0.4000   -4.9840   -4.9700 ca        1 GEQ     -0.102300
     20 C2E        -0.6550   -4.6420   -5.7950 ca        1 GEQ     -0.106000
     21 C3E        -1.6400   -5.6060   -6.0570 ca        1 GEQ     -0.130000
     22 C4E        -1.5590   -6.8790   -5.5010 ca        1 GEQ     -0.129500
     23 C5E        -0.4930   -7.2310   -4.6610 ca        1 GEQ     -0.108000
     24 C6E         0.4810   -6.2840   -4.3940 cp        1 GEQ     -0.038500
     25 C1F         2.3590   -5.0990   -3.6330 ca        1 GEQ     -0.102300
     26 C2F         3.5390   -4.9100   -2.9390 ca        1 GEQ     -0.106000
     27 C3F         4.0510   -5.9670   -2.1700 ca        1 GEQ     -0.130000
     28 C4F         3.3910   -7.1900   -2.1090 ca        1 GEQ     -0.129500
     29 C5F         2.1970   -7.3960   -2.8140 ca        1 GEQ     -0.108000
     30 C6F         1.6840   -6.3550   -3.5700 cp        1 GEQ     -0.038500
     31 H1A        -0.6620    0.9180   -0.7220 ha        1 GEQ      0.146000
     32 H3A         2.9490   -0.7560    0.9910 ha        1 GEQ      0.148000
     33 H4A         1.9390   -0.7590    3.2790 ha        1 GEQ      0.137000
     34 H7A        -2.7810    1.4250    1.3300 ha        1 GEQ      0.159000
     35 H8A        -2.7530    0.9710    4.0320 h4        1 GEQ      0.167000
     36 H9A        -0.4880   -0.0050    4.6100 hn        1 GEQ      0.300700
     37 H2C1        2.8100    0.2030   -3.6550 h1        1 GEQ      0.066950
     38 H2C2        1.1800   -0.0190   -4.4590 h1        1 GEQ      0.066950
     39 H3C1        3.2330   -2.1670   -3.5630 h1        1 GEQ      0.044450
     40 H3C2        2.6440   -1.7770   -5.2420 h1        1 GEQ      0.044450
     41 H5C1       -0.3300   -3.4700   -2.8700 h1        1 GEQ      0.044450
     42 H5C2        1.2560   -3.3000   -1.9870 h1        1 GEQ      0.044450
     43 H6C1       -0.1930   -1.5150   -1.2540 h1        1 GEQ      0.066950
     44 H6C2       -0.6910   -1.0800   -2.9560 h1        1 GEQ      0.066950
     45 H1D         2.2520   -4.0050   -5.4930 h1        1 GEQ      0.082700
     46 H2E        -0.7260   -3.6360   -6.2320 ha        1 GEQ      0.141000
     47 H3E        -2.4860   -5.3470   -6.7120 ha        1 GEQ      0.132500
     48 H4E        -2.3400   -7.6230   -5.7200 ha        1 GEQ      0.131500
     49 H5E        -0.4360   -8.2380   -4.2250 ha        1 GEQ      0.135500
     50 H2F         4.0800   -3.9540   -2.9790 ha        1 GEQ      0.141000
     51 H3F         4.9880   -5.8210   -1.6130 ha        1 GEQ      0.132500
     52 H4F         3.8080   -8.0080   -1.5030 ha        1 GEQ      0.131500
     53 H5F         1.6810   -8.3650   -2.7660 ha        1 GEQ      0.135500
@<TRIPOS>BOND
     1    1    2 ar  
     2    1    6 ar  
     3    1   31 1   
     4    2    3 ar  
     5    2   10 1   
     6    3    4 ar  
     7    3   32 1   
     8    4    5 ar  
     9    4   33 1   
    10    5    6 ar  
    11    5    9 1   
    12    6    7 1   
    13    7    8 2   
    14    7   34 1   
    15    8    9 1   
    16    8   35 1   
    17    9   36 1   
    18   10   11 2   
    19   10   12 1   
    20   12   13 1   
    21   12   17 1   
    22   13   14 1   
    23   13   37 1   
    24   13   38 1   
    25   14   15 1   
    26   14   39 1   
    27   14   40 1   
    28   15   16 1   
    29   15   18 1   
    30   16   17 1   
    31   16   41 1   
    32   16   42 1   
    33   17   43 1   
    34   17   44 1   
    35   18   19 1   
    36   18   25 1   
    37   18   45 1   
    38   19   20 ar  
    39   19   24 ar  
    40   20   21 ar  
    41   20   46 1   
    42   21   22 ar  
    43   21   47 1   
    44   22   23 ar  
    45   22   48 1   
    46   23   24 ar  
    47   23   49 1   
    48   24   30 1   
    49   25   26 ar  
    50   25   30 ar  
    51   26   27 ar  
    52   26   50 1   
    53   27   28 ar  
    54   27   51 1   
    55   28   29 ar  
    56   28   52 1   
    57   29   30 ar  
    58   29   53 1   
@<TRIPOS>SUBSTRUCTURE
     1 GEQ         1 TEMP              0 ****  ****    0 ROOT
