@<TRIPOS>MOLECULE
GEQ
   53    45     1     0     0
SMALL
bcc


@<TRIPOS>ATOM
      1 C1A        -1.6800    2.4180    3.0690 c1        1 GEQ     -0.100000
      2 C2A        -0.2910    2.3950    3.0510 c1        1 GEQ     -0.146000
      3 C3A         0.4140    2.4500    4.2380 c1        1 GEQ     -0.073000
      4 C4A        -0.2640    2.5290    5.4450 c1        1 GEQ     -0.100000
      5 C5A        -1.6700    2.5530    5.4630 c1        1 GEQ     -0.041500
      6 C6A        -2.3670    2.4990    4.2960 c1        1 GEQ     -0.041500
      7 C7A        -3.6920    2.4420    4.6020 c1        1 GEQ     -0.192000
      8 C8A        -3.8120    2.4610    5.9700 c1        1 GEQ     -0.080000
      9 N9A        -2.5710    2.5300    6.4970 n1        1 GEQ     -0.216000
     10 C1B         0.9220    2.0210    2.1510 c2        1 GEQ      0.341000
     11 O2B         2.0320    2.1700    2.5570 o         1 GEQ     -0.358000
     12 N1C         0.7090    1.5950    0.8170 n         1 GEQ     -0.314000
     13 C2C         1.7680    1.3290   -0.0870 c3        1 GEQ     -0.036500
     14 C3C         1.6350   -0.0490   -0.7400 c3        1 GEQ     -0.089500
     15 N4C         0.3150   -0.2580   -1.3240 n3        1 GEQ     -0.253000
     16 C5C        -0.7410    0.0170   -0.3980 c3        1 GEQ     -0.089500
     17 C6C        -0.5970    1.3950    0.2570 c3        1 GEQ     -0.036500
     18 C1D         0.2020   -1.6570   -1.7900 c3        1 GEQ      0.070000
     19 C1E         1.5360   -2.2050   -2.0500 c2        1 GEQ     -0.094000
     20 C2E         2.5900   -2.5590   -1.1930 c2        1 GEQ     -0.106000
     21 C3E         3.7440   -3.1620   -1.7120 c1        1 GEQ     -0.129500
     22 C4E         3.8460   -3.4110   -3.0830 c1        1 GEQ     -0.117750
     23 C5E         2.7910   -3.0570   -3.9420 c1        1 GEQ     -0.117750
     24 C6E         1.6370   -2.4540   -3.4220 c1        1 GEQ     -0.038000
     25 C1F        -0.5540   -1.7040   -3.0410 c2        1 GEQ     -0.094000
     26 C2F        -1.8690   -1.3350   -3.3580 c2        1 GEQ     -0.106000
     27 C3F        -2.3120   -1.3990   -4.6820 c1        1 GEQ     -0.129500
     28 C4F        -1.4390   -1.8340   -5.6940 c1        1 GEQ     -0.117750
     29 C5F        -0.1330   -2.2010   -5.3790 c1        1 GEQ     -0.117750
     30 C6F         0.3140   -2.1370   -4.0510 c1        1 GEQ     -0.038000
     31 H1A        -2.1690    2.3780    2.2510 ha        1 GEQ      0.141500
     32 H3A         1.3930    2.4340    4.2270 ha        1 GEQ      0.148000
     33 H4A         0.2220    2.5650    6.2600 ha        1 GEQ      0.141500
     34 H7A        -4.4080    2.3960    3.9790 DU        1 GEQ      0.192667
     35 H8A        -4.6290    2.4990    6.4590 DU        1 GEQ      0.192667
     36 H9A        -2.3650    2.5560    7.3970 DU        1 GEQ      0.192667
     37 H2C1        1.7680    2.0500   -0.8230 h1        1 GEQ      0.106000
     38 H2C2        2.6530    1.3710    0.4180 h1        1 GEQ      0.106000
     39 H3C1        2.3080   -0.1350   -1.4420 h1        1 GEQ      0.083500
     40 H3C2        1.7970   -0.7520   -0.0490 h1        1 GEQ      0.083500
     41 H5C1       -1.6140   -0.0220   -0.8820 h1        1 GEQ      0.083500
     42 H5C2       -0.7350   -0.6760    0.3110 h1        1 GEQ      0.083500
     43 H6C1       -1.2540    1.4780    0.9610 h1        1 GEQ      0.106000
     44 H6C2       -0.7660    2.0910   -0.4230 h1        1 GEQ      0.106000
     45 H1D        -0.2390   -2.1850   -1.1260 h1        1 GEQ      0.120000
     46 H2E         2.5210   -2.3870   -0.2420 ha        1 GEQ      0.139500
     47 H3E         4.4750   -3.4070   -1.1160 ha        1 GEQ      0.132000
     48 H4E         4.6660   -3.8380   -3.4510 ha        1 GEQ      0.133500
     49 H5E         2.8620   -3.2310   -4.9000 ha        1 GEQ      0.133500
     50 H2F        -2.4690   -1.0370   -2.6600 ha        1 GEQ      0.139500
     51 H3F        -3.2150   -1.1440   -4.9010 ha        1 GEQ      0.132000
     52 H4F        -1.7480   -1.8780   -6.6210 ha        1 GEQ      0.133500
     53 H5F         0.4810   -2.5080   -6.0940 ha        1 GEQ      0.133500
@<TRIPOS>BOND
     1    1    6 1   
     2    1   31 1   
     3    2    3 1   
     4    2   10 1   
     5    3   32 1   
     6    4    5 1   
     7    4   33 1   
     8    7    8 1   
     9    8    9 1   
    10   10   11 1   
    11   10   12 1   
    12   12   13 1   
    13   12   17 1   
    14   13   14 1   
    15   13   37 1   
    16   13   38 1   
    17   14   15 1   
    18   14   39 1   
    19   14   40 1   
    20   15   16 1   
    21   15   18 1   
    22   16   17 1   
    23   16   41 1   
    24   16   42 1   
    25   17   43 1   
    26   17   44 1   
    27   18   19 1   
    28   18   25 1   
    29   18   45 1   
    30   19   20 1   
    31   19   24 1   
    32   20   21 1   
    33   20   46 1   
    34   21   47 1   
    35   22   23 1   
    36   22   48 1   
    37   23   49 1   
    38   25   26 1   
    39   25   30 1   
    40   26   27 1   
    41   26   50 1   
    42   27   51 1   
    43   28   29 1   
    44   28   52 1   
    45   29   53 1   
@<TRIPOS>SUBSTRUCTURE
     1 GEQ         1 TEMP              0 ****  ****    0 ROOT
