@<TRIPOS>MOLECULE
GEQ
   53    58     1     0     0
SMALL
bcc


@<TRIPOS>ATOM
      1 C1A        -0.1030    0.5470    0.1530 ca        1 GEQ     -0.046000
      2 C2A         1.1890    0.0490    0.0230 ca        1 GEQ     -0.166600
      3 C3A         1.9150   -0.4110    1.1430 ca        1 GEQ     -0.072000
      4 C4A         1.3650   -0.4080    2.4130 ca        1 GEQ     -0.153000
      5 C5A         0.0580    0.0840    2.5600 ca        1 GEQ     -0.031200
      6 C6A        -0.6870    0.5730    1.4180 ca        1 GEQ     -0.108800
      7 C7A        -1.9710    1.0070    1.9220 cc        1 GEQ     -0.180200
      8 C8A        -1.9700    0.7780    3.2940 cd        1 GEQ     -0.108100
      9 N9A        -0.7510    0.2140    3.6880 na        1 GEQ     -0.193400
     10 C1B         1.8880    0.0510   -1.2940 c         1 GEQ      0.667700
     11 O2B         3.0300    0.5420   -1.4060 o         1 GEQ     -0.600100
     12 N1C         1.2160   -0.4340   -2.4210 n         1 GEQ     -0.453800
     13 C2C         1.8970   -0.4480   -3.6990 c3        1 GEQ      0.078000
     14 C3C         2.3330   -1.8560   -4.1630 c3        1 GEQ      0.146300
     15 N4C         1.2540   -2.8280   -4.0790 n3        1 GEQ     -0.727600
     16 C5C         0.5980   -2.8370   -2.7810 c3        1 GEQ      0.146300
     17 C6C         0.1700   -1.4260   -2.3170 c3        1 GEQ      0.078000
     18 C1D         1.6140   -4.1470   -4.5680 c3        1 GEQ      0.281100
     19 C1E         0.4010   -4.9810   -4.9720 ca        1 GEQ     -0.102300
     20 C2E        -0.6520   -4.6380   -5.7990 ca        1 GEQ     -0.106000
     21 C3E        -1.6380   -5.6020   -6.0640 ca        1 GEQ     -0.130000
     22 C4E        -1.5590   -6.8750   -5.5080 ca        1 GEQ     -0.129500
     23 C5E        -0.4950   -7.2290   -4.6660 ca        1 GEQ     -0.108000
     24 C6E         0.4800   -6.2820   -4.3960 cp        1 GEQ     -0.038500
     25 C1F         2.3570   -5.0990   -3.6310 ca        1 GEQ     -0.102300
     26 C2F         3.5350   -4.9110   -2.9340 ca        1 GEQ     -0.106000
     27 C3F         4.0450   -5.9680   -2.1640 ca        1 GEQ     -0.130000
     28 C4F         3.3840   -7.1910   -2.1040 ca        1 GEQ     -0.129500
     29 C5F         2.1910   -7.3950   -2.8120 ca        1 GEQ     -0.108000
     30 C6F         1.6810   -6.3540   -3.5690 cp        1 GEQ     -0.038500
     31 H1A        -0.6570    0.9220   -0.7210 ha        1 GEQ      0.146000
     32 H3A         2.9480   -0.7660    0.9920 ha        1 GEQ      0.148000
     33 H4A         1.9360   -0.7710    3.2780 ha        1 GEQ      0.137000
     34 H7A        -2.7760    1.4310    1.3310 ha        1 GEQ      0.159000
     35 H8A        -2.7520    0.9710    4.0320 h4        1 GEQ      0.167000
     36 H9A        -0.4890   -0.0130    4.6090 hn        1 GEQ      0.300700
     37 H2C1        2.8150    0.2030   -3.6540 h1        1 GEQ      0.066950
     38 H2C2        1.1850   -0.0170   -4.4590 h1        1 GEQ      0.066950
     39 H3C1        2.6480   -1.7770   -5.2410 h1        1 GEQ      0.044450
     40 H3C2        3.2350   -2.1680   -3.5610 h1        1 GEQ      0.044450
     41 H5C1       -0.3310   -3.4670   -2.8720 h1        1 GEQ      0.044450
     42 H5C2        1.2540   -3.2990   -1.9870 h1        1 GEQ      0.044450
     43 H6C1       -0.1940   -1.5120   -1.2560 h1        1 GEQ      0.066950
     44 H6C2       -0.6890   -1.0760   -2.9590 h1        1 GEQ      0.066950
     45 H1D         2.2560   -4.0050   -5.4910 h1        1 GEQ      0.082700
     46 H2E        -0.7210   -3.6320   -6.2370 ha        1 GEQ      0.141000
     47 H3E        -2.4810   -5.3420   -6.7200 ha        1 GEQ      0.132500
     48 H4E        -2.3400   -7.6180   -5.7290 ha        1 GEQ      0.131500
     49 H5E        -0.4400   -8.2360   -4.2290 ha        1 GEQ      0.135500
     50 H2F         4.0770   -3.9550   -2.9730 ha        1 GEQ      0.141000
     51 H3F         4.9800   -5.8230   -1.6040 ha        1 GEQ      0.132500
     52 H4F         3.7980   -8.0090   -1.4970 ha        1 GEQ      0.131500
     53 H5F         1.6740   -8.3640   -2.7650 ha        1 GEQ      0.135500
@<TRIPOS>BOND
     1    1    2 ar  
     2    1    6 ar  
     3    1   31 1   
     4    2    3 ar  
     5    2   10 1   
     6    3    4 ar  
     7    3   32 1   
     8    4    5 ar  
     9    4   33 1   
    10    5    6 ar  
    11    5    9 1   
    12    6    7 1   
    13    7    8 2   
    14    7   34 1   
    15    8    9 1   
    16    8   35 1   
    17    9   36 1   
    18   10   11 2   
    19   10   12 1   
    20   12   13 1   
    21   12   17 1   
    22   13   14 1   
    23   13   37 1   
    24   13   38 1   
    25   14   15 1   
    26   14   39 1   
    27   14   40 1   
    28   15   16 1   
    29   15   18 1   
    30   16   17 1   
    31   16   41 1   
    32   16   42 1   
    33   17   43 1   
    34   17   44 1   
    35   18   19 1   
    36   18   25 1   
    37   18   45 1   
    38   19   20 ar  
    39   19   24 ar  
    40   20   21 ar  
    41   20   46 1   
    42   21   22 ar  
    43   21   47 1   
    44   22   23 ar  
    45   22   48 1   
    46   23   24 ar  
    47   23   49 1   
    48   24   30 1   
    49   25   26 ar  
    50   25   30 ar  
    51   26   27 ar  
    52   26   50 1   
    53   27   28 ar  
    54   27   51 1   
    55   28   29 ar  
    56   28   52 1   
    57   29   30 ar  
    58   29   53 1   
@<TRIPOS>SUBSTRUCTURE
     1 GEQ         1 TEMP              0 ****  ****    0 ROOT
