@<TRIPOS>MOLECULE
GEQ
   53    58     1     0     0
SMALL
bcc


@<TRIPOS>ATOM
      1 C1A         0.4600    1.0440   -3.8480 ca        1 GEQ     -0.046000
      2 C2A        -0.6700    0.4270   -3.3210 ca        1 GEQ     -0.166600
      3 C3A        -1.0770   -0.8540   -3.7550 ca        1 GEQ     -0.072000
      4 C4A        -0.3580   -1.5590   -4.7040 ca        1 GEQ     -0.153000
      5 C5A         0.7910   -0.9530   -5.2400 ca        1 GEQ     -0.030200
      6 C6A         1.2050    0.3670   -4.8120 ca        1 GEQ     -0.108800
      7 C7A         2.4010    0.6840   -5.5600 cc        1 GEQ     -0.180200
      8 C8A         2.6680   -0.4050   -6.3840 cd        1 GEQ     -0.108100
      9 N9A         1.7040   -1.4020   -6.1930 na        1 GEQ     -0.193400
     10 C1B        -1.5400    1.1250   -2.3320 c         1 GEQ      0.667700
     11 O2B        -2.7720    1.2060   -2.5160 o         1 GEQ     -0.600100
     12 N1C        -0.9480    1.7590   -1.2340 n         1 GEQ     -0.453800
     13 C2C        -1.7910    2.4250   -0.2630 c3        1 GEQ      0.078000
     14 C3C        -1.9260    1.6680    1.0770 c3        1 GEQ      0.146300
     15 N4C        -0.6370    1.2650    1.6190 n3        1 GEQ     -0.727600
     16 C5C         0.1910    0.5620    0.6510 c3        1 GEQ      0.146300
     17 C6C         0.3160    1.3180   -0.6910 c3        1 GEQ      0.078000
     18 C1D        -0.7240    0.6070    2.9110 c3        1 GEQ      0.281100
     19 C1E         0.5840    0.6670    3.6970 ca        1 GEQ     -0.102300
     20 C2E         1.3770    1.7620    3.9780 ca        1 GEQ     -0.106000
     21 C3E         2.5210    1.5750    4.7690 ca        1 GEQ     -0.130000
     22 C4E         2.8510    0.3170    5.2620 ca        1 GEQ     -0.129500
     23 C5E         2.0510   -0.7990    4.9780 ca        1 GEQ     -0.108000
     24 C6E         0.9220   -0.6240    4.1940 cp        1 GEQ     -0.038500
     25 C1F        -1.0520   -0.8860    2.9530 ca        1 GEQ     -0.102300
     26 C2F        -2.1200   -1.5710    2.4040 ca        1 GEQ     -0.106000
     27 C3F        -2.2240   -2.9530    2.6230 ca        1 GEQ     -0.130000
     28 C4F        -1.2760   -3.6280    3.3850 ca        1 GEQ     -0.129500
     29 C5F        -0.1920   -2.9430    3.9520 ca        1 GEQ     -0.108000
     30 C6F        -0.0820   -1.5800    3.7350 cp        1 GEQ     -0.038500
     31 H1A         0.7620    2.0500   -3.5200 ha        1 GEQ      0.146000
     32 H3A        -1.9980   -1.2840   -3.3310 ha        1 GEQ      0.148000
     33 H4A        -0.6800   -2.5550   -5.0330 ha        1 GEQ      0.137000
     34 H7A         2.9740    1.6030   -5.4860 ha        1 GEQ      0.159000
     35 H8A         3.4800   -0.5530   -7.0990 h4        1 GEQ      0.167000
     36 H9A         1.6520   -2.2570   -6.6770 hn        1 GEQ      0.300700
     37 H2C1       -1.3350    3.4370   -0.0670 h1        1 GEQ      0.066950
     38 H2C2       -2.8250    2.5700   -0.6860 h1        1 GEQ      0.066950
     39 H3C1       -2.4110    2.3660    1.8150 h1        1 GEQ      0.044450
     40 H3C2       -2.6170    0.7890    0.9250 h1        1 GEQ      0.044450
     41 H5C1        1.2230    0.4650    1.0920 h1        1 GEQ      0.044450
     42 H5C2       -0.1990   -0.4780    0.4500 h1        1 GEQ      0.044450
     43 H6C1        0.8480    0.6410   -1.4150 h1        1 GEQ      0.066950
     44 H6C2        0.9510    2.2370   -0.5320 h1        1 GEQ      0.066950
     45 H1D        -1.5140    1.1480    3.5170 h1        1 GEQ      0.082700
     46 H2E         1.1240    2.7580    3.5870 ha        1 GEQ      0.141000
     47 H3E         3.1630    2.4390    5.0000 ha        1 GEQ      0.132500
     48 H4E         3.7500    0.1900    5.8830 ha        1 GEQ      0.131500
     49 H5E         2.3170   -1.7910    5.3700 ha        1 GEQ      0.135500
     50 H2F        -2.8840   -1.0550    1.8050 ha        1 GEQ      0.141000
     51 H3F        -3.0690   -3.5040    2.1860 ha        1 GEQ      0.132500
     52 H4F        -1.3740   -4.7120    3.5480 ha        1 GEQ      0.131500
     53 H5F         0.5520   -3.4790    4.5570 ha        1 GEQ      0.135500
@<TRIPOS>BOND
     1    1    2 ar  
     2    1    6 ar  
     3    1   31 1   
     4    2    3 ar  
     5    2   10 1   
     6    3    4 ar  
     7    3   32 1   
     8    4    5 ar  
     9    4   33 1   
    10    5    6 ar  
    11    5    9 1   
    12    6    7 1   
    13    7    8 2   
    14    7   34 1   
    15    8    9 1   
    16    8   35 1   
    17    9   36 1   
    18   10   11 2   
    19   10   12 1   
    20   12   13 1   
    21   12   17 1   
    22   13   14 1   
    23   13   37 1   
    24   13   38 1   
    25   14   15 1   
    26   14   39 1   
    27   14   40 1   
    28   15   16 1   
    29   15   18 1   
    30   16   17 1   
    31   16   41 1   
    32   16   42 1   
    33   17   43 1   
    34   17   44 1   
    35   18   19 1   
    36   18   25 1   
    37   18   45 1   
    38   19   20 ar  
    39   19   24 ar  
    40   20   21 ar  
    41   20   46 1   
    42   21   22 ar  
    43   21   47 1   
    44   22   23 ar  
    45   22   48 1   
    46   23   24 ar  
    47   23   49 1   
    48   24   30 1   
    49   25   26 ar  
    50   25   30 ar  
    51   26   27 ar  
    52   26   50 1   
    53   27   28 ar  
    54   27   51 1   
    55   28   29 ar  
    56   28   52 1   
    57   29   30 ar  
    58   29   53 1   
@<TRIPOS>SUBSTRUCTURE
     1 GEQ         1 TEMP              0 ****  ****    0 ROOT
