@<TRIPOS>MOLECULE
GER
   54    53     1     0     0
SMALL
bcc


@<TRIPOS>ATOM
      1 C1          8.1950   -1.7540   -0.8570 c3        1 GER     -0.061900
      2 C2          6.7710   -1.4030   -1.0160 c2        1 GER     -0.174200
      3 C3          6.3140   -0.1470   -1.1390 c2        1 GER     -0.122400
      4 C4          7.2160    1.0300   -1.1440 c3        1 GER     -0.058900
      5 C5          4.8600    0.1370   -1.3090 c3        1 GER     -0.039200
      6 C6          4.2320    0.6370   -0.0200 c3        1 GER     -0.043200
      7 C7          2.7940    0.9470   -0.1880 c2        1 GER     -0.174200
      8 C8          1.9800    1.2600    0.8340 c2        1 GER     -0.124400
      9 C9          2.4610    1.3120    2.2360 c3        1 GER     -0.058900
     10 C10         0.5420    1.5820    0.6110 c3        1 GER     -0.038200
     11 C11        -0.3670    0.5100    1.1840 c3        1 GER     -0.043200
     12 C12        -1.7990    0.8490    1.0160 c2        1 GER     -0.174200
     13 C13        -2.7990    0.0010    1.3060 c2        1 GER     -0.123400
     14 C14        -2.5470   -1.3680    1.8180 c3        1 GER     -0.058900
     15 C15        -4.2260    0.3960    1.1370 c3        1 GER     -0.038200
     16 C16        -4.8900   -0.3740    0.0090 c3        1 GER     -0.043200
     17 C17        -6.3240   -0.0290   -0.1300 c2        1 GER     -0.177200
     18 C18        -7.0990   -0.4810   -1.1290 c2        1 GER     -0.124400
     19 C19        -6.5750   -1.3690   -2.1950 c3        1 GER     -0.057900
     20 C20        -8.5320   -0.1180   -1.2330 c3        1 GER     -0.057900
     21 H11         8.3690   -2.8320   -1.0980 hc        1 GER      0.040033
     22 H12         8.8410   -1.1350   -1.5300 hc        1 GER      0.040033
     23 H13         8.5230   -1.5730    0.1980 hc        1 GER      0.040033
     24 H21         6.0690   -2.2520   -1.0220 ha        1 GER      0.120000
     25 H41         7.7100    1.1280   -2.1430 hc        1 GER      0.041033
     26 H42         6.6530    1.9720   -0.9360 hc        1 GER      0.041033
     27 H43         8.0180    0.9190   -0.3710 hc        1 GER      0.041033
     28 H51         4.7280    0.9100   -2.1140 hc        1 GER      0.046200
     29 H52         4.3200   -0.7880   -1.6460 hc        1 GER      0.046200
     30 H61         4.3620   -0.1370    0.7850 hc        1 GER      0.050200
     31 H62         4.7740    1.5600    0.3290 hc        1 GER      0.050200
     32 H71         2.4080    0.9140   -1.2200 ha        1 GER      0.123000
     33 H91         3.4040    1.9110    2.3050 hc        1 GER      0.041367
     34 H92         1.6990    1.7720    2.9110 hc        1 GER      0.041367
     35 H93         2.6820    0.2780    2.6050 hc        1 GER      0.041367
     36 H101        0.3100    2.5680    1.0970 hc        1 GER      0.045700
     37 H102        0.3320    1.6960   -0.4860 hc        1 GER      0.045700
     38 H111       -0.1490   -0.4730    0.6840 hc        1 GER      0.050200
     39 H112       -0.1410    0.3740    2.2780 hc        1 GER      0.050200
     40 H121       -2.0160    1.8600    0.6350 ha        1 GER      0.123000
     41 H141       -1.8180   -1.3410    2.6670 hc        1 GER      0.041367
     42 H142       -3.4900   -1.8490    2.1770 hc        1 GER      0.041367
     43 H143       -2.1110   -2.0070    1.0090 hc        1 GER      0.041367
     44 H151       -4.7760    0.1990    2.0980 hc        1 GER      0.045700
     45 H152       -4.3060    1.4960    0.9290 hc        1 GER      0.045700
     46 H161       -4.3540   -0.1610   -0.9560 hc        1 GER      0.049700
     47 H162       -4.7870   -1.4780    0.1980 hc        1 GER      0.049700
     48 H171       -6.7410    0.6330    0.6460 ha        1 GER      0.122000
     49 H191       -6.0520   -2.2520   -1.7470 hc        1 GER      0.040533
     50 H192       -7.3970   -1.7410   -2.8540 hc        1 GER      0.040533
     51 H193       -5.8360   -0.8170   -2.8280 hc        1 GER      0.040533
     52 H201       -8.8430    0.5770   -0.4150 hc        1 GER      0.040533
     53 H202       -8.7310    0.3810   -2.2150 hc        1 GER      0.040533
     54 H203       -9.1660   -1.0380   -1.1740 hc        1 GER      0.040533
@<TRIPOS>BOND
     1    1    2 1   
     2    1   21 1   
     3    1   22 1   
     4    1   23 1   
     5    2    3 2   
     6    2   24 1   
     7    3    4 1   
     8    3    5 1   
     9    4   25 1   
    10    4   26 1   
    11    4   27 1   
    12    5    6 1   
    13    5   28 1   
    14    5   29 1   
    15    6    7 1   
    16    6   30 1   
    17    6   31 1   
    18    7    8 2   
    19    7   32 1   
    20    8    9 1   
    21    8   10 1   
    22    9   33 1   
    23    9   34 1   
    24    9   35 1   
    25   10   11 1   
    26   10   36 1   
    27   10   37 1   
    28   11   12 1   
    29   11   38 1   
    30   11   39 1   
    31   12   13 2   
    32   12   40 1   
    33   13   14 1   
    34   13   15 1   
    35   14   41 1   
    36   14   42 1   
    37   14   43 1   
    38   15   16 1   
    39   15   44 1   
    40   15   45 1   
    41   16   17 1   
    42   16   46 1   
    43   16   47 1   
    44   17   18 2   
    45   17   48 1   
    46   18   19 1   
    47   18   20 1   
    48   19   49 1   
    49   19   50 1   
    50   19   51 1   
    51   20   52 1   
    52   20   53 1   
    53   20   54 1   
@<TRIPOS>SUBSTRUCTURE
     1 GER         1 TEMP              0 ****  ****    0 ROOT
