@<TRIPOS>MOLECULE
GER
   54    53     1     0     0
SMALL
bcc


@<TRIPOS>ATOM
      1 C1         -0.0450   -1.1410    1.8700 c3        1 GER     -0.061900
      2 C2          1.3520   -0.6790    1.9830 c2        1 GER     -0.174200
      3 C3          1.7580    0.5680    1.6930 c2        1 GER     -0.122400
      4 C4          0.8230    1.6140    1.2130 c3        1 GER     -0.058900
      5 C5          3.1840    0.9750    1.8450 c3        1 GER     -0.039200
      6 C6          3.8250    1.2800    0.5020 c3        1 GER     -0.044200
      7 C7          5.2250    1.7400    0.6480 c2        1 GER     -0.173200
      8 C8          6.0530    1.9310   -0.3930 c2        1 GER     -0.124400
      9 C9          5.6280    1.6850   -1.7920 c3        1 GER     -0.058900
     10 C10         7.4490    2.4120   -0.1960 c3        1 GER     -0.038200
     11 C11         8.4650    1.3360   -0.5360 c3        1 GER     -0.044200
     12 C12         9.8570    1.8230   -0.3950 c2        1 GER     -0.174200
     13 C13        10.9330    1.0250   -0.4930 c2        1 GER     -0.123400
     14 C14        10.8140   -0.4310   -0.7440 c3        1 GER     -0.058900
     15 C15        12.3160    1.5660   -0.3620 c3        1 GER     -0.038200
     16 C16        12.9900    1.0800    0.9080 c3        1 GER     -0.043200
     17 C17        14.3840    1.5670    1.0190 c2        1 GER     -0.177200
     18 C18        15.1480    1.3790    2.1070 c2        1 GER     -0.124400
     19 C19        14.6510    0.6650    3.3080 c3        1 GER     -0.057900
     20 C20        16.5420    1.8780    2.1790 c3        1 GER     -0.057900
     21 H11        -0.0930   -2.2570    1.8390 hc        1 GER      0.039700
     22 H12        -0.6410   -0.7890    2.7510 hc        1 GER      0.039700
     23 H13        -0.5290   -0.7410    0.9440 hc        1 GER      0.039700
     24 H21         2.0750   -1.4310    2.3390 ha        1 GER      0.120000
     25 H41         0.5710    1.4390    0.1370 hc        1 GER      0.041033
     26 H42         1.2710    2.6330    1.3080 hc        1 GER      0.041033
     27 H43        -0.1300    1.5910    1.8000 hc        1 GER      0.041033
     28 H51         3.2350    1.8870    2.4990 hc        1 GER      0.045700
     29 H52         3.7700    0.1660    2.3580 hc        1 GER      0.045700
     30 H61         3.2240    2.0710   -0.0270 hc        1 GER      0.050200
     31 H62         3.7920    0.3620   -0.1460 hc        1 GER      0.050200
     32 H71         5.5690    1.9280    1.6780 ha        1 GER      0.123000
     33 H91         6.3800    2.0750   -2.5210 hc        1 GER      0.041367
     34 H92         4.6460    2.1810   -1.9960 hc        1 GER      0.041367
     35 H93         5.5030    0.5870   -1.9690 hc        1 GER      0.041367
     36 H101        7.6040    2.7430    0.8660 hc        1 GER      0.045700
     37 H102        7.6220    3.3090   -0.8510 hc        1 GER      0.045700
     38 H111        8.3060    0.4460    0.1320 hc        1 GER      0.050200
     39 H112        8.2970    0.9830   -1.5910 hc        1 GER      0.050200
     40 H121        9.9760    2.9020   -0.2060 ha        1 GER      0.123000
     41 H141       11.8060   -0.8870   -0.9820 hc        1 GER      0.041367
     42 H142       10.1200   -0.6250   -1.6010 hc        1 GER      0.041367
     43 H143       10.3970   -0.9450    0.1590 hc        1 GER      0.041367
     44 H151       12.2990    2.6890   -0.3630 hc        1 GER      0.045700
     45 H152       12.9200    1.2430   -1.2530 hc        1 GER      0.045700
     46 H161       12.9840   -0.0450    0.9270 hc        1 GER      0.049700
     47 H162       12.3970    1.4210    1.8010 hc        1 GER      0.049700
     48 H171       14.7810    2.1050    0.1430 ha        1 GER      0.122000
     49 H191       13.8450    1.2620    3.8050 hc        1 GER      0.040533
     50 H192       15.4700    0.4930    4.0480 hc        1 GER      0.040533
     51 H193       14.2170   -0.3270    3.0220 hc        1 GER      0.040533
     52 H201       16.8320    2.4310    1.2530 hc        1 GER      0.040533
     53 H202       17.2490    1.0210    2.3150 hc        1 GER      0.040533
     54 H203       16.6580    2.5660    3.0540 hc        1 GER      0.040533
@<TRIPOS>BOND
     1    1    2 1   
     2    1   21 1   
     3    1   22 1   
     4    1   23 1   
     5    2    3 2   
     6    2   24 1   
     7    3    4 1   
     8    3    5 1   
     9    4   25 1   
    10    4   26 1   
    11    4   27 1   
    12    5    6 1   
    13    5   28 1   
    14    5   29 1   
    15    6    7 1   
    16    6   30 1   
    17    6   31 1   
    18    7    8 2   
    19    7   32 1   
    20    8    9 1   
    21    8   10 1   
    22    9   33 1   
    23    9   34 1   
    24    9   35 1   
    25   10   11 1   
    26   10   36 1   
    27   10   37 1   
    28   11   12 1   
    29   11   38 1   
    30   11   39 1   
    31   12   13 2   
    32   12   40 1   
    33   13   14 1   
    34   13   15 1   
    35   14   41 1   
    36   14   42 1   
    37   14   43 1   
    38   15   16 1   
    39   15   44 1   
    40   15   45 1   
    41   16   17 1   
    42   16   46 1   
    43   16   47 1   
    44   17   18 2   
    45   17   48 1   
    46   18   19 1   
    47   18   20 1   
    48   19   49 1   
    49   19   50 1   
    50   19   51 1   
    51   20   52 1   
    52   20   53 1   
    53   20   54 1   
@<TRIPOS>SUBSTRUCTURE
     1 GER         1 TEMP              0 ****  ****    0 ROOT
