@<TRIPOS>MOLECULE
GER
   54    49     1     0     0
SMALL
bcc


@<TRIPOS>ATOM
      1 C1         -8.7480   -0.9070    0.9560 c3        1 GER     -0.184000
      2 C2         -7.2760   -0.8840    1.3070 c2        1 GER     -0.170000
      3 C3         -6.3900   -1.5460    0.5380 c1        1 GER     -0.114000
      4 C4         -6.8660   -2.3130   -0.6760 c2        1 GER     -0.181250
      5 C5         -4.9180   -1.5230    0.8880 c3        1 GER     -0.122000
      6 C6         -4.2270   -0.4370    0.0930 c3        1 GER     -0.126000
      7 C7         -2.8200   -0.2470    0.6150 c2        1 GER     -0.170000
      8 C8         -2.0390    0.7260    0.1070 c1        1 GER     -0.116000
      9 C9         -2.5690    1.6290   -0.9850 c2        1 GER     -0.181250
     10 C10        -0.6320    0.9170    0.6300 c3        1 GER     -0.122000
     11 C11         0.3610    0.4590   -0.4160 c3        1 GER     -0.126000
     12 C12         1.6890    1.1460   -0.1870 c2        1 GER     -0.170000
     13 C13         2.7720    0.7730   -0.8960 c1        1 GER     -0.115000
     14 C14         2.6600   -0.3340   -1.9220 c2        1 GER     -0.181250
     15 C15         4.1000    1.4600   -0.6660 c3        1 GER     -0.121000
     16 C16         5.0830    0.4740   -0.0750 c3        1 GER     -0.126000
     17 C17         6.4950    0.9470   -0.3410 c2        1 GER     -0.173000
     18 C18         7.5200    0.4470    0.3770 c1        1 GER     -0.116000
     19 C19         7.2580   -0.5880    1.4490 c2        1 GER     -0.181250
     20 C20         8.9320    0.9210    0.1110 c3        1 GER     -0.178000
     21 H11        -8.8790   -0.5040    0.0730 hc        1 GER      0.079333
     22 H12        -9.0660   -1.8340    0.9430 hc        1 GER      0.079333
     23 H13        -9.2510   -0.3980    1.6260 hc        1 GER      0.079333
     24 H21        -6.9690   -0.3890    2.0900 ha        1 GER      0.120000
     25 H41        -7.2910   -1.6950   -1.3070 ha        1 GER      0.080417
     26 H42        -7.5140   -2.9940   -0.3990 ha        1 GER      0.080417
     27 H43        -6.1010   -2.7470   -1.1090 ha        1 GER      0.080417
     28 H51        -4.8140   -1.3430    1.8440 hc        1 GER      0.085500
     29 H52        -4.5180   -2.3890    0.6730 hc        1 GER      0.085500
     30 H61        -4.7250    0.4000    0.1840 hc        1 GER      0.089500
     31 H62        -4.1930   -0.6950   -0.8500 hc        1 GER      0.089500
     32 H71        -2.4790   -0.8290    1.3200 ha        1 GER      0.123000
     33 H91        -2.6880    1.1100   -1.8080 ha        1 GER      0.080417
     34 H92        -3.4300    2.0060   -0.7090 ha        1 GER      0.080417
     35 H93        -1.9310    2.3550   -1.1470 ha        1 GER      0.080417
     36 H101       -0.4830    1.8630    0.8280 hc        1 GER      0.085500
     37 H102       -0.5130    0.3890    1.4450 hc        1 GER      0.085500
     38 H111        0.4790   -0.5100   -0.3510 hc        1 GER      0.089500
     39 H112        0.0250    0.6870   -1.3060 hc        1 GER      0.089500
     40 H121        1.7610    1.8600    0.4750 ha        1 GER      0.123000
     41 H141        1.8910   -0.1620   -2.5050 ha        1 GER      0.080417
     42 H142        3.4790   -0.3640   -2.4600 ha        1 GER      0.080417
     43 H143        2.5380   -1.1920   -1.4640 ha        1 GER      0.080417
     44 H151        3.9770    2.2080   -0.0490 hc        1 GER      0.085000
     45 H152        4.4460    1.7940   -1.5180 hc        1 GER      0.085000
     46 H161        4.9510   -0.4040   -0.4850 hc        1 GER      0.089000
     47 H162        4.9370    0.4080    0.8900 hc        1 GER      0.089000
     48 H171        6.6630    1.6150   -1.0320 ha        1 GER      0.122000
     49 H191        8.1060   -0.8450    1.8680 ha        1 GER      0.080417
     50 H192        6.6590   -0.2120    2.1270 ha        1 GER      0.080417
     51 H193        6.8410   -1.3780    1.0450 ha        1 GER      0.080417
     52 H201        9.1100    0.8930   -0.8520 hc        1 GER      0.079667
     53 H202        9.5650    0.3370    0.5780 hc        1 GER      0.079667
     54 H203        9.0340    1.8400    0.4350 hc        1 GER      0.079667
@<TRIPOS>BOND
     1    1    2 1   
     2    1   21 1   
     3    1   22 1   
     4    1   23 1   
     5    2    3 1   
     6    2   24 1   
     7    3    5 1   
     8    4   25 1   
     9    4   26 1   
    10    4   27 1   
    11    5    6 1   
    12    5   28 1   
    13    5   29 1   
    14    6    7 1   
    15    6   30 1   
    16    6   31 1   
    17    7    8 1   
    18    7   32 1   
    19    8   10 1   
    20    9   33 1   
    21    9   34 1   
    22    9   35 1   
    23   10   11 1   
    24   10   36 1   
    25   10   37 1   
    26   11   12 1   
    27   11   38 1   
    28   11   39 1   
    29   12   13 1   
    30   12   40 1   
    31   13   15 1   
    32   14   41 1   
    33   14   42 1   
    34   14   43 1   
    35   15   16 1   
    36   15   44 1   
    37   15   45 1   
    38   16   17 1   
    39   16   46 1   
    40   16   47 1   
    41   17   18 1   
    42   17   48 1   
    43   18   20 1   
    44   19   49 1   
    45   19   50 1   
    46   19   51 1   
    47   20   52 1   
    48   20   53 1   
    49   20   54 1   
@<TRIPOS>SUBSTRUCTURE
     1 GER         1 TEMP              0 ****  ****    0 ROOT
