@<TRIPOS>MOLECULE
GER
   54    53     1     0     0
SMALL
bcc


@<TRIPOS>ATOM
      1 C1          0.0210   -1.1630    1.7820 c3        1 GER     -0.061900
      2 C2          1.4060   -0.6640    1.8850 c2        1 GER     -0.174200
      3 C3          1.7590    0.6200    1.7180 c2        1 GER     -0.122400
      4 C4          0.7690    1.6840    1.4220 c3        1 GER     -0.058900
      5 C5          3.1780    1.0580    1.8480 c3        1 GER     -0.039200
      6 C6          3.8190    1.2940    0.4920 c3        1 GER     -0.043200
      7 C7          5.2210    1.7570    0.6140 c2        1 GER     -0.174200
      8 C8          6.0510    1.8890   -0.4340 c2        1 GER     -0.124400
      9 C9          5.6270    1.5690   -1.8190 c3        1 GER     -0.058900
     10 C10         7.4480    2.3760   -0.2610 c3        1 GER     -0.038200
     11 C11         8.4620    1.2810   -0.5430 c3        1 GER     -0.043200
     12 C12         9.8550    1.7700   -0.4270 c2        1 GER     -0.174200
     13 C13        10.9290    0.9660   -0.4840 c2        1 GER     -0.123400
     14 C14        10.8050   -0.5010   -0.6620 c3        1 GER     -0.058900
     15 C15        12.3120    1.5090   -0.3800 c3        1 GER     -0.038200
     16 C16        12.9850    1.0860    0.9130 c3        1 GER     -0.043200
     17 C17        14.3800    1.5750    1.0000 c2        1 GER     -0.177200
     18 C18        15.1450    1.4370    2.0960 c2        1 GER     -0.124400
     19 C19        14.6460    0.7840    3.3300 c3        1 GER     -0.057900
     20 C20        16.5400    1.9360    2.1440 c3        1 GER     -0.057900
     21 H11        -0.0780   -2.1640    2.2670 hc        1 GER      0.040033
     22 H12        -0.6980   -0.4600    2.2730 hc        1 GER      0.040033
     23 H13        -0.2750   -1.2630    0.7060 hc        1 GER      0.040033
     24 H21         2.1720   -1.4250    2.1080 ha        1 GER      0.120000
     25 H41         0.0120    1.3270    0.6800 hc        1 GER      0.041033
     26 H42         1.2660    2.5960    1.0090 hc        1 GER      0.041033
     27 H43         0.2280    1.9720    2.3590 hc        1 GER      0.041033
     28 H51         3.2160    2.0070    2.4490 hc        1 GER      0.046200
     29 H52         3.7730    0.2870    2.4070 hc        1 GER      0.046200
     30 H61         3.2230    2.0600   -0.0780 hc        1 GER      0.050200
     31 H62         3.7840    0.3450   -0.1090 hc        1 GER      0.050200
     32 H71         5.5640    2.0000    1.6330 ha        1 GER      0.123000
     33 H91         6.3790    1.9210   -2.5670 hc        1 GER      0.041367
     34 H92         4.6440    2.0530   -2.0490 hc        1 GER      0.041367
     35 H93         5.5020    0.4630   -1.9370 hc        1 GER      0.041367
     36 H101        7.6030    2.7610    0.7820 hc        1 GER      0.045700
     37 H102        7.6240    3.2370   -0.9620 hc        1 GER      0.045700
     38 H111        8.2990    0.4270    0.1710 hc        1 GER      0.050200
     39 H112        8.2930    0.8730   -1.5780 hc        1 GER      0.050200
     40 H121        9.9770    2.8580   -0.2920 ha        1 GER      0.123000
     41 H141       11.7960   -0.9710   -0.8740 hc        1 GER      0.041367
     42 H142       10.1120   -0.7360   -1.5090 hc        1 GER      0.041367
     43 H143       10.3850   -0.9670    0.2660 hc        1 GER      0.041367
     44 H151       12.2980    2.6300   -0.4380 hc        1 GER      0.045700
     45 H152       12.9160    1.1400   -1.2530 hc        1 GER      0.045700
     46 H161       12.9760   -0.0370    0.9900 hc        1 GER      0.049700
     47 H162       12.3930    1.4730    1.7880 hc        1 GER      0.049700
     48 H171       14.7780    2.0690    0.0990 ha        1 GER      0.122000
     49 H191       13.8390    1.4050    3.7960 hc        1 GER      0.040533
     50 H192       15.4640    0.6480    4.0780 hc        1 GER      0.040533
     51 H193       14.2110   -0.2200    3.0930 hc        1 GER      0.040533
     52 H201       16.8310    2.4430    1.1920 hc        1 GER      0.040533
     53 H202       17.2450    1.0850    2.3210 hc        1 GER      0.040533
     54 H203       16.6570    2.6660    2.9830 hc        1 GER      0.040533
@<TRIPOS>BOND
     1    1    2 1   
     2    1   21 1   
     3    1   22 1   
     4    1   23 1   
     5    2    3 2   
     6    2   24 1   
     7    3    4 1   
     8    3    5 1   
     9    4   25 1   
    10    4   26 1   
    11    4   27 1   
    12    5    6 1   
    13    5   28 1   
    14    5   29 1   
    15    6    7 1   
    16    6   30 1   
    17    6   31 1   
    18    7    8 2   
    19    7   32 1   
    20    8    9 1   
    21    8   10 1   
    22    9   33 1   
    23    9   34 1   
    24    9   35 1   
    25   10   11 1   
    26   10   36 1   
    27   10   37 1   
    28   11   12 1   
    29   11   38 1   
    30   11   39 1   
    31   12   13 2   
    32   12   40 1   
    33   13   14 1   
    34   13   15 1   
    35   14   41 1   
    36   14   42 1   
    37   14   43 1   
    38   15   16 1   
    39   15   44 1   
    40   15   45 1   
    41   16   17 1   
    42   16   46 1   
    43   16   47 1   
    44   17   18 2   
    45   17   48 1   
    46   18   19 1   
    47   18   20 1   
    48   19   49 1   
    49   19   50 1   
    50   19   51 1   
    51   20   52 1   
    52   20   53 1   
    53   20   54 1   
@<TRIPOS>SUBSTRUCTURE
     1 GER         1 TEMP              0 ****  ****    0 ROOT
