@<TRIPOS>MOLECULE
GF1
   31    33     1     0     0
SMALL
bcc


@<TRIPOS>ATOM
      1 O10        -0.0630   -0.2080   -0.0460 o         1 GF1     -0.613000
      2 C7          1.1730   -0.1240   -0.0240 c         1 GF1      0.720000
      3 N8          1.9820   -0.3370    1.1130 n         1 GF1     -0.451400
      4 C12         1.4330   -0.2310    2.4580 c3        1 GF1     -0.037300
      5 C14         1.4510    1.2170    3.0720 c         1 GF1      0.916600
      6 O16         1.0040    1.3130    4.2460 o         1 GF1     -0.830300
      7 O15         1.8610    2.1820    2.3720 o         1 GF1     -0.830300
      8 C13         2.0780   -1.1960    3.4430 c3        1 GF1     -0.087100
      9 C2          2.0480    0.1000   -1.2540 c3        1 GF1     -0.153700
     10 C3          3.5110    0.0360   -0.7100 c3        1 GF1     -0.153700
     11 C9          3.3520   -0.2010    0.7940 c         1 GF1      0.720000
     12 O11         4.3020   -0.3590    1.5710 o         1 GF1     -0.613000
     13 C1          1.9640    1.4990   -1.8920 c3        1 GF1     -0.056700
     14 C6          2.0090    2.5640   -0.7790 c3        1 GF1     -0.088400
     15 C5          3.4590    2.5020   -0.2610 c3        1 GF1     -0.088400
     16 C17         3.3980    1.6230   -2.4800 c3        1 GF1     -0.095400
     17 C4          4.1080    1.3970   -1.1150 c3        1 GF1     -0.056700
     18 H12         0.3370   -0.5000    2.3580 h1        1 GF1      0.065700
     19 H13         3.1740   -1.0040    3.5320 hc        1 GF1      0.037367
     20 H13A        1.6020   -1.0220    4.4400 hc        1 GF1      0.037367
     21 H13B        1.9210   -2.2580    3.1380 hc        1 GF1      0.037367
     22 H2          1.8370   -0.6940   -2.0090 hc        1 GF1      0.067200
     23 H3          4.0950   -0.8040   -1.1550 hc        1 GF1      0.067200
     24 H1          1.1280    1.6150   -2.6070 hc        1 GF1      0.063200
     25 H6          1.7740    3.5700   -1.2000 hc        1 GF1      0.071200
     26 H6A         1.2900    2.3510    0.0530 hc        1 GF1      0.071200
     27 H5          3.9860    3.4720   -0.4240 hc        1 GF1      0.071200
     28 H5A         3.4750    2.2680    0.8360 hc        1 GF1      0.071200
     29 H17         3.6010    2.6290   -2.9060 hc        1 GF1      0.038200
     30 H17A        3.6330    0.8400   -3.2330 hc        1 GF1      0.038200
     31 H4          5.2140    1.4130   -1.1270 hc        1 GF1      0.063200
@<TRIPOS>BOND
     1    1    2 2   
     2    2    3 1   
     3    2    9 1   
     4    3    4 1   
     5    3   11 1   
     6    4    5 1   
     7    4    8 1   
     8    4   18 1   
     9    5    6 1   
    10    5    7 1   
    11    8   19 1   
    12    8   20 1   
    13    8   21 1   
    14    9   10 1   
    15    9   13 1   
    16    9   22 1   
    17   10   11 1   
    18   10   17 1   
    19   10   23 1   
    20   11   12 2   
    21   13   14 1   
    22   13   16 1   
    23   13   24 1   
    24   14   15 1   
    25   14   25 1   
    26   14   26 1   
    27   15   17 1   
    28   15   27 1   
    29   15   28 1   
    30   16   17 1   
    31   16   29 1   
    32   16   30 1   
    33   17   31 1   
@<TRIPOS>SUBSTRUCTURE
     1 GF1         1 TEMP              0 ****  ****    0 ROOT
