@<TRIPOS>MOLECULE
GF1
   31    32     1     0     0
SMALL
bcc


@<TRIPOS>ATOM
      1 O10        -2.5250   -0.6210   -0.2250 o         1 GF1     -0.343000
      2 C7         -1.2970   -0.5030   -0.2180 c1        1 GF1      0.323000
      3 N8         -0.4280   -0.4910    0.9960 n2        1 GF1     -0.280000
      4 C12        -0.8820   -0.5570    2.3600 c3        1 GF1     -0.064000
      5 C14         0.3120   -0.4910    3.2960 c2        1 GF1      0.336000
      6 O16         1.1400   -1.4550    3.3400 o         1 GF1     -0.565000
      7 O15         0.4930    0.5290    4.0160 o         1 GF1     -0.565000
      8 C13        -1.6090   -1.8360    2.5800 c3        1 GF1     -0.205000
      9 C2         -0.3960   -0.5900   -1.4210 c3        1 GF1     -0.142000
     10 C3          0.9830   -0.6460   -0.9600 c3        1 GF1     -0.144000
     11 C9          0.9850   -0.5700    0.5440 c2        1 GF1      0.332000
     12 O11         1.9750   -0.6020    1.2690 o         1 GF1     -0.332000
     13 C1         -0.4230    0.7030   -2.2380 c3        1 GF1     -0.097000
     14 C6         -0.4320    1.8070   -1.2920 c3        1 GF1     -0.164000
     15 C5          1.1030    1.7170   -0.7600 c3        1 GF1     -0.170000
     16 C17         0.8480    0.7400   -2.7100 c3        1 GF1     -0.174000
     17 C4          1.5700    0.5720   -1.5600 c3        1 GF1     -0.095000
     18 H12        -1.4880    0.2020    2.5440 h1        1 GF1      0.105000
     19 H13        -2.5180   -1.7520    2.2540 hc        1 GF1      0.076667
     20 H13A       -1.1570   -2.5530    2.0990 hc        1 GF1      0.076667
     21 H13B       -1.6230   -2.0410    3.5350 hc        1 GF1      0.076667
     22 H2         -0.6140   -1.3630   -1.9760 hc        1 GF1      0.107000
     23 H3          1.4320   -1.4510   -1.2770 hc        1 GF1      0.106000
     24 H1         -1.1230    0.7440   -2.9370 hc        1 GF1      0.102000
     25 H6         -0.6040    2.6620   -1.7450 hc        1 GF1      0.106500
     26 H6A        -1.0760    1.6470   -0.5610 hc        1 GF1      0.106500
     27 H5          1.1360    1.5210    0.1870 hc        1 GF1      0.114000
     28 H5A         1.6040    2.5300   -0.9780 hc        1 GF1      0.114000
     29 H17         1.0440    1.6120   -3.1250 hc        1 GF1      0.077500
     30 H17A        1.0120   -0.0000   -3.3420 hc        1 GF1      0.077500
     31 H4          2.5560    0.5350   -1.6970 hc        1 GF1      0.103000
@<TRIPOS>BOND
     1    1    2 1   
     2    2    9 1   
     3    3    4 1   
     4    3   11 1   
     5    4    5 1   
     6    4    8 1   
     7    4   18 1   
     8    5    6 1   
     9    5    7 1   
    10    8   19 1   
    11    8   20 1   
    12    8   21 1   
    13    9   10 1   
    14    9   13 1   
    15    9   22 1   
    16   10   11 1   
    17   10   17 1   
    18   10   23 1   
    19   11   12 1   
    20   13   14 1   
    21   13   16 1   
    22   13   24 1   
    23   14   15 1   
    24   14   25 1   
    25   14   26 1   
    26   15   17 1   
    27   15   27 1   
    28   15   28 1   
    29   16   17 1   
    30   16   29 1   
    31   16   30 1   
    32   17   31 1   
@<TRIPOS>SUBSTRUCTURE
     1 GF1         1 TEMP              0 ****  ****    0 ROOT
