@<TRIPOS>MOLECULE
GF1
   31    33     1     0     0
SMALL
bcc


@<TRIPOS>ATOM
      1 O10        -0.0720   -0.1860   -0.0440 o         1 GF1     -0.613000
      2 C7          1.1640   -0.1120   -0.0250 c         1 GF1      0.720000
      3 N8          1.9760   -0.3380    1.1070 n         1 GF1     -0.451400
      4 C12         1.4320   -0.2370    2.4550 c3        1 GF1     -0.037300
      5 C14         1.4640    1.2070    3.0780 c         1 GF1      0.916600
      6 O16         1.0200    1.2990    4.2540 o         1 GF1     -0.830300
      7 O15         1.8790    2.1740    2.3840 o         1 GF1     -0.830300
      8 C13         2.0730   -1.2130    3.4310 c3        1 GF1     -0.087100
      9 C2          2.0380    0.1130   -1.2570 c3        1 GF1     -0.153700
     10 C3          3.5020    0.0340   -0.7180 c3        1 GF1     -0.153700
     11 C9          3.3460   -0.2110    0.7850 c         1 GF1      0.720000
     12 O11         4.2970   -0.3820    1.5570 o         1 GF1     -0.613000
     13 C1          1.9620    1.5180   -1.8850 c3        1 GF1     -0.056700
     14 C6          2.0200    2.5750   -0.7650 c3        1 GF1     -0.088400
     15 C5          3.4700    2.4980   -0.2540 c3        1 GF1     -0.088400
     16 C17         3.3960    1.6340   -2.4780 c3        1 GF1     -0.095400
     17 C4          4.1080    1.3930   -1.1160 c3        1 GF1     -0.056700
     18 H12         0.3340   -0.4970    2.3570 h1        1 GF1      0.065700
     19 H13         1.9080   -2.2720    3.1210 hc        1 GF1      0.037367
     20 H13A        3.1710   -1.0300    3.5180 hc        1 GF1      0.037367
     21 H13B        1.6010   -1.0420    4.4310 hc        1 GF1      0.037367
     22 H2          1.8180   -0.6740   -2.0160 hc        1 GF1      0.067200
     23 H3          4.0780   -0.8070   -1.1710 hc        1 GF1      0.067200
     24 H1          1.1250    1.6450   -2.5970 hc        1 GF1      0.063200
     25 H6          1.3010    2.3620    0.0680 hc        1 GF1      0.070950
     26 H6A         1.7910    3.5850   -1.1800 hc        1 GF1      0.070950
     27 H5          3.4890    2.2570    0.8420 hc        1 GF1      0.070950
     28 H5A         4.0040    3.4650   -0.4120 hc        1 GF1      0.070950
     29 H17         3.6220    0.8540   -3.2360 hc        1 GF1      0.038200
     30 H17A        3.6050    2.6410   -2.8980 hc        1 GF1      0.038200
     31 H4          5.2140    1.4010   -1.1330 hc        1 GF1      0.063200
@<TRIPOS>BOND
     1    1    2 2   
     2    2    3 1   
     3    2    9 1   
     4    3    4 1   
     5    3   11 1   
     6    4    5 1   
     7    4    8 1   
     8    4   18 1   
     9    5    6 1   
    10    5    7 1   
    11    8   19 1   
    12    8   20 1   
    13    8   21 1   
    14    9   10 1   
    15    9   13 1   
    16    9   22 1   
    17   10   11 1   
    18   10   17 1   
    19   10   23 1   
    20   11   12 2   
    21   13   14 1   
    22   13   16 1   
    23   13   24 1   
    24   14   15 1   
    25   14   25 1   
    26   14   26 1   
    27   15   17 1   
    28   15   27 1   
    29   15   28 1   
    30   16   17 1   
    31   16   29 1   
    32   16   30 1   
    33   17   31 1   
@<TRIPOS>SUBSTRUCTURE
     1 GF1         1 TEMP              0 ****  ****    0 ROOT
