@<TRIPOS>MOLECULE
GF1
   31    33     1     0     0
SMALL
bcc


@<TRIPOS>ATOM
      1 O10         0.1510   -2.6080   -0.7340 o         1 GF1     -0.613000
      2 C7          0.3820   -1.6090   -0.0400 c         1 GF1      0.720000
      3 N8         -0.5930   -0.8440    0.6360 n         1 GF1     -0.451400
      4 C12        -1.9910   -0.8770    0.2280 c3        1 GF1     -0.037300
      5 C14        -2.3800    0.1510   -0.8970 c         1 GF1      0.916600
      6 O16        -3.5940    0.1490   -1.2360 o         1 GF1     -0.830300
      7 O15        -1.4860    0.8740   -1.4130 o         1 GF1     -0.830300
      8 C13        -2.9560   -0.7250    1.3950 c3        1 GF1     -0.087100
      9 C2          1.7790   -1.1010    0.3090 c3        1 GF1     -0.153700
     10 C3          1.5280    0.1090    1.2640 c3        1 GF1     -0.153700
     11 C9          0.0030    0.2070    1.3680 c         1 GF1      0.720000
     12 O11        -0.5870    1.0260    2.0840 o         1 GF1     -0.613000
     13 C1          2.5780   -0.4810   -0.8530 c3        1 GF1     -0.056700
     14 C6          1.6550    0.4590   -1.6540 c3        1 GF1     -0.088400
     15 C5          1.4280    1.6530   -0.7090 c3        1 GF1     -0.088400
     16 C17         3.4460    0.5480   -0.0740 c3        1 GF1     -0.095400
     17 C4          2.2280    1.2830    0.5540 c3        1 GF1     -0.056700
     18 H12        -2.1460   -1.8990   -0.2340 h1        1 GF1      0.065700
     19 H13        -2.8020    0.2500    1.9180 hc        1 GF1      0.037367
     20 H13A       -3.9920   -0.7450    0.9750 hc        1 GF1      0.037367
     21 H13B       -2.8400   -1.5530    2.1340 hc        1 GF1      0.037367
     22 H2          2.3580   -1.9190    0.7980 hc        1 GF1      0.067200
     23 H3          1.9560   -0.0540    2.2810 hc        1 GF1      0.067200
     24 H1          3.1250   -1.2220   -1.4650 hc        1 GF1      0.063200
     25 H6          2.1600    0.7800   -2.5960 hc        1 GF1      0.070950
     26 H6A         0.6780   -0.0190   -1.9200 hc        1 GF1      0.070950
     27 H5          1.8250    2.5980   -1.1510 hc        1 GF1      0.070950
     28 H5A         0.3340    1.7900   -0.5030 hc        1 GF1      0.070950
     29 H17         4.1130    0.0770    0.6800 hc        1 GF1      0.038200
     30 H17A        4.0410    1.2020   -0.7470 hc        1 GF1      0.038200
     31 H4          2.4590    2.1350    1.2200 hc        1 GF1      0.063200
@<TRIPOS>BOND
     1    1    2 2   
     2    2    3 1   
     3    2    9 1   
     4    3    4 1   
     5    3   11 1   
     6    4    5 1   
     7    4    8 1   
     8    4   18 1   
     9    5    6 1   
    10    5    7 1   
    11    8   19 1   
    12    8   20 1   
    13    8   21 1   
    14    9   10 1   
    15    9   13 1   
    16    9   22 1   
    17   10   11 1   
    18   10   17 1   
    19   10   23 1   
    20   11   12 2   
    21   13   14 1   
    22   13   16 1   
    23   13   24 1   
    24   14   15 1   
    25   14   25 1   
    26   14   26 1   
    27   15   17 1   
    28   15   27 1   
    29   15   28 1   
    30   16   17 1   
    31   16   29 1   
    32   16   30 1   
    33   17   31 1   
@<TRIPOS>SUBSTRUCTURE
     1 GF1         1 TEMP              0 ****  ****    0 ROOT
