@<TRIPOS>MOLECULE
GF1
   31    33     1     0     0
SMALL
bcc


@<TRIPOS>ATOM
      1 O10        -0.0690   -0.1920   -0.0470 o         1 GF1     -0.613000
      2 C7          1.1670   -0.1160   -0.0250 c         1 GF1      0.720000
      3 N8          1.9770   -0.3370    1.1100 n         1 GF1     -0.451400
      4 C12         1.4290   -0.2330    2.4560 c3        1 GF1     -0.037300
      5 C14         1.4570    1.2130    3.0750 c         1 GF1      0.916600
      6 O16         1.0110    1.3070    4.2500 o         1 GF1     -0.830300
      7 O15         1.8710    2.1790    2.3780 o         1 GF1     -0.830300
      8 C13         2.0700   -1.2050    3.4360 c3        1 GF1     -0.087100
      9 C2          2.0420    0.1080   -1.2560 c3        1 GF1     -0.153700
     10 C3          3.5050    0.0330   -0.7140 c3        1 GF1     -0.153700
     11 C9          3.3460   -0.2080    0.7900 c         1 GF1      0.720000
     12 O11         4.2970   -0.3740    1.5640 o         1 GF1     -0.613000
     13 C1          1.9660    1.5100   -1.8890 c3        1 GF1     -0.056700
     14 C6          2.0180    2.5710   -0.7720 c3        1 GF1     -0.088400
     15 C5          3.4680    2.4990   -0.2560 c3        1 GF1     -0.088400
     16 C17         3.4000    1.6270   -2.4780 c3        1 GF1     -0.095400
     17 C4          4.1100    1.3920   -1.1150 c3        1 GF1     -0.056700
     18 H12         0.3320   -0.4950    2.3570 h1        1 GF1      0.065700
     19 H13         1.9070   -2.2650    3.1280 hc        1 GF1      0.037367
     20 H13A        3.1680   -1.0190    3.5250 hc        1 GF1      0.037367
     21 H13B        1.5960   -1.0320    4.4340 hc        1 GF1      0.037367
     22 H2          1.8260   -0.6820   -2.0130 hc        1 GF1      0.067200
     23 H3          4.0840   -0.8080   -1.1620 hc        1 GF1      0.067200
     24 H1          1.1300    1.6330   -2.6020 hc        1 GF1      0.063200
     25 H6          1.7880    3.5790   -1.1900 hc        1 GF1      0.070950
     26 H6A         1.2990    2.3590    0.0600 hc        1 GF1      0.070950
     27 H5          4.0000    3.4660   -0.4170 hc        1 GF1      0.070950
     28 H5A         3.4850    2.2600    0.8400 hc        1 GF1      0.070950
     29 H17         3.6080    2.6340   -2.9010 hc        1 GF1      0.038200
     30 H17A        3.6290    0.8460   -3.2340 hc        1 GF1      0.038200
     31 H4          5.2160    1.4020   -1.1280 hc        1 GF1      0.063200
@<TRIPOS>BOND
     1    1    2 2   
     2    2    3 1   
     3    2    9 1   
     4    3    4 1   
     5    3   11 1   
     6    4    5 1   
     7    4    8 1   
     8    4   18 1   
     9    5    6 1   
    10    5    7 1   
    11    8   19 1   
    12    8   20 1   
    13    8   21 1   
    14    9   10 1   
    15    9   13 1   
    16    9   22 1   
    17   10   11 1   
    18   10   17 1   
    19   10   23 1   
    20   11   12 2   
    21   13   14 1   
    22   13   16 1   
    23   13   24 1   
    24   14   15 1   
    25   14   25 1   
    26   14   26 1   
    27   15   17 1   
    28   15   27 1   
    29   15   28 1   
    30   16   17 1   
    31   16   29 1   
    32   16   30 1   
    33   17   31 1   
@<TRIPOS>SUBSTRUCTURE
     1 GF1         1 TEMP              0 ****  ****    0 ROOT
