@<TRIPOS>MOLECULE
GF2
   35    37     1     0     0
SMALL
bcc


@<TRIPOS>ATOM
      1 F          -0.0760   -3.6720   -0.3590 f         1 GF2     -0.248300
      2 P           3.7030    0.6110   -1.1680 p5        1 GF2      1.344900
      3 N1         -5.1540    1.0830   -0.1100 n         1 GF2     -0.495400
      4 C2         -4.8580   -0.1060    0.5850 cc        1 GF2      0.573800
      5 N2         -5.9830   -0.7530    1.2240 nh        1 GF2     -0.863800
      6 N3         -3.6410   -0.6620    0.6640 nd        1 GF2     -0.617100
      7 C4         -2.6450    0.0070   -0.0310 cd        1 GF2      0.030800
      8 C5         -2.8480    1.2240   -0.7810 cc        1 GF2      0.210800
      9 C6         -4.1730    1.8000   -0.8440 c         1 GF2      0.641000
     10 O6         -4.5600    2.8220   -1.4400 o         1 GF2     -0.651500
     11 N7         -1.6460    1.6400   -1.3490 nc        1 GF2     -0.644000
     12 C8         -0.7260    0.7240   -0.9700 cd        1 GF2      0.464400
     13 N9         -1.2880   -0.3070   -0.1730 na        1 GF2     -0.200900
     14 C1'        -0.6510   -1.4650    0.4390 c3        1 GF2      0.219800
     15 OP2         4.0230   -0.7980   -1.6110 o         1 GF2     -0.923833
     16 C2'         0.1610   -2.3310   -0.5960 c3        1 GF2      0.130600
     17 OP1         2.2820    0.9770   -1.5540 o         1 GF2     -0.923833
     18 C3'         1.6150   -1.8720   -0.3550 c3        1 GF2      0.089100
     19 O3'         2.5120   -2.9500   -0.4200 oh        1 GF2     -0.640800
     20 C4'         1.6230   -1.1960    1.0290 c3        1 GF2      0.064100
     21 O4'         0.2460   -1.0940    1.4740 os        1 GF2     -0.429600
     22 C5'         2.2340    0.2280    1.0240 c3        1 GF2      0.224400
     23 O5'         3.5030    0.2670    0.5220 os        1 GF2     -0.567200
     24 OP3         4.7500    1.6720   -1.2300 o         1 GF2     -0.923833
     25 HN1        -6.0940    1.4040   -0.1570 hn        1 GF2      0.318500
     26 HN2        -6.2410   -0.2420    2.0470 hn        1 GF2      0.374800
     27 HN2A       -5.7530   -1.6970    1.4720 hn        1 GF2      0.374800
     28 H8          0.3840    0.7670   -1.2380 h5        1 GF2      0.210100
     29 H1'        -1.4540   -2.0820    0.9390 h2        1 GF2      0.083700
     30 H2'        -0.1410   -2.1100   -1.6560 h1        1 GF2      0.068700
     31 H3'         1.8920   -1.0880   -1.1420 h1        1 GF2      0.165700
     32 HO3'        3.3290   -2.5710   -0.8190 ho        1 GF2      0.485000
     33 H4'         2.1310   -1.8470    1.7870 h1        1 GF2      0.054700
     34 H5'         1.5420    0.9100    0.4540 h1        1 GF2     -0.000300
     35 H5'A        2.2560    0.5620    2.1040 h1        1 GF2     -0.000300
@<TRIPOS>BOND
     1    1   16 1   
     2    2   15 1   
     3    2   17 1   
     4    2   23 1   
     5    2   24 1   
     6    3    4 1   
     7    3    9 1   
     8    3   25 1   
     9    4    5 1   
    10    4    6 2   
    11    5   26 1   
    12    5   27 1   
    13    6    7 1   
    14    7    8 2   
    15    7   13 1   
    16    8    9 1   
    17    8   11 1   
    18    9   10 2   
    19   11   12 2   
    20   12   13 1   
    21   12   28 1   
    22   13   14 1   
    23   14   16 1   
    24   14   21 1   
    25   14   29 1   
    26   16   18 1   
    27   16   30 1   
    28   18   19 1   
    29   18   20 1   
    30   18   31 1   
    31   19   32 1   
    32   20   21 1   
    33   20   22 1   
    34   20   33 1   
    35   22   23 1   
    36   22   34 1   
    37   22   35 1   
@<TRIPOS>SUBSTRUCTURE
     1 GF2         1 TEMP              0 ****  ****    0 ROOT
