@<TRIPOS>MOLECULE
GF2
   35    32     1     0     0
SMALL
bcc


@<TRIPOS>ATOM
      1 F          -3.3050   -1.1370    0.5320 f         1 GF2     -0.176000
      2 P           3.2080   -1.1170    4.1330 p3        1 GF2      2.517000
      3 N1          0.3710    2.6990   -3.8320 n3        1 GF2     -0.336000
      4 C2         -0.4160    3.0950   -2.6920 c2        1 GF2      0.135000
      5 N2         -0.6570    4.4590   -2.4440 n3        1 GF2     -0.303000
      6 N3         -0.9660    2.1110   -1.8260 n1        1 GF2     -0.193000
      7 C4         -0.7340    0.6490   -2.0940 c1        1 GF2     -0.111500
      8 C5          0.0010    0.2640   -3.1690 c1        1 GF2     -0.111500
      9 C6          0.6010    1.3160   -4.0910 c1        1 GF2      0.390000
     10 O6          1.2000    0.9690   -5.1210 o         1 GF2     -0.370000
     11 N7          0.0570   -1.0870   -3.1770 n2        1 GF2     -0.130000
     12 C8         -0.6420   -1.5430   -2.1100 c1        1 GF2     -0.018000
     13 N9         -1.1320   -0.4690   -1.4390 n2        1 GF2     -0.130000
     14 C1'        -1.2840   -0.3520   -0.0430 c2        1 GF2      0.128000
     15 OP2         3.9980   -1.8630    2.9660 o         1 GF2     -1.240333
     16 C2'        -1.8560   -1.3710    0.4200 c3        1 GF2      0.020000
     17 OP1         3.2250   -1.9570    5.3640 o         1 GF2     -1.240333
     18 C3'        -1.2390   -1.5730    1.8110 c3        1 GF2     -0.009000
     19 O3'        -2.1240   -1.2180    2.7720 oh        1 GF2     -0.373000
     20 C4'         0.0060   -0.6400    1.8630 c3        1 GF2     -0.047000
     21 O4'         0.1750   -0.2790    0.6670 os        1 GF2     -0.286000
     22 C5'         1.2500   -1.4250    2.3730 c3        1 GF2      0.051000
     23 O5'         1.6800   -0.8740    3.6680 o         1 GF2     -0.740000
     24 OP3         3.9100    0.2870    4.4390 o         1 GF2     -1.240333
     25 HN1         0.7920    3.3580   -4.3690 hn        1 GF2      0.234000
     26 HN2        -1.3190    4.7160   -1.8150 hn        1 GF2      0.173000
     27 HN2A       -0.2340    5.1080   -2.9650 hn        1 GF2      0.173000
     28 H8         -0.7310   -2.4910   -1.8360 DU        1 GF2      0.311000
     29 H1'        -1.8010    0.4400    0.1720 h4        1 GF2      0.121000
     30 H2'        -1.6840   -2.1300   -0.1320 h1        1 GF2      0.105000
     31 H3'        -0.9640   -2.5190    1.9310 h1        1 GF2      0.208000
     32 HO3'       -2.1950   -1.8800    3.3710 ho        1 GF2      0.284000
     33 H4'        -0.1730    0.1530    2.4490 h1        1 GF2      0.088000
     34 H5'         1.9550   -1.3440    1.7440 h1        1 GF2      0.058000
     35 H5'A        1.0250   -2.3530    2.4790 h1        1 GF2      0.058000
@<TRIPOS>BOND
     1    1   16 1   
     2    2   15 1   
     3    2   17 1   
     4    2   24 1   
     5    3    4 1   
     6    3    9 1   
     7    3   25 1   
     8    4    5 1   
     9    4    6 1   
    10    5   26 1   
    11    5   27 1   
    12    7    8 1   
    13    7   13 1   
    14    8   11 1   
    15    9   10 1   
    16   11   12 1   
    17   12   13 1   
    18   14   16 1   
    19   14   21 1   
    20   14   29 1   
    21   16   18 1   
    22   16   30 1   
    23   18   19 1   
    24   18   20 1   
    25   18   31 1   
    26   19   32 1   
    27   20   21 1   
    28   20   22 1   
    29   20   33 1   
    30   22   23 1   
    31   22   34 1   
    32   22   35 1   
@<TRIPOS>SUBSTRUCTURE
     1 GF2         1 TEMP              0 ****  ****    0 ROOT
