@<TRIPOS>MOLECULE
GF4
   24    25     1     0     0
SMALL
bcc


@<TRIPOS>ATOM
      1 O11        -0.0120    0.4930    0.0800 o         1 GF4     -0.505500
      2 C3          1.2120    0.4670    0.0750 c         1 GF4      0.675700
      3 C4          2.1890    0.1650    1.1650 cc        1 GF4     -0.211400
      4 C12         1.7570   -0.1920    2.5240 c3        1 GF4     -0.013200
      5 C13         0.9920    0.9270    3.1930 c3        1 GF4     -0.097100
      6 C5          3.4460    0.2500    0.6280 cd        1 GF4      0.071800
      7 C14         4.7540    0.0600    1.2810 c3        1 GF4     -0.055900
      8 N1          3.3860    0.5190   -0.8000 na        1 GF4     -0.481000
      9 N2          2.0430    0.8130   -1.1050 n         1 GF4     -0.277700
     10 C6          1.5790    0.3320   -2.3580 cc        1 GF4      0.465400
     11 N10         2.2420   -0.5720   -3.2350 na        1 GF4     -0.189400
     12 N9          1.4880   -0.6930   -4.3350 nc        1 GF4     -0.195800
     13 N8          0.4380    0.0290   -4.1750 nd        1 GF4     -0.048000
     14 N7          0.4130    0.6810   -3.0190 nd        1 GF4     -0.337000
     15 H12         1.0990   -1.1030    2.4630 hc        1 GF4      0.056200
     16 H12A        2.6510   -0.4650    3.1480 hc        1 GF4      0.056200
     17 H13         0.6380    0.5940    4.1990 hc        1 GF4      0.045700
     18 H13A        0.1040    1.2120    2.5770 hc        1 GF4      0.045700
     19 H13B        1.6380    1.8280    3.3250 hc        1 GF4      0.045700
     20 H14         4.6220   -0.0060    2.3890 hc        1 GF4      0.067033
     21 H14A        5.2310   -0.8880    0.9200 hc        1 GF4      0.067033
     22 H14B        5.4450    0.9100    1.0540 hc        1 GF4      0.067033
     23 HN10        3.1310   -1.0020   -3.1370 hn        1 GF4      0.339700
     24 H10         3.9410    1.3340   -1.0380 hn        1 GF4      0.407800
@<TRIPOS>BOND
     1    1    2 2   
     2    2    3 1   
     3    2    9 1   
     4    3    4 1   
     5    3    6 2   
     6    4    5 1   
     7    4   15 1   
     8    4   16 1   
     9    5   17 1   
    10    5   18 1   
    11    5   19 1   
    12    6    7 1   
    13    6    8 1   
    14    7   20 1   
    15    7   21 1   
    16    7   22 1   
    17    8    9 1   
    18    8   24 1   
    19    9   10 1   
    20   10   11 1   
    21   10   14 2   
    22   11   12 1   
    23   11   23 1   
    24   12   13 2   
    25   13   14 1   
@<TRIPOS>SUBSTRUCTURE
     1 GF4         1 TEMP              0 ****  ****    0 ROOT
