@<TRIPOS>MOLECULE
GF4
   24    25     1     0     0
SMALL
bcc


@<TRIPOS>ATOM
      1 O11        -0.0080    0.5090    0.0520 o         1 GF4     -0.505500
      2 C3          1.2150    0.4740    0.0620 c         1 GF4      0.675700
      3 C4          2.1780    0.1680    1.1640 cc        1 GF4     -0.211400
      4 C12         1.7270   -0.1820    2.5190 c3        1 GF4     -0.013200
      5 C13         0.9620    0.9430    3.1760 c3        1 GF4     -0.097100
      6 C5          3.4410    0.2430    0.6420 cd        1 GF4      0.071800
      7 C14         4.7400    0.0440    1.3110 c3        1 GF4     -0.055900
      8 N1          3.4010    0.5080   -0.7870 na        1 GF4     -0.481000
      9 N2          2.0640    0.8120   -1.1090 n         1 GF4     -0.277700
     10 C6          1.6110    0.3310   -2.3670 cc        1 GF4      0.465400
     11 N10         2.2770   -0.5800   -3.2330 na        1 GF4     -0.189400
     12 N9          1.5360   -0.6980   -4.3410 nc        1 GF4     -0.195800
     13 N8          0.4890    0.0330   -4.1960 nd        1 GF4     -0.048000
     14 N7          0.4560    0.6870   -3.0420 nd        1 GF4     -0.336000
     15 H12         1.0630   -1.0900    2.4520 hc        1 GF4      0.056200
     16 H12A        2.6110   -0.4610    3.1540 hc        1 GF4      0.056200
     17 H13         0.5930    0.6150    4.1780 hc        1 GF4      0.045700
     18 H13A        1.6120    1.8400    3.3130 hc        1 GF4      0.045700
     19 H13B        0.0830    1.2330    2.5480 hc        1 GF4      0.045700
     20 H14         4.5950   -0.0160    2.4180 hc        1 GF4      0.067033
     21 H14A        5.4410    0.8880    1.0880 hc        1 GF4      0.067033
     22 H14B        5.2130   -0.9090    0.9600 hc        1 GF4      0.067033
     23 HN10        3.1620   -1.0160   -3.1240 hn        1 GF4      0.339700
     24 H10         3.9640    1.3190   -1.0200 hn        1 GF4      0.407800
@<TRIPOS>BOND
     1    1    2 2   
     2    2    3 1   
     3    2    9 1   
     4    3    4 1   
     5    3    6 2   
     6    4    5 1   
     7    4   15 1   
     8    4   16 1   
     9    5   17 1   
    10    5   18 1   
    11    5   19 1   
    12    6    7 1   
    13    6    8 1   
    14    7   20 1   
    15    7   21 1   
    16    7   22 1   
    17    8    9 1   
    18    8   24 1   
    19    9   10 1   
    20   10   11 1   
    21   10   14 2   
    22   11   12 1   
    23   11   23 1   
    24   12   13 2   
    25   13   14 1   
@<TRIPOS>SUBSTRUCTURE
     1 GF4         1 TEMP              0 ****  ****    0 ROOT
