@<TRIPOS>MOLECULE
GF4
   24    25     1     0     0
SMALL
bcc


@<TRIPOS>ATOM
      1 O11         0.4030   -1.9730    0.3250 o         1 GF4     -0.505500
      2 C3          0.6550   -0.7760    0.3080 c         1 GF4      0.675700
      3 C4          1.9170   -0.0450   -0.0220 cc        1 GF4     -0.211400
      4 C12         3.1430   -0.7480   -0.4280 c3        1 GF4     -0.013200
      5 C13         3.6690   -1.6550    0.6610 c3        1 GF4     -0.097100
      6 C5          1.6600    1.2950    0.0920 cd        1 GF4      0.071800
      7 C14         2.5680    2.4390   -0.1100 c3        1 GF4     -0.055900
      8 N1          0.2610    1.5330    0.4080 na        1 GF4     -0.481000
      9 N2         -0.3110    0.2810    0.7010 n         1 GF4     -0.277700
     10 C6         -1.6490    0.0980    0.2590 cc        1 GF4      0.465400
     11 N10        -2.3940    0.9440   -0.6090 na        1 GF4     -0.189400
     12 N9         -3.6310    0.4400   -0.6990 nc        1 GF4     -0.195800
     13 N8         -3.6740   -0.6310    0.0090 nd        1 GF4     -0.048000
     14 N7         -2.5290   -0.9080    0.6210 nd        1 GF4     -0.336000
     15 H12         2.9170   -1.3640   -1.3430 hc        1 GF4      0.056200
     16 H12A        3.9320   -0.0020   -0.7140 hc        1 GF4      0.056200
     17 H13         2.8890   -2.3970    0.9580 hc        1 GF4      0.045700
     18 H13A        4.5660   -2.2070    0.2900 hc        1 GF4      0.045700
     19 H13B        3.9620   -1.0660    1.5620 hc        1 GF4      0.045700
     20 H14         2.2880    2.9930   -1.0430 hc        1 GF4      0.067033
     21 H14A        2.5160    3.1520    0.7510 hc        1 GF4      0.067033
     22 H14B        3.6220    2.0780   -0.2110 hc        1 GF4      0.067033
     23 HN10       -2.1240    1.7990   -1.0360 hn        1 GF4      0.339700
     24 H10         0.1710    2.1130    1.2350 hn        1 GF4      0.407800
@<TRIPOS>BOND
     1    1    2 2   
     2    2    3 1   
     3    2    9 1   
     4    3    4 1   
     5    3    6 2   
     6    4    5 1   
     7    4   15 1   
     8    4   16 1   
     9    5   17 1   
    10    5   18 1   
    11    5   19 1   
    12    6    7 1   
    13    6    8 1   
    14    7   20 1   
    15    7   21 1   
    16    7   22 1   
    17    8    9 1   
    18    8   24 1   
    19    9   10 1   
    20   10   11 1   
    21   10   14 2   
    22   11   12 1   
    23   11   23 1   
    24   12   13 2   
    25   13   14 1   
@<TRIPOS>SUBSTRUCTURE
     1 GF4         1 TEMP              0 ****  ****    0 ROOT
