@<TRIPOS>MOLECULE
GF4
   24    25     1     0     0
SMALL
bcc


@<TRIPOS>ATOM
      1 O11        -0.0910   -0.6840    0.0130 o         1 GF4     -0.505500
      2 C3          1.1220   -0.5270    0.0520 c         1 GF4      0.673700
      3 C4          2.0200   -0.1600    1.1890 cc        1 GF4     -0.214400
      4 C12         1.5070    0.0820    2.5450 c3        1 GF4     -0.019200
      5 C13         1.5940    1.5360    2.9490 c3        1 GF4     -0.092100
      6 C5          3.2990   -0.1020    0.7020 cd        1 GF4      0.074800
      7 C14         4.5470    0.1960    1.4270 c3        1 GF4     -0.056900
      8 N1          3.3230   -0.3310   -0.7330 na        1 GF4     -0.481000
      9 N2          2.0300   -0.7500   -1.1020 n         1 GF4     -0.276700
     10 C6          1.5670   -0.2740   -2.3580 cc        1 GF4      0.464400
     11 N10         2.1670    0.7200   -3.1790 na        1 GF4     -0.189400
     12 N9          1.4470    0.8030   -4.3040 nc        1 GF4     -0.195800
     13 N8          0.4690   -0.0250   -4.2090 nd        1 GF4     -0.047000
     14 N7          0.4670   -0.7150   -3.0750 nd        1 GF4     -0.336000
     15 H12         0.4350   -0.2570    2.5950 hc        1 GF4      0.064200
     16 H12A        2.0920   -0.5430    3.2750 hc        1 GF4      0.064200
     17 H13         1.2160    1.6610    3.9920 hc        1 GF4      0.040033
     18 H13A        2.6510    1.8940    2.9060 hc        1 GF4      0.040033
     19 H13B        0.9770    2.1720    2.2700 hc        1 GF4      0.040033
     20 H14         4.3520    0.1750    2.5290 hc        1 GF4      0.067033
     21 H14A        4.9190    1.2160    1.1500 hc        1 GF4      0.067033
     22 H14B        5.3460   -0.5490    1.1860 hc        1 GF4      0.067033
     23 HN10        3.0040    1.2330   -3.0320 hn        1 GF4      0.339700
     24 H10         3.9670   -1.0770   -0.9700 hn        1 GF4      0.408800
@<TRIPOS>BOND
     1    1    2 2   
     2    2    3 1   
     3    2    9 1   
     4    3    4 1   
     5    3    6 2   
     6    4    5 1   
     7    4   15 1   
     8    4   16 1   
     9    5   17 1   
    10    5   18 1   
    11    5   19 1   
    12    6    7 1   
    13    6    8 1   
    14    7   20 1   
    15    7   21 1   
    16    7   22 1   
    17    8    9 1   
    18    8   24 1   
    19    9   10 1   
    20   10   11 1   
    21   10   14 2   
    22   11   12 1   
    23   11   23 1   
    24   12   13 2   
    25   13   14 1   
@<TRIPOS>SUBSTRUCTURE
     1 GF4         1 TEMP              0 ****  ****    0 ROOT
