@<TRIPOS>MOLECULE
GF4
   24    22     1     0     0
SMALL
bcc


@<TRIPOS>ATOM
      1 O11        -2.1950   -0.1770   -0.2650 o         1 GF4     -0.544500
      2 C3         -1.1040    0.3240   -0.0750 c1        1 GF4      0.561500
      3 C4         -0.2040   -0.0370    0.9130 c1        1 GF4     -0.178100
      4 C12        -0.6320   -0.7410    2.1820 c3        1 GF4     -0.039300
      5 C13        -0.8130   -2.2170    1.9040 c3        1 GF4     -0.097100
      6 C5          1.0470    0.2760    0.6690 c1        1 GF4      0.047900
      7 C14         1.9980    0.5370    1.8160 c3        1 GF4     -0.092000
      8 N1          1.2320    0.9140   -0.5420 n2        1 GF4     -0.541500
      9 N2         -0.2150    0.9970   -1.1450 nh        1 GF4     -0.064400
     10 C6         -0.5390    1.1600   -2.5170 cc        1 GF4      0.635500
     11 N10        -0.2530    0.2930   -3.5030 nd        1 GF4     -0.424500
     12 N9         -0.7050    0.8140   -4.6580 nc        1 GF4     -0.034000
     13 N8         -1.2700    2.0010   -4.3840 nc        1 GF4     -0.034000
     14 N7         -1.1670    2.2150   -3.0610 nc        1 GF4     -0.424500
     15 H12         0.0540   -0.6200    2.8690 hc        1 GF4      0.055700
     16 H12A       -1.4770   -0.3620    2.4960 hc        1 GF4      0.055700
     17 H13        -0.1720   -2.5010    1.2190 hc        1 GF4      0.044033
     18 H13A       -0.6580   -2.7260    2.7270 hc        1 GF4      0.044033
     19 H13B       -1.7250   -2.3800    1.5850 hc        1 GF4      0.044033
     20 H14         2.7860    1.0170    1.4830 hc        1 GF4      0.070033
     21 H14A        2.2780   -0.3160    2.2090 hc        1 GF4      0.070033
     22 H14B        1.5480    1.0800    2.4970 hc        1 GF4      0.070033
     23 HN10        0.1730   -0.5070   -3.4070 DU        1 GF4      0.310000
     24 H10         2.0120    0.9540   -1.0130 hn        1 GF4      0.464400
@<TRIPOS>BOND
     1    1    2 2   
     2    2    9 2   
     3    3    4 1   
     4    3    6 3   
     5    4    5 1   
     6    4   15 1   
     7    4   16 1   
     8    5   17 1   
     9    5   18 1   
    10    5   19 1   
    11    6    7 1   
    12    7   20 1   
    13    7   21 1   
    14    7   22 1   
    15    8    9 2   
    16    8   24 1   
    17    9   10 1   
    18   10   11 2   
    19   10   14 1   
    20   11   12 2   
    21   12   13 1   
    22   13   14 2   
@<TRIPOS>SUBSTRUCTURE
     1 GF4         1 TEMP              0 ****  ****    0 ROOT
