@<TRIPOS>MOLECULE
GF7
   30    31     1     0     0
SMALL
bcc


@<TRIPOS>ATOM
      1 O18        -5.5280   -0.5860    0.2880 o         1 GF7     -0.571100
      2 C16        -4.7460    0.3690    0.1550 c         1 GF7      0.588700
      3 C17        -5.2730    1.7710    0.0920 c3        1 GF7     -0.197100
      4 C9         -3.2930    0.1890    0.0550 ca        1 GF7     -0.245600
      5 C8         -2.7460   -1.0990    0.1690 ca        1 GF7     -0.051000
      6 C7         -1.3810   -1.3160    0.0810 ca        1 GF7     -0.210000
      7 C10        -2.4180    1.2640   -0.1490 ca        1 GF7     -0.051000
      8 C11        -1.0500    1.0690   -0.2430 ca        1 GF7     -0.210000
      9 C6         -0.4870   -0.2330   -0.1330 ca        1 GF7      0.149600
     10 N1          0.8830   -0.4140   -0.2490 n         1 GF7     -0.383000
     11 C2          1.6210   -1.6050   -0.0680 c         1 GF7      0.708500
     12 O12         1.1230   -2.7200    0.1560 o         1 GF7     -0.646500
     13 C5          1.7800    0.7180   -0.5000 c3        1 GF7      0.090000
     14 C4          3.2190    0.1720   -0.5400 c3        1 GF7     -0.206700
     15 C3          3.1050   -1.3110   -0.2080 c3        1 GF7     -0.136400
     16 C13         4.1380    0.9400    0.4470 c         1 GF7      0.919600
     17 O14         3.9270    2.1760    0.5870 o         1 GF7     -0.828300
     18 O15         5.0460    0.2870    1.0290 o         1 GF7     -0.828300
     19 H17        -6.3840    1.7750    0.2070 hc        1 GF7      0.056367
     20 H17A       -4.8220    2.3840    0.9090 hc        1 GF7      0.056367
     21 H17B       -5.0110    2.2310   -0.8920 hc        1 GF7      0.056367
     22 H8         -3.4260   -1.9510    0.3330 ha        1 GF7      0.132500
     23 H7         -0.9920   -2.3430    0.1820 ha        1 GF7      0.160500
     24 H10        -2.8120    2.2880   -0.2370 ha        1 GF7      0.132500
     25 H11        -0.4000    1.9450   -0.3970 ha        1 GF7      0.160500
     26 H5          1.5030    1.1950   -1.4790 h1        1 GF7      0.060700
     27 H5A         1.6860    1.4880    0.3180 h1        1 GF7      0.060700
     28 H4          3.6500    0.3160   -1.5620 hc        1 GF7      0.051700
     29 H3          3.6330   -1.5370    0.7570 hc        1 GF7      0.090700
     30 H3A         3.5330   -1.9620   -1.0080 hc        1 GF7      0.090700
@<TRIPOS>BOND
     1    1    2 2   
     2    2    3 1   
     3    2    4 1   
     4    3   19 1   
     5    3   20 1   
     6    3   21 1   
     7    4    5 ar  
     8    4    7 ar  
     9    5    6 ar  
    10    5   22 1   
    11    6    9 ar  
    12    6   23 1   
    13    7    8 ar  
    14    7   24 1   
    15    8    9 ar  
    16    8   25 1   
    17    9   10 1   
    18   10   11 1   
    19   10   13 1   
    20   11   12 2   
    21   11   15 1   
    22   13   14 1   
    23   13   26 1   
    24   13   27 1   
    25   14   15 1   
    26   14   16 1   
    27   14   28 1   
    28   15   29 1   
    29   15   30 1   
    30   16   17 1   
    31   16   18 1   
@<TRIPOS>SUBSTRUCTURE
     1 GF7         1 TEMP              0 ****  ****    0 ROOT
