@<TRIPOS>MOLECULE
GF7
   30    31     1     0     0
SMALL
bcc


@<TRIPOS>ATOM
      1 O18        -0.0140   -0.2160    0.0860 o         1 GF7     -0.571100
      2 C16         1.2240   -0.1370    0.0270 c         1 GF7      0.588700
      3 C17         2.0380   -0.1170    1.2870 c3        1 GF7     -0.197100
      4 C9          1.9480   -0.0610   -1.2460 ca        1 GF7     -0.245600
      5 C8          1.2360   -0.1370   -2.4530 ca        1 GF7     -0.051000
      6 C7          1.8780   -0.0700   -3.6790 ca        1 GF7     -0.210000
      7 C10         3.3410    0.0820   -1.3080 ca        1 GF7     -0.051000
      8 C11         4.0030    0.1540   -2.5220 ca        1 GF7     -0.210000
      9 C6          3.2880    0.0820   -3.7510 ca        1 GF7      0.149600
     10 N1          3.9640    0.1760   -4.9580 n         1 GF7     -0.383000
     11 C2          3.4390    0.0260   -6.2610 c         1 GF7      0.708500
     12 O12         2.2390   -0.1440   -6.5270 o         1 GF7     -0.646500
     13 C5          5.4170    0.3640   -5.0030 c3        1 GF7      0.090000
     14 C4          5.8370    0.3940   -6.4840 c3        1 GF7     -0.206700
     15 C3          4.5650    0.1230   -7.2770 c3        1 GF7     -0.136400
     16 C13         6.9570   -0.6410   -6.7710 c         1 GF7      0.919600
     17 O14         7.8170   -0.8250   -5.8660 o         1 GF7     -0.828300
     18 O15         6.9480   -1.2170   -7.8920 o         1 GF7     -0.828300
     19 H17         2.6060    0.8420    1.3560 hc        1 GF7      0.056367
     20 H17A        1.3750   -0.2090    2.1800 hc        1 GF7      0.056367
     21 H17B        2.7620   -0.9670    1.2840 hc        1 GF7      0.056367
     22 H8          0.1400   -0.2530   -2.4150 ha        1 GF7      0.132500
     23 H7          1.2800   -0.1390   -4.6030 ha        1 GF7      0.160500
     24 H10         3.9320    0.1390   -0.3810 ha        1 GF7      0.132500
     25 H11         5.0990    0.2590   -2.5220 ha        1 GF7      0.160500
     26 H5          5.6780    1.3290   -4.4900 h1        1 GF7      0.060700
     27 H5A         5.9420   -0.4810   -4.4740 h1        1 GF7      0.060700
     28 H4          6.2540    1.4000   -6.7380 hc        1 GF7      0.051700
     29 H3          4.6550   -0.8440   -7.8420 hc        1 GF7      0.090700
     30 H3A         4.3320    0.9380   -8.0040 hc        1 GF7      0.090700
@<TRIPOS>BOND
     1    1    2 2   
     2    2    3 1   
     3    2    4 1   
     4    3   19 1   
     5    3   20 1   
     6    3   21 1   
     7    4    5 ar  
     8    4    7 ar  
     9    5    6 ar  
    10    5   22 1   
    11    6    9 ar  
    12    6   23 1   
    13    7    8 ar  
    14    7   24 1   
    15    8    9 ar  
    16    8   25 1   
    17    9   10 1   
    18   10   11 1   
    19   10   13 1   
    20   11   12 2   
    21   11   15 1   
    22   13   14 1   
    23   13   26 1   
    24   13   27 1   
    25   14   15 1   
    26   14   16 1   
    27   14   28 1   
    28   15   29 1   
    29   15   30 1   
    30   16   17 1   
    31   16   18 1   
@<TRIPOS>SUBSTRUCTURE
     1 GF7         1 TEMP              0 ****  ****    0 ROOT
