@<TRIPOS>MOLECULE
GF7
   30    31     1     0     0
SMALL
bcc


@<TRIPOS>ATOM
      1 O18        -0.0250   -0.2090    0.0850 o         1 GF7     -0.571100
      2 C16         1.2140   -0.1500    0.0290 c         1 GF7      0.588700
      3 C17         2.0280   -0.1630    1.2890 c3        1 GF7     -0.197100
      4 C9          1.9410   -0.0670   -1.2430 ca        1 GF7     -0.245600
      5 C8          1.2290   -0.1130   -2.4520 ca        1 GF7     -0.051000
      6 C7          1.8740   -0.0370   -3.6760 ca        1 GF7     -0.210000
      7 C10         3.3360    0.0560   -1.3010 ca        1 GF7     -0.051000
      8 C11         4.0010    0.1360   -2.5130 ca        1 GF7     -0.210000
      9 C6          3.2860    0.0930   -3.7440 ca        1 GF7      0.149600
     10 N1          3.9650    0.1950   -4.9490 n         1 GF7     -0.383000
     11 C2          3.4400    0.0710   -6.2550 c         1 GF7      0.708500
     12 O12         2.2370   -0.0750   -6.5240 o         1 GF7     -0.646500
     13 C5          5.4210    0.3600   -4.9890 c3        1 GF7      0.090000
     14 C4          5.8430    0.4050   -6.4700 c3        1 GF7     -0.206700
     15 C3          4.5670    0.1660   -7.2680 c3        1 GF7     -0.136400
     16 C13         6.9470   -0.6420   -6.7710 c         1 GF7      0.919600
     17 O14         7.8030   -0.8530   -5.8680 o         1 GF7     -0.828300
     18 O15         6.9300   -1.2020   -7.9000 o         1 GF7     -0.828300
     19 H17         1.3620   -0.2580    2.1800 hc        1 GF7      0.056367
     20 H17A        2.6110    0.7860    1.3740 hc        1 GF7      0.056367
     21 H17B        2.7380   -1.0250    1.2740 hc        1 GF7      0.056367
     22 H8          0.1320   -0.2120   -2.4160 ha        1 GF7      0.132500
     23 H7          1.2760   -0.0840   -4.6010 ha        1 GF7      0.160500
     24 H10         3.9270    0.0890   -0.3730 ha        1 GF7      0.132500
     25 H11         5.0980    0.2240   -2.5110 ha        1 GF7      0.160500
     26 H5          5.9320   -0.5000   -4.4730 h1        1 GF7      0.060700
     27 H5A         5.6960    1.3140   -4.4630 h1        1 GF7      0.060700
     28 H4          6.2760    1.4080   -6.7090 hc        1 GF7      0.051700
     29 H3          4.3490    0.9950   -7.9830 hc        1 GF7      0.090700
     30 H3A         4.6430   -0.7940   -7.8470 hc        1 GF7      0.090700
@<TRIPOS>BOND
     1    1    2 2   
     2    2    3 1   
     3    2    4 1   
     4    3   19 1   
     5    3   20 1   
     6    3   21 1   
     7    4    5 ar  
     8    4    7 ar  
     9    5    6 ar  
    10    5   22 1   
    11    6    9 ar  
    12    6   23 1   
    13    7    8 ar  
    14    7   24 1   
    15    8    9 ar  
    16    8   25 1   
    17    9   10 1   
    18   10   11 1   
    19   10   13 1   
    20   11   12 2   
    21   11   15 1   
    22   13   14 1   
    23   13   26 1   
    24   13   27 1   
    25   14   15 1   
    26   14   16 1   
    27   14   28 1   
    28   15   29 1   
    29   15   30 1   
    30   16   17 1   
    31   16   18 1   
@<TRIPOS>SUBSTRUCTURE
     1 GF7         1 TEMP              0 ****  ****    0 ROOT
