@<TRIPOS>MOLECULE
GF7
   30    31     1     0     0
SMALL
bcc


@<TRIPOS>ATOM
      1 O18        -0.0240   -0.2240    0.0850 o         1 GF7     -0.571100
      2 C16         1.2150   -0.1620    0.0290 c         1 GF7      0.588700
      3 C17         2.0290   -0.1780    1.2890 c3        1 GF7     -0.197100
      4 C9          1.9420   -0.0750   -1.2430 ca        1 GF7     -0.245600
      5 C8          1.2300   -0.1190   -2.4520 ca        1 GF7     -0.051000
      6 C7          1.8740   -0.0390   -3.6750 ca        1 GF7     -0.210000
      7 C10         3.3360    0.0490   -1.3010 ca        1 GF7     -0.051000
      8 C11         4.0010    0.1330   -2.5130 ca        1 GF7     -0.210000
      9 C6          3.2860    0.0930   -3.7440 ca        1 GF7      0.149600
     10 N1          3.9650    0.1980   -4.9490 n         1 GF7     -0.383000
     11 C2          3.4390    0.0780   -6.2540 c         1 GF7      0.708500
     12 O12         2.2360   -0.0690   -6.5240 o         1 GF7     -0.646500
     13 C5          5.4200    0.3660   -4.9890 c3        1 GF7      0.090000
     14 C4          5.8420    0.4160   -6.4690 c3        1 GF7     -0.206700
     15 C3          4.5660    0.1770   -7.2680 c3        1 GF7     -0.136400
     16 C13         6.9470   -0.6290   -6.7730 c         1 GF7      0.919600
     17 O14         7.8030   -0.8420   -5.8710 o         1 GF7     -0.828300
     18 O15         6.9310   -1.1850   -7.9040 o         1 GF7     -0.828300
     19 H17         2.7400   -1.0380    1.2710 hc        1 GF7      0.056367
     20 H17A        1.3630   -0.2760    2.1800 hc        1 GF7      0.056367
     21 H17B        2.6110    0.7710    1.3760 hc        1 GF7      0.056367
     22 H8          0.1320   -0.2200   -2.4160 ha        1 GF7      0.132500
     23 H7          1.2760   -0.0840   -4.6010 ha        1 GF7      0.160500
     24 H10         3.9280    0.0810   -0.3720 ha        1 GF7      0.132500
     25 H11         5.0980    0.2230   -2.5100 ha        1 GF7      0.160500
     26 H5          5.6940    1.3190   -4.4600 h1        1 GF7      0.060700
     27 H5A         5.9330   -0.4950   -4.4750 h1        1 GF7      0.060700
     28 H4          6.2730    1.4200   -6.7060 hc        1 GF7      0.051700
     29 H3          4.6440   -0.7810   -7.8490 hc        1 GF7      0.090700
     30 H3A         4.3460    1.0070   -7.9810 hc        1 GF7      0.090700
@<TRIPOS>BOND
     1    1    2 2   
     2    2    3 1   
     3    2    4 1   
     4    3   19 1   
     5    3   20 1   
     6    3   21 1   
     7    4    5 ar  
     8    4    7 ar  
     9    5    6 ar  
    10    5   22 1   
    11    6    9 ar  
    12    6   23 1   
    13    7    8 ar  
    14    7   24 1   
    15    8    9 ar  
    16    8   25 1   
    17    9   10 1   
    18   10   11 1   
    19   10   13 1   
    20   11   12 2   
    21   11   15 1   
    22   13   14 1   
    23   13   26 1   
    24   13   27 1   
    25   14   15 1   
    26   14   16 1   
    27   14   28 1   
    28   15   29 1   
    29   15   30 1   
    30   16   17 1   
    31   16   18 1   
@<TRIPOS>SUBSTRUCTURE
     1 GF7         1 TEMP              0 ****  ****    0 ROOT
