@<TRIPOS>MOLECULE
GFA
   43    45     1     0     0
SMALL
bcc


@<TRIPOS>ATOM
      1 O2         -1.2360   -0.4790   -0.5280 os        1 GFA     -0.357900
      2 CL1         4.3880    1.1140   -0.8540 cl        1 GFA     -0.034400
      3 O3         -3.2920   -3.3730   -0.9870 o         1 GFA     -0.421100
      4 O1         -0.8410   -1.4860   -3.0370 o         1 GFA     -0.637100
      5 N1         -3.3870   -1.2780   -2.0040 n4        1 GFA     -0.528200
      6 C12         0.6700    0.5610    0.4220 ca        1 GFA     -0.124000
      7 C8          0.9230   -0.6610   -1.6870 ca        1 GFA     -0.182600
      8 C9          2.2520   -0.2210   -1.7520 ca        1 GFA     -0.069000
      9 C6          1.3010   -2.3630   -3.5340 ca        1 GFA     -0.199600
     10 C7          0.3780   -1.5040   -2.7750 c         1 GFA      0.637300
     11 C13         0.1370   -0.2380   -0.5980 ca        1 GFA      0.106100
     12 C1          1.0570   -2.5810   -4.8990 ca        1 GFA     -0.079500
     13 C10         2.7820    0.5950   -0.7470 ca        1 GFA      0.011400
     14 C21        -4.2600    0.6920   -0.7770 ca        1 GFA     -0.097500
     15 C14        -1.6020   -1.8150   -0.1960 c3        1 GFA      0.076400
     16 C16        -4.5060   -0.5340   -1.4230 ca        1 GFA     -0.054400
     17 C4          3.2240   -3.8280   -3.6540 ca        1 GFA     -0.133500
     18 C15        -2.7870   -2.2610   -1.0300 c         1 GFA      0.549100
     19 C11         1.9950    0.9830    0.3440 ca        1 GFA     -0.077000
     20 C20        -5.3330    1.4050   -0.2490 ca        1 GFA     -0.108500
     21 C17        -5.8130   -1.0410   -1.5320 ca        1 GFA     -0.097500
     22 C5          2.3880   -2.9950   -2.9140 ca        1 GFA     -0.079500
     23 C18        -6.8690   -0.3090   -0.9940 ca        1 GFA     -0.108500
     24 C3          2.9870   -4.0290   -5.0160 ca        1 GFA     -0.078000
     25 C19        -6.6330    0.9100   -0.3560 ca        1 GFA     -0.073000
     26 C2          1.9050   -3.4040   -5.6370 ca        1 GFA     -0.133500
     27 HN1        -2.6360   -0.6190   -2.2880 hn        1 GFA      0.483800
     28 H12         0.0340    0.8680    1.2660 ha        1 GFA      0.164000
     29 H9          2.8810   -0.5130   -2.6130 ha        1 GFA      0.178000
     30 H1          0.1940   -2.0950   -5.3800 ha        1 GFA      0.143500
     31 H21        -3.2330    1.0870   -0.6830 ha        1 GFA      0.163500
     32 H14        -1.9180   -1.8270    0.8860 h1        1 GFA      0.116700
     33 H14A       -0.7660   -2.5450   -0.3740 h1        1 GFA      0.116700
     34 H4          4.0730   -4.3280   -3.1640 ha        1 GFA      0.153000
     35 H11         2.4170    1.6210    1.1380 ha        1 GFA      0.174000
     36 H20        -5.1480    2.3690    0.2540 ha        1 GFA      0.168000
     37 H17        -6.0140   -2.0040   -2.0290 ha        1 GFA      0.163500
     38 H5          2.5780   -2.8430   -1.8400 ha        1 GFA      0.143500
     39 H18        -7.8970   -0.7010   -1.0770 ha        1 GFA      0.168000
     40 H3          3.6550   -4.6830   -5.5990 ha        1 GFA      0.154000
     41 H19        -7.4770    1.4830    0.0630 ha        1 GFA      0.168000
     42 H2          1.7170   -3.5630   -6.7100 ha        1 GFA      0.153000
     43 H121       -3.7090   -1.7880   -2.8370 hn        1 GFA      0.483800
@<TRIPOS>BOND
     1    1   11 1   
     2    1   15 1   
     3    2   13 1   
     4    3   18 2   
     5    4   10 2   
     6    5   16 1   
     7    5   18 1   
     8    5   27 1   
     9    5   43 1   
    10    6   11 ar  
    11    6   19 ar  
    12    6   28 1   
    13    7    8 ar  
    14    7   10 1   
    15    7   11 ar  
    16    8   13 ar  
    17    8   29 1   
    18    9   10 1   
    19    9   12 ar  
    20    9   22 ar  
    21   12   26 ar  
    22   12   30 1   
    23   13   19 ar  
    24   14   16 ar  
    25   14   20 ar  
    26   14   31 1   
    27   15   18 1   
    28   15   32 1   
    29   15   33 1   
    30   16   21 ar  
    31   17   22 ar  
    32   17   24 ar  
    33   17   34 1   
    34   19   35 1   
    35   20   25 ar  
    36   20   36 1   
    37   21   23 ar  
    38   21   37 1   
    39   22   38 1   
    40   23   25 ar  
    41   23   39 1   
    42   24   26 ar  
    43   24   40 1   
    44   25   41 1   
    45   26   42 1   
@<TRIPOS>SUBSTRUCTURE
     1 GFA         1 TEMP              0 ****  ****    0 ROOT
