@<TRIPOS>MOLECULE
GFA
   42    44     1     0     0
SMALL
bcc


@<TRIPOS>ATOM
      1 O2          0.2820    1.0450   -1.5270 os        1 GFA     -0.326900
      2 CL1        -5.0580    1.6270    0.8070 cl        1 GFA     -0.079400
      3 O3          3.3270    2.5840   -2.3450 o         1 GFA     -0.597100
      4 O1          0.6450   -0.6200    0.7410 o         1 GFA     -0.544100
      5 N1          2.8600    1.1770   -0.5520 n         1 GFA     -0.449100
      6 C12        -1.7820    2.3340   -1.3280 ca        1 GFA     -0.188000
      7 C8         -1.4050    0.2890   -0.0410 ca        1 GFA     -0.177600
      8 C9         -2.6920    0.4100    0.4950 ca        1 GFA     -0.068000
      9 C6         -1.1070   -2.1830    0.3980 ca        1 GFA     -0.177600
     10 C7         -0.5240   -0.8250    0.3870 c         1 GFA      0.616300
     11 C13        -0.9570    1.2610   -0.9580 ca        1 GFA      0.158100
     12 C1         -0.5170   -3.1670    1.2040 ca        1 GFA     -0.078500
     13 C10        -3.5050    1.4870    0.1350 ca        1 GFA     -0.017600
     14 C21         5.3250    1.3960   -0.6680 ca        1 GFA     -0.163500
     15 C14         1.0220    2.2230   -1.8650 c3        1 GFA      0.049400
     16 C16         4.1560    0.7860   -0.1710 ca        1 GFA      0.064600
     17 C4         -2.7210   -3.8090   -0.3820 ca        1 GFA     -0.144000
     18 C15         2.5170    1.9830   -1.6140 c         1 GFA      0.658100
     19 C11        -3.0530    2.4490   -0.7760 ca        1 GFA     -0.073000
     20 C20         6.5750    0.9730   -0.2200 ca        1 GFA     -0.110000
     21 C17         4.2820   -0.2570    0.7820 ca        1 GFA     -0.163500
     22 C5         -2.2100   -2.5130   -0.3990 ca        1 GFA     -0.078500
     23 C18         5.5390   -0.6590    1.2150 ca        1 GFA     -0.110000
     24 C3         -2.1380   -4.7820    0.4310 ca        1 GFA     -0.097000
     25 C19         6.6910   -0.0490    0.7180 ca        1 GFA     -0.157000
     26 C2         -1.0370   -4.4600    1.2240 ca        1 GFA     -0.144000
     27 HN1         2.1120    0.6810   -0.1040 hn        1 GFA      0.351500
     28 H12        -1.4280    3.0780   -2.0570 ha        1 GFA      0.152000
     29 H9         -3.0540   -0.3490    1.2080 ha        1 GFA      0.162000
     30 H1          0.3620   -2.9070    1.8160 ha        1 GFA      0.148000
     31 H21         5.2630    2.2050   -1.4140 ha        1 GFA      0.156500
     32 H14         0.8710    2.4180   -2.9610 h1        1 GFA      0.080700
     33 H14A        0.7020    3.1100   -1.2600 h1        1 GFA      0.080700
     34 H4         -3.5850   -4.0640   -1.0130 ha        1 GFA      0.139500
     35 H11        -3.7010    3.2930   -1.0600 ha        1 GFA      0.155000
     36 H20         7.4790    1.4580   -0.6190 ha        1 GFA      0.130500
     37 H17         3.3820   -0.7520    1.1830 ha        1 GFA      0.156500
     38 H5         -2.6700   -1.7490   -1.0450 ha        1 GFA      0.148000
     39 H18         5.6220   -1.4680    1.9560 ha        1 GFA      0.130500
     40 H3         -2.5460   -5.8040    0.4440 ha        1 GFA      0.137000
     41 H19         7.6810   -0.3740    1.0650 ha        1 GFA      0.130000
     42 H2         -0.5730   -5.2270    1.8620 ha        1 GFA      0.139500
@<TRIPOS>BOND
     1    1   11 1   
     2    1   15 1   
     3    2   13 1   
     4    3   18 2   
     5    4   10 2   
     6    5   16 1   
     7    5   18 1   
     8    5   27 1   
     9    6   11 ar  
    10    6   19 ar  
    11    6   28 1   
    12    7    8 ar  
    13    7   10 1   
    14    7   11 ar  
    15    8   13 ar  
    16    8   29 1   
    17    9   10 1   
    18    9   12 ar  
    19    9   22 ar  
    20   12   26 ar  
    21   12   30 1   
    22   13   19 ar  
    23   14   16 ar  
    24   14   20 ar  
    25   14   31 1   
    26   15   18 1   
    27   15   32 1   
    28   15   33 1   
    29   16   21 ar  
    30   17   22 ar  
    31   17   24 ar  
    32   17   34 1   
    33   19   35 1   
    34   20   25 ar  
    35   20   36 1   
    36   21   23 ar  
    37   21   37 1   
    38   22   38 1   
    39   23   25 ar  
    40   23   39 1   
    41   24   26 ar  
    42   24   40 1   
    43   25   41 1   
    44   26   42 1   
@<TRIPOS>SUBSTRUCTURE
     1 GFA         1 TEMP              0 ****  ****    0 ROOT
