@<TRIPOS>MOLECULE
GFA
   42    44     1     0     0
SMALL
bcc


@<TRIPOS>ATOM
      1 O2         -0.5510   -1.3630    0.3130 os        1 GFA     -0.326900
      2 Cl1         4.6910    0.7660   -1.1990 cl        1 GFA     -0.079400
      3 O3         -3.5930   -0.8100    1.9720 o         1 GFA     -0.597100
      4 O1         -0.9630   -1.2200   -2.4900 o         1 GFA     -0.544100
      5 N1         -3.1640   -0.7400   -0.3150 ns        1 GFA     -0.449100
      6 C12         1.4800   -0.1670    0.9480 ca        1 GFA     -0.188000
      7 C8          1.0970   -0.9390   -1.3410 ca        1 GFA     -0.177600
      8 C9          2.3610   -0.4590   -1.6960 ca        1 GFA     -0.068000
      9 C6          0.8290   -2.5780   -3.2480 ca        1 GFA     -0.177600
     10 C7          0.2220   -1.5590   -2.3660 c         1 GFA      0.616300
     11 C13         0.6630   -0.7890   -0.0080 ca        1 GFA      0.158100
     12 C1          0.2300   -2.8450   -4.4880 ca        1 GFA     -0.078500
     13 C10         3.1660    0.1730   -0.7460 ca        1 GFA     -0.017600
     14 C21        -5.6280   -0.7360   -0.0470 ca        1 GFA     -0.163500
     15 C14        -1.3000   -0.6980    1.3350 c3        1 GFA      0.049400
     16 C16        -4.4650   -0.8480   -0.8370 ca        1 GFA      0.064600
     17 C4          2.5010   -4.2670   -3.7070 ca        1 GFA     -0.144000
     18 C15        -2.7990   -0.7790    1.0120 c         1 GFA      0.658100
     19 C11         2.7290    0.3200    0.5750 ca        1 GFA     -0.073000
     20 C20        -6.8840   -0.8250   -0.6420 ca        1 GFA     -0.110000
     21 C17        -4.6060   -1.0510   -2.2330 ca        1 GFA     -0.163500
     22 C5          1.9660   -3.2980   -2.8610 ca        1 GFA     -0.078500
     23 C18        -5.8700   -1.1330   -2.8030 ca        1 GFA     -0.110000
     24 C3          1.9080   -4.5210   -4.9450 ca        1 GFA     -0.097000
     25 C19        -7.0140   -1.0220   -2.0140 ca        1 GFA     -0.157000
     26 C2          0.7730   -3.8100   -5.3340 ca        1 GFA     -0.144000
     27 HN1        -2.4230   -0.8090   -0.9880 hn        1 GFA      0.351500
     28 H12         1.1390   -0.0700    1.9890 ha        1 GFA      0.152000
     29 H9          2.7120   -0.5770   -2.7350 ha        1 GFA      0.162000
     30 H1         -0.6750   -2.2880   -4.7800 ha        1 GFA      0.148000
     31 H21        -5.5540   -0.5840    1.0420 ha        1 GFA      0.156500
     32 H14        -1.0190    0.3830    1.4260 h1        1 GFA      0.080200
     33 H14A       -1.1140   -1.2370    2.3010 h1        1 GFA      0.080200
     34 H4          3.3910   -4.8330   -3.3970 ha        1 GFA      0.139500
     35 H11         3.3700    0.8140    1.3220 ha        1 GFA      0.155000
     36 H20        -7.7820   -0.7380   -0.0110 ha        1 GFA      0.130500
     37 H17        -3.7120   -1.1450   -2.8720 ha        1 GFA      0.156500
     38 H5          2.4340   -3.1030   -1.8830 ha        1 GFA      0.148000
     39 H18        -5.9640   -1.2900   -3.8880 ha        1 GFA      0.130500
     40 H3          2.3340   -5.2860   -5.6120 ha        1 GFA      0.137000
     41 H19        -8.0110   -1.0890   -2.4730 ha        1 GFA      0.130000
     42 H2          0.3020   -4.0120   -6.3070 ha        1 GFA      0.139500
@<TRIPOS>BOND
     1    1   11 1   
     2    1   15 1   
     3    2   13 1   
     4    3   18 2   
     5    4   10 2   
     6    5   16 1   
     7    5   18 1   
     8    5   27 1   
     9    6   11 ar  
    10    6   19 ar  
    11    6   28 1   
    12    7    8 ar  
    13    7   10 1   
    14    7   11 ar  
    15    8   13 ar  
    16    8   29 1   
    17    9   10 1   
    18    9   12 ar  
    19    9   22 ar  
    20   12   26 ar  
    21   12   30 1   
    22   13   19 ar  
    23   14   16 ar  
    24   14   20 ar  
    25   14   31 1   
    26   15   18 1   
    27   15   32 1   
    28   15   33 1   
    29   16   21 ar  
    30   17   22 ar  
    31   17   24 ar  
    32   17   34 1   
    33   19   35 1   
    34   20   25 ar  
    35   20   36 1   
    36   21   23 ar  
    37   21   37 1   
    38   22   38 1   
    39   23   25 ar  
    40   23   39 1   
    41   24   26 ar  
    42   24   40 1   
    43   25   41 1   
    44   26   42 1   
@<TRIPOS>SUBSTRUCTURE
     1 GFA         1 TEMP              0 ****  ****    0 ROOT
