@<TRIPOS>MOLECULE
GFA
   42    44     1     0     0
SMALL
bcc


@<TRIPOS>ATOM
      1 O2         -0.4960   -1.3740    0.3660 os        1 GFA     -0.326900
      2 CL1         4.6640    0.8240   -1.3230 cl        1 GFA     -0.079400
      3 O3         -3.4930   -0.8560    2.1150 o         1 GFA     -0.597100
      4 O1         -0.9970   -1.2590   -2.4230 o         1 GFA     -0.544100
      5 N1         -3.1370   -0.7970   -0.1840 n         1 GFA     -0.449100
      6 C12         1.5350   -0.1420    0.9290 ca        1 GFA     -0.188000
      7 C8          1.0930   -0.9380   -1.3410 ca        1 GFA     -0.177600
      8 C9          2.3380   -0.4400   -1.7390 ca        1 GFA     -0.068000
      9 C6          0.7920   -2.5940   -3.2280 ca        1 GFA     -0.177600
     10 C7          0.1970   -1.5790   -2.3340 c         1 GFA      0.616300
     11 C13         0.6990   -0.7840    0.0040 ca        1 GFA      0.158100
     12 C1          0.1600   -2.8790   -4.4470 ca        1 GFA     -0.078500
     13 C10         3.1620    0.2110   -0.8190 ca        1 GFA     -0.017600
     14 C21        -5.5900   -0.8310    0.1610 ca        1 GFA     -0.163500
     15 C14        -1.2230   -0.7130    1.4060 c3        1 GFA      0.049400
     16 C16        -4.4520   -0.9300   -0.6640 ca        1 GFA      0.064600
     17 C4          2.4750   -4.2600   -3.7280 ca        1 GFA     -0.144000
     18 C15        -2.7290   -0.8200    1.1310 c         1 GFA      0.658100
     19 C11         2.7640    0.3610    0.5150 ca        1 GFA     -0.073000
     20 C20        -6.8630   -0.9450   -0.3930 ca        1 GFA     -0.110000
     21 C17        -4.6320   -1.1480   -2.0540 ca        1 GFA     -0.163500
     22 C5          1.9520   -3.2930   -2.8710 ca        1 GFA     -0.078500
     23 C18        -5.9120   -1.2550   -2.5830 ca        1 GFA     -0.110000
     24 C3          1.8490   -4.5320   -4.9440 ca        1 GFA     -0.097000
     25 C19        -7.0330   -1.1550   -1.7590 ca        1 GFA     -0.157000
     26 C2          0.6910   -3.8410   -5.3030 ca        1 GFA     -0.144000
     27 HN1        -2.4160   -0.8600   -0.8790 hn        1 GFA      0.351500
     28 H12         1.2250   -0.0420    1.9800 ha        1 GFA      0.152000
     29 H9          2.6580   -0.5610   -2.7870 ha        1 GFA      0.162000
     30 H1         -0.7620   -2.3380   -4.7140 ha        1 GFA      0.148000
     31 H21        -5.4850   -0.6680    1.2460 ha        1 GFA      0.156500
     32 H14        -0.9560    0.3730    1.4810 h1        1 GFA      0.080200
     33 H14A       -0.9980   -1.2410    2.3710 h1        1 GFA      0.080200
     34 H4          3.3840   -4.8110   -3.4410 ha        1 GFA      0.139500
     35 H11         3.4210    0.8710    1.2370 ha        1 GFA      0.155000
     36 H20        -7.7420   -0.8670    0.2640 ha        1 GFA      0.130500
     37 H17        -3.7570   -1.2320   -2.7190 ha        1 GFA      0.156500
     38 H5          2.4470   -3.0840   -1.9100 ha        1 GFA      0.148000
     39 H18        -6.0370   -1.4230   -3.6630 ha        1 GFA      0.130500
     40 H3          2.2660   -5.2950   -5.6200 ha        1 GFA      0.137000
     41 H19        -8.0420   -1.2430   -2.1860 ha        1 GFA      0.130000
     42 H2          0.1940   -4.0570   -6.2600 ha        1 GFA      0.139500
@<TRIPOS>BOND
     1    1   11 1   
     2    1   15 1   
     3    2   13 1   
     4    3   18 2   
     5    4   10 2   
     6    5   16 1   
     7    5   18 1   
     8    5   27 1   
     9    6   11 ar  
    10    6   19 ar  
    11    6   28 1   
    12    7    8 ar  
    13    7   10 1   
    14    7   11 ar  
    15    8   13 ar  
    16    8   29 1   
    17    9   10 1   
    18    9   12 ar  
    19    9   22 ar  
    20   12   26 ar  
    21   12   30 1   
    22   13   19 ar  
    23   14   16 ar  
    24   14   20 ar  
    25   14   31 1   
    26   15   18 1   
    27   15   32 1   
    28   15   33 1   
    29   16   21 ar  
    30   17   22 ar  
    31   17   24 ar  
    32   17   34 1   
    33   19   35 1   
    34   20   25 ar  
    35   20   36 1   
    36   21   23 ar  
    37   21   37 1   
    38   22   38 1   
    39   23   25 ar  
    40   23   39 1   
    41   24   26 ar  
    42   24   40 1   
    43   25   41 1   
    44   26   42 1   
@<TRIPOS>SUBSTRUCTURE
     1 GFA         1 TEMP              0 ****  ****    0 ROOT
