@<TRIPOS>MOLECULE
GFA
   42    36     1     0     0
SMALL
bcc


@<TRIPOS>ATOM
      1 O2         -0.4820   -0.0630   -0.4050 os        1 GFA     -0.207000
      2 CL1         4.3950   -2.3880    1.5290 cl        1 GFA     -0.001000
      3 O3         -3.0030   -0.0880    0.5230 o         1 GFA     -0.359000
      4 O1          0.4660   -0.4290   -3.0830 o         1 GFA     -0.306000
      5 N1         -2.7040    1.5980    2.0450 n         1 GFA     -0.308000
      6 C12         1.1170   -0.3330    1.2030 c1        1 GFA     -0.175000
      7 C8          1.7570   -0.8650   -1.0640 c1        1 GFA     -0.155000
      8 C9          2.8440   -1.5880   -0.5850 c1        1 GFA     -0.072000
      9 C6          2.8170   -0.7060   -3.4960 c1        1 GFA     -0.157000
     10 C7          1.6010   -0.6310   -2.5920 c1        1 GFA      0.336000
     11 C13         0.8910   -0.2360   -0.1710 c1        1 GFA      0.100000
     12 C1          2.8550   -1.6170   -4.5180 c1        1 GFA     -0.071000
     13 C10         3.0670   -1.6840    0.7720 c2        1 GFA     -0.092000
     14 C21        -3.8890    0.1730    3.7360 c1        1 GFA     -0.128833
     15 C14        -1.0130    1.1380    0.1620 c3        1 GFA     -0.049000
     16 C16        -3.9150    1.2240    2.8350 c1        1 GFA      0.072000
     17 C4          4.9670    0.1660   -4.1930 c1        1 GFA     -0.145000
     18 C15        -2.3380    0.8400    0.8680 c2        1 GFA      0.276000
     19 C11         2.1960   -1.0510    1.6740 c2        1 GFA     -0.075000
     20 C20        -4.9390    0.0000    4.6380 c1        1 GFA     -0.128833
     21 C17        -4.9790    2.1010    2.8290 c1        1 GFA     -0.173000
     22 C5          3.8700    0.1930   -3.3230 c2        1 GFA     -0.083000
     23 C18        -6.0290    1.9300    3.7290 c1        1 GFA     -0.128833
     24 C3          5.0080   -0.7470   -5.2190 c1        1 GFA     -0.128833
     25 C19        -6.0030    0.8750    4.6330 c1        1 GFA     -0.128833
     26 C2          3.9530   -1.6470   -5.3920 c1        1 GFA     -0.128833
     27 HN1        -2.1380    2.2580    2.3560 hn        1 GFA      0.265000
     28 H12         0.4990    0.1130    1.8420 ha        1 GFA      0.155000
     29 H9          3.4480   -2.0660   -1.2270 ha        1 GFA      0.160000
     30 H1          2.1480   -2.2190   -4.6340 ha        1 GFA      0.154000
     31 H21        -3.1770   -0.4140    3.7390 ha        1 GFA      0.139667
     32 H14        -1.1660    1.8100   -0.5600 h1        1 GFA      0.130500
     33 H14A       -0.3910    1.4870    0.7960 h1        1 GFA      0.130500
     34 H4          5.7390    0.8280   -4.0640 ha        1 GFA      0.139000
     35 H11         2.3570   -1.1190    2.6420 ha        1 GFA      0.156000
     36 H20        -4.9200   -0.7430    5.2750 ha        1 GFA      0.139667
     37 H17        -4.9950    2.8080    2.2250 ha        1 GFA      0.146000
     38 H5          3.8420    0.8500   -2.5840 ha        1 GFA      0.144000
     39 H18        -6.7670    2.5370    3.7250 ha        1 GFA      0.139667
     40 H3          5.7890   -0.7670   -5.8400 ha        1 GFA      0.139667
     41 H19        -6.7590    0.7510    5.2820 ha        1 GFA      0.139667
     42 H2          3.9800   -2.2820   -6.1050 ha        1 GFA      0.139667
@<TRIPOS>BOND
     1    1   11 1   
     2    1   15 1   
     3    2   13 1   
     4    3   18 1   
     5    4   10 1   
     6    5   16 1   
     7    5   18 1   
     8    5   27 1   
     9    6   19 1   
    10    6   28 1   
    11    7   10 1   
    12    7   11 1   
    13    8   13 1   
    14    8   29 1   
    15    9   12 1   
    16    9   22 1   
    17   12   30 1   
    18   13   19 1   
    19   14   20 1   
    20   14   31 1   
    21   15   18 1   
    22   15   32 1   
    23   15   33 1   
    24   16   21 1   
    25   17   22 1   
    26   17   34 1   
    27   19   35 1   
    28   20   36 1   
    29   21   37 1   
    30   22   38 1   
    31   23   25 1   
    32   23   39 1   
    33   24   26 1   
    34   24   40 1   
    35   25   41 1   
    36   26   42 1   
@<TRIPOS>SUBSTRUCTURE
     1 GFA         1 TEMP              0 ****  ****    0 ROOT
