@<TRIPOS>MOLECULE
GFF
   45    47     1     0     0
SMALL
bcc


@<TRIPOS>ATOM
      1 P1          1.1420   -0.1170   -2.9610 p5        1 GFF      1.621800
      2 O1A         1.1230    0.5780   -4.2750 o         1 GFF     -0.896000
      3 O2A         2.0660   -1.2400   -2.7090 o         1 GFF     -0.896000
      4 O3A         1.0970    0.9290   -1.7310 os        1 GFF     -0.818800
      5 O5'        -0.3830   -0.8090   -2.9160 os        1 GFF     -0.591200
      6 P2          0.9900    1.9210   -0.4220 p5        1 GFF      1.503600
      7 O1B         1.0020    1.0840    0.7970 o         1 GFF     -0.878000
      8 O2B        -0.1020    2.8640   -0.7110 o         1 GFF     -0.878000
      9 C3B         2.6170    2.8490   -0.3280 c3        1 GFF     -0.006800
     10 F1B         2.5040    3.8060   -1.3200 f         1 GFF     -0.279300
     11 F2B         3.5170    1.9370   -0.8550 f         1 GFF     -0.279300
     12 P3          3.5580    3.6740    0.9940 p5        1 GFF      1.348600
     13 O1G         2.7280    4.6360    1.7560 o         1 GFF     -0.868500
     14 O2G         4.8970    4.1070    0.5280 o         1 GFF     -0.868500
     15 O3G         3.8160    2.4110    2.0090 oh        1 GFF     -0.805400
     16 C5'        -1.4170   -0.1800   -3.5910 c3        1 GFF      0.220400
     17 C4'        -1.6830   -0.8410   -4.9580 c3        1 GFF      0.074100
     18 O4'        -3.0220   -1.3810   -5.0010 os        1 GFF     -0.425600
     19 C1'        -3.3790   -1.5060   -6.4040 c3        1 GFF      0.265800
     20 N9         -4.8030   -1.5750   -6.6040 nh        1 GFF     -0.103600
     21 C4         -5.6170   -2.6300   -6.1530 cc        1 GFF      0.018500
     22 N3         -5.3250   -3.7100   -5.3520 nc        1 GFF     -0.550300
     23 C2         -6.3490   -4.5350   -5.0980 cd        1 GFF      0.464800
     24 N2         -6.1610   -5.7060   -4.2570 nh        1 GFF     -0.857800
     25 N1         -7.6590   -4.3590   -5.6030 n         1 GFF     -0.475400
     26 C6         -8.0060   -3.2770   -6.4380 c         1 GFF      0.723700
     27 O6         -9.1980   -3.2490   -6.8340 o         1 GFF     -0.737500
     28 C5         -6.9290   -2.3580   -6.7260 cd        1 GFF     -0.051600
     29 N7         -6.8810   -1.2040   -7.4890 nf        1 GFF     -0.631000
     30 C8         -5.6020   -0.7350   -7.4180 c1        1 GFF      0.037400
     31 C2'        -2.6690   -0.3390   -7.1340 c3        1 GFF     -0.106400
     32 C3'        -1.5850    0.1310   -6.1570 c3        1 GFF      0.136100
     33 O3'        -0.3290    0.0650   -6.7980 oh        1 GFF     -0.665800
     34 HN21       -6.1300   -5.3980   -3.3010 hn        1 GFF      0.356800
     35 HN22       -5.2750   -6.1250   -4.4770 hn        1 GFF      0.356800
     36 HN1        -8.3630   -5.0160   -5.3640 hn        1 GFF      0.299500
     37 H8          3.0990    1.7840    2.0440 ho        1 GFF      0.446000
     38 H1'        -2.9400   -2.4940   -6.7500 h2        1 GFF      0.020700
     39 H2'1       -3.3830    0.4870   -7.3690 hc        1 GFF      0.060200
     40 H2'2       -2.2190   -0.7050   -8.0870 hc        1 GFF      0.060200
     41 H3'        -1.7780    1.1870   -5.8240 h1        1 GFF      0.045700
     42 H1          0.3390    0.2910   -6.1170 ho        1 GFF      0.485000
     43 H4'        -0.9720   -1.6980   -5.1150 h1        1 GFF      0.056700
     44 H5'1       -2.3490   -0.2720   -2.9660 h1        1 GFF      0.034700
     45 H5'2       -1.1650    0.9050   -3.7490 h1        1 GFF      0.034700
@<TRIPOS>BOND
     1    1    2 1   
     2    1    3 1   
     3    1    4 1   
     4    1    5 1   
     5    4    6 1   
     6    5   16 1   
     7    6    7 1   
     8    6    8 1   
     9    6    9 1   
    10    9   10 1   
    11    9   11 1   
    12    9   12 1   
    13   12   13 1   
    14   12   14 1   
    15   12   15 1   
    16   15   37 1   
    17   16   17 1   
    18   16   44 1   
    19   16   45 1   
    20   17   18 1   
    21   17   32 1   
    22   17   43 1   
    23   18   19 1   
    24   19   20 1   
    25   19   31 1   
    26   19   38 1   
    27   20   21 1   
    28   20   30 2   
    29   21   22 1   
    30   21   28 2   
    31   22   23 2   
    32   23   24 1   
    33   23   25 1   
    34   24   34 1   
    35   24   35 1   
    36   25   26 1   
    37   25   36 1   
    38   26   27 2   
    39   26   28 1   
    40   28   29 1   
    41   29   30 2   
    42   31   32 1   
    43   31   39 1   
    44   31   40 1   
    45   32   33 1   
    46   32   41 1   
    47   33   42 1   
@<TRIPOS>SUBSTRUCTURE
     1 GFF         1 TEMP              0 ****  ****    0 ROOT
