@<TRIPOS>MOLECULE
GFF
   45    47     1     0     0
SMALL
bcc


@<TRIPOS>ATOM
      1 P1         -0.2640   -1.7230   -2.5510 p5        1 GFF      1.621800
      2 O1A        -1.4050   -1.2970   -1.6980 o         1 GFF     -0.896000
      3 O2A         0.3980   -3.0240   -2.3360 o         1 GFF     -0.896000
      4 O3A        -0.5420   -1.4250   -4.1140 os        1 GFF     -0.818800
      5 O5'         0.9020   -0.5880   -2.1570 os        1 GFF     -0.591200
      6 P2         -0.7160   -1.0990   -5.7170 p5        1 GFF      1.503600
      7 O1B         0.4990   -1.5620   -6.4200 o         1 GFF     -0.878000
      8 O2B        -1.1850    0.2940   -5.8030 o         1 GFF     -0.878000
      9 C3B        -2.0510   -2.2560   -6.3490 c3        1 GFF     -0.006800
     10 F1B        -3.2230   -1.6790   -5.8940 f         1 GFF     -0.279300
     11 F2B        -1.8970   -3.3670   -5.5380 f         1 GFF     -0.279300
     12 P3         -2.4890   -2.9570   -7.9710 p5        1 GFF      1.348600
     13 O1G        -2.6050   -1.9170   -9.0200 o         1 GFF     -0.868500
     14 O2G        -3.5630   -3.9730   -7.8580 o         1 GFF     -0.868500
     15 O3G        -1.1150   -3.7840   -8.3180 oh        1 GFF     -0.805400
     16 C5'         0.4920    0.6760   -1.7620 c3        1 GFF      0.220400
     17 C4'         0.5170    0.8250   -0.2280 c3        1 GFF      0.074100
     18 O4'         1.4500    1.8570    0.1600 os        1 GFF     -0.425600
     19 C1'         1.0610    2.2950    1.4900 c3        1 GFF      0.265800
     20 N9          1.5760    3.6010    1.8100 nh        1 GFF     -0.103600
     21 C4          2.9440    3.9010    1.9510 cc        1 GFF      0.018500
     22 N3          4.0610    3.1360    1.7080 nc        1 GFF     -0.550300
     23 C2          5.2350    3.7380    1.9370 cd        1 GFF      0.464800
     24 N2          6.4840    3.0290    1.7070 nh        1 GFF     -0.857800
     25 N1          5.3730    5.0640    2.4070 n         1 GFF     -0.475400
     26 C6          4.2600    5.8850    2.6850 c         1 GFF      0.723700
     27 O6          4.5200    7.0360    3.1170 o         1 GFF     -0.737500
     28 C5          2.9740    5.2740    2.4400 cd        1 GFF     -0.051600
     29 N7          1.6830    5.7500    2.5890 nf        1 GFF     -0.631000
     30 C8          0.8430    4.7430    2.2130 c1        1 GFF      0.037400
     31 C2'        -0.4800    2.1640    1.5520 c3        1 GFF     -0.106400
     32 C3'        -0.8410    1.2350    0.3860 c3        1 GFF      0.136100
     33 O3'        -1.5590    0.1270    0.8870 oh        1 GFF     -0.665800
     34 HN21        6.3820    2.0810    2.0230 hn        1 GFF      0.356800
     35 HN22        6.6510    3.0090    0.7160 hn        1 GFF      0.356800
     36 HN1         6.2810    5.4370    2.5480 hn        1 GFF      0.299500
     37 H8         -0.3170   -3.3660   -8.0090 ho        1 GFF      0.446000
     38 H1'         1.5350    1.5580    2.2100 h2        1 GFF      0.020700
     39 H2'1       -0.9770    3.1580    1.4410 hc        1 GFF      0.060200
     40 H2'2       -0.7850    1.7190    2.5290 hc        1 GFF      0.060200
     41 H3'        -1.4700    1.7740   -0.3730 h1        1 GFF      0.045700
     42 H1         -1.6950   -0.4770    0.1280 ho        1 GFF      0.485000
     43 H4'         0.8650   -0.1350    0.2440 h1        1 GFF      0.056700
     44 H5'1        1.2040    1.4290   -2.2030 h1        1 GFF      0.034700
     45 H5'2       -0.5520    0.8720   -2.1350 h1        1 GFF      0.034700
@<TRIPOS>BOND
     1    1    2 1   
     2    1    3 1   
     3    1    4 1   
     4    1    5 1   
     5    4    6 1   
     6    5   16 1   
     7    6    7 1   
     8    6    8 1   
     9    6    9 1   
    10    9   10 1   
    11    9   11 1   
    12    9   12 1   
    13   12   13 1   
    14   12   14 1   
    15   12   15 1   
    16   15   37 1   
    17   16   17 1   
    18   16   44 1   
    19   16   45 1   
    20   17   18 1   
    21   17   32 1   
    22   17   43 1   
    23   18   19 1   
    24   19   20 1   
    25   19   31 1   
    26   19   38 1   
    27   20   21 1   
    28   20   30 2   
    29   21   22 1   
    30   21   28 2   
    31   22   23 2   
    32   23   24 1   
    33   23   25 1   
    34   24   34 1   
    35   24   35 1   
    36   25   26 1   
    37   25   36 1   
    38   26   27 2   
    39   26   28 1   
    40   28   29 1   
    41   29   30 2   
    42   31   32 1   
    43   31   39 1   
    44   31   40 1   
    45   32   33 1   
    46   32   41 1   
    47   33   42 1   
@<TRIPOS>SUBSTRUCTURE
     1 GFF         1 TEMP              0 ****  ****    0 ROOT
