@<TRIPOS>MOLECULE
GFL
   35    37     1     0     0
SMALL
bcc


@<TRIPOS>ATOM
      1 O3P         6.0940   -0.0590    0.3740 o         1 GFL     -0.929167
      2 P           4.6810   -0.0970    0.8640 p5        1 GFL      1.333900
      3 O1P         4.2600   -1.2200    1.7650 o         1 GFL     -0.929167
      4 O2P         4.0310    1.2340    1.1880 o         1 GFL     -0.929167
      5 O5'         3.7540   -0.4530   -0.5780 os        1 GFL     -0.552200
      6 C5'         2.4080   -0.5070   -0.3560 c3        1 GFL      0.231400
      7 C4'         1.7300    0.8030   -0.8290 c3        1 GFL      0.052100
      8 O4'         0.4690    0.5010   -1.4870 os        1 GFL     -0.428600
      9 C3'         1.4520    1.8060    0.3040 c3        1 GFL      0.147100
     10 O3'         2.2190    2.9750    0.1500 oh        1 GFL     -0.672800
     11 C2'        -0.0410    2.2050    0.1290 c3        1 GFL      0.116600
     12 C1'        -0.6250    1.1040   -0.8270 c3        1 GFL      0.221800
     13 N9         -1.4420    0.0800   -0.1850 na        1 GFL     -0.179900
     14 C8         -1.0120   -1.0860    0.4830 cc        1 GFL      0.458400
     15 N7         -2.0320   -1.8660    0.9050 nd        1 GFL     -0.629000
     16 C5         -3.1860   -1.2000    0.4970 cd        1 GFL      0.199800
     17 C6         -4.5820   -1.5360    0.6690 c         1 GFL      0.645000
     18 O6         -5.0860   -2.5250    1.2310 o         1 GFL     -0.641500
     19 N1         -5.4810   -0.5970    0.0980 n         1 GFL     -0.497400
     20 C2         -5.0410    0.5760   -0.5480 cd        1 GFL      0.597800
     21 N2         -6.0790    1.4710   -0.9960 nh        1 GFL     -0.866800
     22 N3         -3.7550    0.9080   -0.7380 nc        1 GFL     -0.624100
     23 C4         -2.8370    0.0220   -0.1940 cc        1 GFL      0.059800
     24 F          -0.7150    2.3420    1.3220 f         1 GFL     -0.237300
     25 H5'1        2.1830   -0.6800    0.7360 h1        1 GFL     -0.002300
     26 H5'2        1.9520   -1.3460   -0.9630 h1        1 GFL     -0.002300
     27 H4'         2.3630    1.2790   -1.6270 h1        1 GFL      0.086700
     28 H3'         1.6420    1.3510    1.3160 h1        1 GFL      0.116700
     29 HO3'        3.1240    2.7360    0.4650 ho        1 GFL      0.510000
     30 H2'        -0.1020    3.1860   -0.4230 h1        1 GFL      0.063700
     31 H1'        -1.2670    1.5750   -1.6280 h2        1 GFL      0.073700
     32 H8          0.0680   -1.2930    0.6130 h5        1 GFL      0.118100
     33 HN1        -6.4540   -0.7380    0.2520 hn        1 GFL      0.322500
     34 HN21       -5.7000    2.3610   -1.2590 hn        1 GFL      0.382300
     35 HN22       -6.5790    1.0660   -1.7640 hn        1 GFL      0.382300
@<TRIPOS>BOND
     1    1    2 1   
     2    2    3 1   
     3    2    4 1   
     4    2    5 1   
     5    5    6 1   
     6    6    7 1   
     7    6   25 1   
     8    6   26 1   
     9    7    8 1   
    10    7    9 1   
    11    7   27 1   
    12    8   12 1   
    13    9   10 1   
    14    9   11 1   
    15    9   28 1   
    16   10   29 1   
    17   11   12 1   
    18   11   24 1   
    19   11   30 1   
    20   12   13 1   
    21   12   31 1   
    22   13   14 1   
    23   13   23 1   
    24   14   15 2   
    25   14   32 1   
    26   15   16 1   
    27   16   17 1   
    28   16   23 2   
    29   17   18 2   
    30   17   19 1   
    31   19   20 1   
    32   19   33 1   
    33   20   21 1   
    34   20   22 2   
    35   21   34 1   
    36   21   35 1   
    37   22   23 1   
@<TRIPOS>SUBSTRUCTURE
     1 GFL         1 TEMP              0 ****  ****    0 ROOT
