@<TRIPOS>MOLECULE
GFL
   35    34     1     0     0
SMALL
bcc


@<TRIPOS>ATOM
      1 O3P        -0.7560    5.2450    1.5960 o         1 GFL     -0.929167
      2 P           0.7430    5.0840    1.6820 p5        1 GFL      1.567500
      3 O1P         1.1950    5.3460    3.0840 o         1 GFL     -0.929167
      4 O2P         1.4080    6.0610    0.7520 o         1 GFL     -0.929167
      5 O5'         1.1400    3.5910    1.2630 os        1 GFL     -0.714000
      6 C5'         0.4690    3.0010    0.1730 c3        1 GFL      0.081000
      7 C4'         1.1670    1.6430   -0.2060 c3        1 GFL     -0.059000
      8 O4'         0.4040    0.6570    0.0740 os        1 GFL     -0.285000
      9 C3'         1.3820    1.5640   -1.7270 c3        1 GFL      0.036000
     10 O3'         2.6810    1.6660   -2.0170 oh        1 GFL     -0.400000
     11 C2'         0.8450    0.1750   -2.1510 c3        1 GFL      0.006000
     12 C1'         0.6780   -0.4590   -1.0600 c3        1 GFL      0.130000
     13 N9         -0.4430   -1.3340   -1.1670 n3        1 GFL     -0.135000
     14 C8         -1.1850   -1.6720   -2.2540 c1        1 GFL     -0.030000
     15 N7         -2.0340   -2.6680   -1.8910 n2        1 GFL     -0.103000
     16 C5         -1.8190   -2.9470   -0.5820 c1        1 GFL     -0.218000
     17 C6         -2.4510   -3.9450    0.3620 c1        1 GFL      0.392000
     18 O6         -3.3280   -4.6970   -0.0410 o         1 GFL     -0.366000
     19 N1         -1.9660   -4.0730    1.6710 n3        1 GFL     -0.337000
     20 C2         -0.8780   -3.2610    2.1100 c2        1 GFL      0.151000
     21 N2         -0.4170   -3.3560    3.4780 n3        1 GFL     -0.305000
     22 N3         -0.2750   -2.3080    1.2040 n1        1 GFL     -0.197000
     23 C4         -0.8310   -2.1190   -0.1330 c1        1 GFL      0.010000
     24 F          -0.4050    0.3190   -2.8390 f         1 GFL     -0.166000
     25 H5'1       -0.4770    2.8280    0.4230 h1        1 GFL      0.037000
     26 H5'2        0.4990    3.6350   -0.6310 h1        1 GFL      0.037000
     27 H4'         2.0130    1.5580    0.2560 h1        1 GFL      0.126000
     28 H3'         0.8940    2.2480   -2.1600 h1        1 GFL      0.156000
     29 HO3'        2.7870    2.2160   -2.6560 ho        1 GFL      0.309000
     30 H2'         1.5020   -0.2880   -2.7230 h1        1 GFL      0.103000
     31 H1'         1.5140   -0.9890   -0.8320 h2        1 GFL      0.113000
     32 H8         -1.0990   -1.2990   -3.1340 DU        1 GFL      0.255000
     33 HN1        -2.3980   -4.5950    2.2580 hn        1 GFL      0.236000
     34 HN21       -0.8590   -3.9190    4.0800 hn        1 GFL      0.177500
     35 HN22        0.3030   -2.9070    3.7370 hn        1 GFL      0.177500
@<TRIPOS>BOND
     1    1    2 1   
     2    2    3 1   
     3    2    4 1   
     4    2    5 1   
     5    5    6 1   
     6    6    7 1   
     7    6   25 1   
     8    6   26 1   
     9    7    8 1   
    10    7    9 1   
    11    7   27 1   
    12    8   12 1   
    13    9   10 1   
    14    9   11 1   
    15    9   28 1   
    16   10   29 1   
    17   11   12 1   
    18   11   24 1   
    19   11   30 1   
    20   12   13 1   
    21   12   31 1   
    22   13   14 1   
    23   13   23 1   
    24   14   15 1   
    25   15   16 1   
    26   16   23 1   
    27   17   18 1   
    28   17   19 1   
    29   19   20 1   
    30   19   33 1   
    31   20   21 1   
    32   20   22 1   
    33   21   34 1   
    34   21   35 1   
@<TRIPOS>SUBSTRUCTURE
     1 GFL         1 TEMP              0 ****  ****    0 ROOT
