@<TRIPOS>MOLECULE
GFP
   26    26     1     0     0
SMALL
bcc


@<TRIPOS>ATOM
      1 C1         -0.2920    0.1240   -1.1110 c3        1 GFP      0.402900
      2 C2          1.2200    0.1240   -1.1110 c3        1 GFP      0.060600
      3 C3          1.7830    0.1240    0.2600 c3        1 GFP      0.092100
      4 C4          1.2060   -0.9630    1.1080 c3        1 GFP      0.094100
      5 C5         -0.3120   -0.9600    1.0960 c3        1 GFP      0.094100
      6 C6         -0.8010    0.2570    1.8220 c3        1 GFP      0.070400
      7 O1         -0.7380   -0.0480   -2.4060 os        1 GFP     -0.500200
      8 O3          1.5020    1.4020    0.8810 oh        1 GFP     -0.628800
      9 O4          1.6690   -2.2270    0.6200 oh        1 GFP     -0.634800
     10 O5         -0.8620   -0.9560   -0.2590 os        1 GFP     -0.447600
     11 O6         -2.1090    0.0220    2.3130 oh        1 GFP     -0.637800
     12 F2          1.6630   -0.9960   -1.7730 f         1 GFP     -0.262300
     13 P          -2.0560    0.7050   -2.8560 p5        1 GFP      1.305900
     14 O1P        -2.3940    0.3230   -4.2780 o         1 GFP     -0.918167
     15 O2P        -3.1950    0.3140   -1.9450 o         1 GFP     -0.918167
     16 O3P        -1.8360    2.1970   -2.7750 o         1 GFP     -0.918167
     17 H1         -0.6070    0.9860   -0.7800 h2        1 GFP      0.050700
     18 H2          1.5360    0.9170   -1.5830 h1        1 GFP      0.104700
     19 H3          2.7500    0.0030    0.2050 h1        1 GFP      0.041700
     20 H4          1.5150   -0.8460    2.0260 h1        1 GFP      0.058700
     21 H5         -0.6320   -1.7550    1.5630 h1        1 GFP      0.048700
     22 H61        -0.2030    0.4520    2.5700 h1        1 GFP      0.092200
     23 H62        -0.8140    1.0180    1.2100 h1        1 GFP      0.092200
     24 HO3         2.2560    1.8650    0.9580 ho        1 GFP      0.442000
     25 HO4         2.0440   -2.6810    1.2840 ho        1 GFP      0.421000
     26 HO6        -2.2910    0.6000    2.9610 ho        1 GFP      0.395000
@<TRIPOS>BOND
     1    1    2 1   
     2    1    7 1   
     3    1   10 1   
     4    1   17 1   
     5    2    3 1   
     6    2   12 1   
     7    2   18 1   
     8    3    4 1   
     9    3    8 1   
    10    3   19 1   
    11    4    5 1   
    12    4    9 1   
    13    4   20 1   
    14    5    6 1   
    15    5   10 1   
    16    5   21 1   
    17    6   11 1   
    18    6   22 1   
    19    6   23 1   
    20    7   13 1   
    21    8   24 1   
    22    9   25 1   
    23   11   26 1   
    24   13   14 1   
    25   13   15 1   
    26   13   16 1   
@<TRIPOS>SUBSTRUCTURE
     1 GFP         1 TEMP              0 ****  ****    0 ROOT
