@<TRIPOS>MOLECULE
GFP
   26    26     1     0     0
SMALL
bcc


@<TRIPOS>ATOM
      1 C1          0.2310   -0.3530    0.8130 c3        1 GFP      0.398900
      2 C2         -0.8870   -1.4660    0.7360 c3        1 GFP      0.085600
      3 C3         -1.8240   -1.0990   -0.4340 c3        1 GFP      0.067100
      4 C4         -2.4780    0.2590   -0.1470 c3        1 GFP      0.127100
      5 C5         -1.3520    1.2930    0.0630 c3        1 GFP      0.113100
      6 C6         -1.9140    2.6490    0.4840 c3        1 GFP      0.153400
      7 O1          0.8540   -0.1770   -0.3560 os        1 GFP     -0.540200
      8 O3         -2.8730   -2.0520   -0.6010 oh        1 GFP     -0.651800
      9 O4         -3.3070    0.6920   -1.2200 oh        1 GFP     -0.621800
     10 O5         -0.5170    0.8560    1.1200 os        1 GFP     -0.489600
     11 O6         -0.9160    3.6470    0.5640 oh        1 GFP     -0.642800
     12 F2         -0.3850   -2.7430    0.5760 f         1 GFP     -0.249300
     13 P           2.6400   -0.1250   -0.3070 p5        1 GFP      1.311900
     14 O1P         2.8750    1.3490   -0.4330 o         1 GFP     -0.914500
     15 O2P         2.8710   -0.7180    1.0570 o         1 GFP     -0.914500
     16 O3P         2.9810   -0.9820   -1.4860 o         1 GFP     -0.914500
     17 H1          0.9180   -0.5090    1.6950 h2        1 GFP      0.132700
     18 H2         -1.4750   -1.4480    1.6980 h1        1 GFP      0.019700
     19 H3         -1.2120   -1.0440   -1.3800 h1        1 GFP      0.102700
     20 H4         -3.1230    0.1840    0.7720 h1        1 GFP      0.026700
     21 H5         -0.7490    1.3910   -0.8850 h1        1 GFP      0.105700
     22 H61        -2.4120    2.5680    1.4890 h1        1 GFP      0.018200
     23 H62        -2.6600    3.0020   -0.2760 h1        1 GFP      0.018200
     24 HO3        -2.4410   -2.9150   -0.6040 ho        1 GFP      0.407000
     25 HO4        -3.6150   -0.1040   -1.6690 ho        1 GFP      0.401000
     26 HO6        -0.0610    3.1980    0.6720 ho        1 GFP      0.452000
@<TRIPOS>BOND
     1    1    2 1   
     2    1    7 1   
     3    1   10 1   
     4    1   17 1   
     5    2    3 1   
     6    2   12 1   
     7    2   18 1   
     8    3    4 1   
     9    3    8 1   
    10    3   19 1   
    11    4    5 1   
    12    4    9 1   
    13    4   20 1   
    14    5    6 1   
    15    5   10 1   
    16    5   21 1   
    17    6   11 1   
    18    6   22 1   
    19    6   23 1   
    20    7   13 1   
    21    8   24 1   
    22    9   25 1   
    23   11   26 1   
    24   13   14 1   
    25   13   15 1   
    26   13   16 1   
@<TRIPOS>SUBSTRUCTURE
     1 GFP         1 TEMP              0 ****  ****    0 ROOT
