@<TRIPOS>MOLECULE
GFT
   36    36     1     0     0
SMALL
bcc


@<TRIPOS>ATOM
      1 N           1.5250   -1.3080    0.1640 n3        1 GFT     -0.907800
      2 CA          2.3410   -0.2700   -0.4500 c3        1 GFT     -0.008500
      3 C           3.8860   -0.5190   -0.3450 c         1 GFT      0.893600
      4 O           4.2660   -1.6930   -0.0770 o         1 GFT     -0.836300
      5 CB          2.0350    1.1300    0.0920 c3        1 GFT      0.174400
      6 OG          0.8450    1.6540   -0.4820 os        1 GFT     -0.612200
      7 CAA        -0.8800    3.4190    0.1840 c3        1 GFT     -0.413300
      8 OAC        -0.3380    1.4170    1.8210 o         1 GFT     -0.857300
      9 CAD        -3.2020   -2.8180   -0.6960 c3        1 GFT     -0.076400
     10 CAE        -1.8020   -2.5670   -1.2190 c3        1 GFT     -0.074400
     11 CAF        -3.4550   -2.0400    0.5790 c3        1 GFT     -0.074400
     12 CAG        -1.5400   -1.0910   -1.4220 c3        1 GFT     -0.089400
     13 CAH        -3.2020   -0.5600    0.3850 c3        1 GFT     -0.089400
     14 OAI        -1.6150    1.0610   -0.3720 os        1 GFT     -0.594200
     15 CAJ        -1.7770   -0.3220   -0.1210 c3        1 GFT      0.192100
     16 PAK        -0.4500    1.8450    0.4280 p5        1 GFT      1.545300
     17 OXT         4.6570    0.4560   -0.5580 o         1 GFT     -0.836300
     18 HN1         1.9050   -2.1950   -0.1260 hn        1 GFT      0.339800
     19 HN2         1.6390   -1.2620    1.1620 hn        1 GFT      0.339800
     20 HA          2.0950   -0.2720   -1.5520 h1        1 GFT      0.058700
     21 HB1C        1.9330    1.1400    1.2110 h1        1 GFT      0.067200
     22 HB2C        2.8690    1.8140   -0.2370 h1        1 GFT      0.067200
     23 HAA1       -0.1420    3.9670   -0.4510 hc        1 GFT      0.099033
     24 HAA2       -1.8670    3.5140   -0.3300 hc        1 GFT      0.099033
     25 HAA3       -0.9610    3.9780    1.1470 hc        1 GFT      0.099033
     26 HAE1       -1.0490   -2.9780   -0.4960 hc        1 GFT      0.039950
     27 HAE2       -1.6640   -3.1060   -2.1920 hc        1 GFT      0.039950
     28 HAF1       -4.5140   -2.1960    0.9120 hc        1 GFT      0.039950
     29 HAF2       -2.7850   -2.4280    1.3910 hc        1 GFT      0.039950
     30 HAG1       -0.4790   -0.9370   -1.7540 hc        1 GFT      0.049700
     31 HAG2       -2.2130   -0.6790   -2.2170 hc        1 GFT      0.049700
     32 HAH1       -3.9270   -0.1360   -0.3560 hc        1 GFT      0.049700
     33 HAH2       -3.3500   -0.0190    1.3550 hc        1 GFT      0.049700
     34 HAJ        -1.0350   -0.6450    0.6670 h1        1 GFT      0.079700
     35 HAD1       -3.9520   -2.5140   -1.4730 hc        1 GFT      0.027700
     36 HAD2       -3.3420   -3.9130   -0.5020 hc        1 GFT      0.027700
@<TRIPOS>BOND
     1    1    2 1   
     2    1   18 1   
     3    1   19 1   
     4    2    3 1   
     5    2    5 1   
     6    2   20 1   
     7    3    4 1   
     8    3   17 1   
     9    5    6 1   
    10    5   21 1   
    11    5   22 1   
    12    6   16 1   
    13    7   16 1   
    14    7   23 1   
    15    7   24 1   
    16    7   25 1   
    17    8   16 2   
    18    9   10 1   
    19    9   11 1   
    20    9   35 1   
    21    9   36 1   
    22   10   12 1   
    23   10   26 1   
    24   10   27 1   
    25   11   13 1   
    26   11   28 1   
    27   11   29 1   
    28   12   15 1   
    29   12   30 1   
    30   12   31 1   
    31   13   15 1   
    32   13   32 1   
    33   13   33 1   
    34   14   15 1   
    35   14   16 1   
    36   15   34 1   
@<TRIPOS>SUBSTRUCTURE
     1 GFT         1 TEMP              0 ****  ****    0 ROOT
