@<TRIPOS>MOLECULE
GFT
   36    35     1     0     0
SMALL
bcc


@<TRIPOS>ATOM
      1 N          -3.5730   -0.6150    3.9740 n3        1 GFT     -0.345000
      2 CA         -2.2180   -0.4450    3.5480 c3        1 GFT     -0.169000
      3 C          -1.4860    0.3860    4.5470 c1        1 GFT      0.316000
      4 O          -1.9480    1.5000    4.8940 o         1 GFT     -0.575000
      5 CB         -2.1940    0.2540    2.1900 c3        1 GFT      0.026000
      6 OG         -1.2690   -0.4290    1.3100 os        1 GFT     -0.774000
      7 CAA        -2.3560   -0.8800   -1.2590 c3        1 GFT     -0.957000
      8 OAC        -1.4850    1.5310   -0.3010 o         1 GFT     -1.131000
      9 CAD         3.6310   -0.2110   -2.1680 c3        1 GFT     -0.152000
     10 CAE         2.4770   -1.0440   -2.7010 c3        1 GFT     -0.148500
     11 CAF         3.2260    0.6560   -0.9970 c3        1 GFT     -0.148500
     12 CAG         1.2500   -0.2100   -2.9960 c3        1 GFT     -0.167500
     13 CAH         2.0000    1.4890   -1.2920 c3        1 GFT     -0.167500
     14 OAI         0.3530   -0.1850   -0.7750 os        1 GFT     -0.749000
     15 CAJ         0.8450    0.6560   -1.8260 c3        1 GFT      0.087000
     16 PAK        -1.1620    0.0660   -0.2250 p5        1 GFT      2.700000
     17 OXT        -0.4530   -0.0660    5.1010 os        1 GFT     -0.561000
     18 HN1        -3.6130   -0.5800    4.9040 hn        1 GFT      0.134500
     19 HN2        -3.8870   -1.4310    3.6830 hn        1 GFT      0.134500
     20 HA         -1.7890   -1.3170    3.4730 h1        1 GFT      0.097000
     21 HB1C       -1.9070    1.1850    2.3060 h1        1 GFT      0.108500
     22 HB2C       -3.0920    0.2350    1.7970 h1        1 GFT      0.108500
     23 HAA1       -2.2110   -1.8440   -1.1280 hc        1 GFT      0.150000
     24 HAA2       -2.2210   -0.6540   -2.2050 hc        1 GFT      0.150000
     25 HAA3       -3.2750   -0.6480   -0.9950 hc        1 GFT      0.150000
     26 HAD1        4.3500   -0.8110   -1.8840 hc        1 GFT      0.066000
     27 HAD2        3.9660    0.3660   -2.8890 hc        1 GFT      0.066000
     28 HAE1        2.7610   -1.4870   -3.5220 hc        1 GFT      0.078000
     29 HAE2        2.2450   -1.7230   -2.0390 hc        1 GFT      0.078000
     30 HAF1        3.9660    1.2510   -0.7750 hc        1 GFT      0.078000
     31 HAF2        3.0410    0.0820   -0.2290 hc        1 GFT      0.078000
     32 HAG1        0.5120   -0.8030   -3.2180 hc        1 GFT      0.087250
     33 HAG2        1.4370    0.3670   -3.7670 hc        1 GFT      0.087250
     34 HAH1        2.2330    2.1710   -1.9580 hc        1 GFT      0.087250
     35 HAH2        1.7160    1.9340   -0.4710 hc        1 GFT      0.087250
     36 HAJ         0.1300    1.2560   -2.1100 h1        1 GFT      0.093000
@<TRIPOS>BOND
     1    1    2 1   
     2    1   18 1   
     3    1   19 1   
     4    2    3 1   
     5    2    5 1   
     6    2   20 1   
     7    3    4 1   
     8    5    6 1   
     9    5   21 1   
    10    5   22 1   
    11    6   16 1   
    12    7   16 1   
    13    7   23 1   
    14    7   24 1   
    15    7   25 1   
    16    8   16 1   
    17    9   10 1   
    18    9   11 1   
    19    9   26 1   
    20    9   27 1   
    21   10   12 1   
    22   10   28 1   
    23   10   29 1   
    24   11   13 1   
    25   11   30 1   
    26   11   31 1   
    27   12   15 1   
    28   12   32 1   
    29   12   33 1   
    30   13   15 1   
    31   13   34 1   
    32   13   35 1   
    33   14   15 1   
    34   14   16 1   
    35   15   36 1   
@<TRIPOS>SUBSTRUCTURE
     1 GFT         1 TEMP              0 ****  ****    0 ROOT
