@<TRIPOS>MOLECULE
GG1
   51    54     1     0     0
SMALL
bcc


@<TRIPOS>ATOM
      1 N1         -0.3190   -4.5680    0.0780 n         1 GG1     -0.367000
      2 C4          1.0590   -7.1570    2.4370 c3        1 GG1      0.150300
      3 C5          1.1990   -4.6800    2.4970 c         1 GG1      0.726100
      4 C6         -0.2000   -0.9560    0.9440 ca        1 GG1     -0.048000
      5 C7          0.8750    0.2150    2.7950 cg        1 GG1     -0.101000
      6 C8          0.5720   -0.9800    2.1200 ca        1 GG1     -0.034000
      7 C10        -2.2160   -8.5380    4.8570 ca        1 GG1     -0.106600
      8 C13        -1.1980   -7.7600    5.4200 ca        1 GG1     -0.118500
      9 C15        -0.1430   -7.3000    4.6360 ca        1 GG1     -0.135500
     10 C17        -1.1090   -8.3910    2.7050 ca        1 GG1     -0.135500
     11 C20         0.3020    3.3600    4.2540 ca        1 GG1     -0.077300
     12 C21        -0.0910   -7.6190    3.2750 ca        1 GG1     -0.170300
     13 C22         0.7230   -3.3960    1.9360 ca        1 GG1     -0.209600
     14 C26         1.1310    1.2320    3.3750 c1        1 GG1     -0.132100
     15 O6         -3.3680   -8.7360    6.9420 o         1 GG1     -0.828800
     16 O5         -4.2710   -9.7210    5.1530 o         1 GG1     -0.828800
     17 C19        -2.1620   -8.8480    3.4940 ca        1 GG1     -0.118500
     18 N6          0.8570   -5.8530    1.8030 n         1 GG1     -0.471400
     19 O2          1.9010   -4.7350    3.5230 o         1 GG1     -0.611500
     20 C3         -0.0500   -3.3760    0.7470 ca        1 GG1      0.134600
     21 C2         -0.5100   -2.1240    0.2660 ca        1 GG1     -0.203000
     22 C25        -1.1620   -4.5640   -1.0890 c3        1 GG1      0.079300
     23 C1          0.1290   -5.8170    0.5970 c         1 GG1      0.820500
     24 O1         -0.0900   -6.8550   -0.0640 o         1 GG1     -0.634500
     25 C23         1.0260   -2.2100    2.6090 ca        1 GG1     -0.009000
     26 C11         1.4640    2.4400    4.0690 c3        1 GG1      0.050000
     27 C16         0.4460    4.7280    3.9980 ca        1 GG1     -0.121500
     28 C18        -0.6250    5.5970    4.2030 ca        1 GG1     -0.130000
     29 C14        -0.9270    2.8730    4.7150 ca        1 GG1     -0.121500
     30 C12        -1.9960    3.7440    4.9180 ca        1 GG1     -0.130000
     31 C9         -1.8460    5.1070    4.6630 ca        1 GG1     -0.133000
     32 H41         1.9840   -7.0640    3.0760 h1        1 GG1      0.073700
     33 H42         1.2540   -7.9020    1.6130 h1        1 GG1      0.073700
     34 H6         -0.5670    0.0080    0.5580 ha        1 GG1      0.140000
     35 H13        -1.2570   -7.5240    6.4950 ha        1 GG1      0.153000
     36 H15         0.6520   -6.6810    5.0790 ha        1 GG1      0.121000
     37 H17        -1.0720   -8.6270    1.6300 ha        1 GG1      0.121000
     38 H19        -2.9730   -9.4600    3.0660 ha        1 GG1      0.153000
     39 H2         -1.1190   -2.0670   -0.6470 ha        1 GG1      0.141000
     40 H251       -0.6770   -3.9590   -1.9010 h1        1 GG1      0.057033
     41 H252       -2.1620   -4.1160   -0.8410 h1        1 GG1      0.057033
     42 H253       -1.3150   -5.6150   -1.4560 h1        1 GG1      0.057033
     43 H23         1.6240   -2.2640    3.5350 ha        1 GG1      0.169000
     44 H111        1.8760    2.1770    5.0870 hc        1 GG1      0.066700
     45 H112        2.2860    2.9700    3.5060 hc        1 GG1      0.066700
     46 H16         1.4060    5.1200    3.6310 ha        1 GG1      0.137000
     47 H18        -0.5040    6.6710    3.9990 ha        1 GG1      0.130000
     48 H14        -1.0450    1.7950    4.9110 ha        1 GG1      0.137000
     49 H12        -2.9580    3.3530    5.2790 ha        1 GG1      0.130000
     50 H9         -2.6900    5.7930    4.8240 ha        1 GG1      0.128000
     51 C24        -3.3710   -9.0360    5.7150 c         1 GG1      0.905200
@<TRIPOS>BOND
     1    1   20 1   
     2    1   22 1   
     3    1   23 1   
     4    2   12 1   
     5    2   18 1   
     6    2   32 1   
     7    2   33 1   
     8    3   13 1   
     9    3   18 1   
    10    3   19 2   
    11    4    6 ar  
    12    4   21 ar  
    13    4   34 1   
    14    5    6 1   
    15    5   14 3   
    16    6   25 ar  
    17    7    8 ar  
    18    7   17 ar  
    19    7   51 1   
    20    8    9 ar  
    21    8   35 1   
    22    9   12 ar  
    23    9   36 1   
    24   10   12 ar  
    25   10   17 ar  
    26   10   37 1   
    27   11   26 1   
    28   11   27 ar  
    29   11   29 ar  
    30   13   20 ar  
    31   13   25 ar  
    32   14   26 1   
    33   15   51 1   
    34   16   51 1   
    35   17   38 1   
    36   18   23 1   
    37   20   21 ar  
    38   21   39 1   
    39   22   40 1   
    40   22   41 1   
    41   22   42 1   
    42   23   24 2   
    43   25   43 1   
    44   26   44 1   
    45   26   45 1   
    46   27   28 ar  
    47   27   46 1   
    48   28   31 ar  
    49   28   47 1   
    50   29   30 ar  
    51   29   48 1   
    52   30   31 ar  
    53   30   49 1   
    54   31   50 1   
@<TRIPOS>SUBSTRUCTURE
     1 GG1         1 TEMP              0 ****  ****    0 ROOT
