@<TRIPOS>MOLECULE
GG1
   51    54     1     0     0
SMALL
bcc


@<TRIPOS>ATOM
      1 N1          0.1040   -0.0930    0.0310 n         1 GG1     -0.367000
      2 C4         -0.7370    0.1360   -3.6310 c3        1 GG1      0.150300
      3 C5          1.4500    0.2730   -2.4640 c         1 GG1      0.726100
      4 C6          3.6390   -0.2960    1.1580 ca        1 GG1     -0.048000
      5 C7          5.7320   -0.0770   -0.0780 cg        1 GG1     -0.101000
      6 C8          4.3270   -0.0870   -0.0520 ca        1 GG1     -0.034000
      7 C10        -1.4530   -3.8690   -5.0200 ca        1 GG1     -0.106600
      8 C13        -0.3150   -3.1700   -5.4330 ca        1 GG1     -0.118500
      9 C15        -0.0720   -1.8770   -4.9750 ca        1 GG1     -0.135500
     10 C17        -2.1120   -1.9620   -3.6760 ca        1 GG1     -0.135500
     11 C20         9.0040   -1.1640    0.6030 ca        1 GG1     -0.077300
     12 C21        -0.9740   -1.2650   -4.0970 ca        1 GG1     -0.170300
     13 C22         2.1940    0.0930   -1.1980 ca        1 GG1     -0.209600
     14 C26         6.9300   -0.0730   -0.1040 c1        1 GG1     -0.132100
     15 O6         -0.8800   -5.7900   -6.3220 o         1 GG1     -0.828800
     16 O5         -2.7490   -5.8760   -5.1020 o         1 GG1     -0.828800
     17 C19        -2.3490   -3.2540   -4.1380 ca        1 GG1     -0.118500
     18 N6          0.0460    0.2360   -2.3980 n         1 GG1     -0.471400
     19 O2          2.0250    0.4810   -3.5470 o         1 GG1     -0.611500
     20 C3          1.4970   -0.1110    0.0200 ca        1 GG1      0.134600
     21 C2          2.2550   -0.3100    1.2020 ca        1 GG1     -0.203000
     22 C25        -0.6110   -0.3700    1.2490 c3        1 GG1      0.079300
     23 C1         -0.6360    0.0800   -1.1740 c         1 GG1      0.820500
     24 O1         -1.8830    0.1430   -1.1100 o         1 GG1     -0.634500
     25 C23         3.5900    0.1030   -1.2270 ca        1 GG1     -0.009000
     26 C11         8.3610   -0.0440   -0.1490 c3        1 GG1      0.050000
     27 C16        10.0890   -0.9050    1.4470 ca        1 GG1     -0.121500
     28 C18        10.7160   -1.9510    2.1240 ca        1 GG1     -0.130000
     29 C14         8.5520   -2.4790    0.4460 ca        1 GG1     -0.121500
     30 C12         9.1790   -3.5220    1.1250 ca        1 GG1     -0.130000
     31 C9         10.2620   -3.2600    1.9640 ca        1 GG1     -0.133000
     32 H41        -0.1700    0.7110   -4.4190 h1        1 GG1      0.073700
     33 H42        -1.7240    0.6480   -3.4410 h1        1 GG1      0.073700
     34 H6          4.2130   -0.4550    2.0840 ha        1 GG1      0.140000
     35 H13         0.3810   -3.6690   -6.1270 ha        1 GG1      0.153000
     36 H15         0.8280   -1.3310   -5.2940 ha        1 GG1      0.121000
     37 H17        -2.8110   -1.4820   -2.9740 ha        1 GG1      0.121000
     38 H19        -3.2390   -3.8200   -3.8200 ha        1 GG1      0.153000
     39 H2          1.7520   -0.4810    2.1650 ha        1 GG1      0.141000
     40 H251       -0.3730    0.4190    2.0130 h1        1 GG1      0.057033
     41 H252       -0.3110   -1.3760    1.6510 h1        1 GG1      0.057033
     42 H253       -1.7180   -0.3700    1.0550 h1        1 GG1      0.057033
     43 H23         4.0990    0.2590   -2.1940 ha        1 GG1      0.169000
     44 H111        8.6950   -0.1000   -1.2270 hc        1 GG1      0.066700
     45 H112        8.7200    0.9460    0.2570 hc        1 GG1      0.066700
     46 H16        10.4490    0.1260    1.5800 ha        1 GG1      0.137000
     47 H18        11.5680   -1.7410    2.7860 ha        1 GG1      0.130000
     48 H14         7.6930   -2.6830   -0.2130 ha        1 GG1      0.137000
     49 H12         8.8170   -4.5530    0.9970 ha        1 GG1      0.130000
     50 H9         10.7570   -4.0840    2.4990 ha        1 GG1      0.128000
     51 C24        -1.7140   -5.2840   -5.5190 c         1 GG1      0.905200
@<TRIPOS>BOND
     1    1   20 1   
     2    1   22 1   
     3    1   23 1   
     4    2   12 1   
     5    2   18 1   
     6    2   32 1   
     7    2   33 1   
     8    3   13 1   
     9    3   18 1   
    10    3   19 2   
    11    4    6 ar  
    12    4   21 ar  
    13    4   34 1   
    14    5    6 1   
    15    5   14 3   
    16    6   25 ar  
    17    7    8 ar  
    18    7   17 ar  
    19    7   51 1   
    20    8    9 ar  
    21    8   35 1   
    22    9   12 ar  
    23    9   36 1   
    24   10   12 ar  
    25   10   17 ar  
    26   10   37 1   
    27   11   26 1   
    28   11   27 ar  
    29   11   29 ar  
    30   13   20 ar  
    31   13   25 ar  
    32   14   26 1   
    33   15   51 1   
    34   16   51 1   
    35   17   38 1   
    36   18   23 1   
    37   20   21 ar  
    38   21   39 1   
    39   22   40 1   
    40   22   41 1   
    41   22   42 1   
    42   23   24 2   
    43   25   43 1   
    44   26   44 1   
    45   26   45 1   
    46   27   28 ar  
    47   27   46 1   
    48   28   31 ar  
    49   28   47 1   
    50   29   30 ar  
    51   29   48 1   
    52   30   31 ar  
    53   30   49 1   
    54   31   50 1   
@<TRIPOS>SUBSTRUCTURE
     1 GG1         1 TEMP              0 ****  ****    0 ROOT
