@<TRIPOS>MOLECULE
GG1
   51    54     1     0     0
SMALL
bcc


@<TRIPOS>ATOM
      1 N1          0.0920   -0.0980    0.0320 n         1 GG1     -0.367000
      2 C4         -0.7330    0.1280   -3.6330 c3        1 GG1      0.150300
      3 C5          1.4470    0.2750   -2.4570 c         1 GG1      0.726100
      4 C6          3.6230   -0.2860    1.1750 ca        1 GG1     -0.048000
      5 C7          5.7200   -0.0560   -0.0520 cg        1 GG1     -0.101000
      6 C8          4.3150   -0.0730   -0.0320 ca        1 GG1     -0.034000
      7 C10        -1.4240   -3.8800   -5.0260 ca        1 GG1     -0.106600
      8 C13        -0.2870   -3.1750   -5.4350 ca        1 GG1     -0.118500
      9 C15        -0.0530   -1.8810   -4.9750 ca        1 GG1     -0.135500
     10 C17        -2.0980   -1.9770   -3.6840 ca        1 GG1     -0.135500
     11 C20         8.9950   -1.1470    0.6120 ca        1 GG1     -0.078300
     12 C21        -0.9620   -1.2740   -4.1010 ca        1 GG1     -0.170300
     13 C22         2.1870    0.0990   -1.1870 ca        1 GG1     -0.209600
     14 C26         6.9180   -0.0460   -0.0730 c1        1 GG1     -0.132100
     15 O6         -0.8350   -5.7980   -6.3260 o         1 GG1     -0.828800
     16 O5         -2.7090   -5.8940   -5.1140 o         1 GG1     -0.828800
     17 C19        -2.3260   -3.2700   -4.1470 ca        1 GG1     -0.118500
     18 N6          0.0440    0.2320   -2.3970 n         1 GG1     -0.471400
     19 O2          2.0260    0.4870   -3.5380 o         1 GG1     -0.611500
     20 C3          1.4850   -0.1100    0.0270 ca        1 GG1      0.134600
     21 C2          2.2390   -0.3060    1.2120 ca        1 GG1     -0.203000
     22 C25        -0.6270   -0.3790    1.2470 c3        1 GG1      0.079300
     23 C1         -0.6430    0.0720   -1.1760 c         1 GG1      0.820500
     24 O1         -1.8900    0.1290   -1.1180 o         1 GG1     -0.634500
     25 C23         3.5830    0.1150   -1.2100 ca        1 GG1     -0.009000
     26 C11         8.3500   -0.0100   -0.1110 c3        1 GG1      0.050000
     27 C16        10.0800   -0.9080    1.4620 ca        1 GG1     -0.122000
     28 C18        10.7090   -1.9700    2.1120 ca        1 GG1     -0.130000
     29 C14         8.5450   -2.4590    0.4220 ca        1 GG1     -0.122000
     30 C12         9.1740   -3.5170    1.0740 ca        1 GG1     -0.130000
     31 C9         10.2580   -3.2750    1.9190 ca        1 GG1     -0.133000
     32 H41        -0.1650    0.7060   -4.4190 h1        1 GG1      0.073700
     33 H42        -1.7240    0.6350   -3.4490 h1        1 GG1      0.073700
     34 H6          4.1940   -0.4420    2.1030 ha        1 GG1      0.140000
     35 H13         0.4140   -3.6710   -6.1260 ha        1 GG1      0.153000
     36 H15         0.8460   -1.3310   -5.2910 ha        1 GG1      0.121000
     37 H17        -2.8020   -1.5010   -2.9850 ha        1 GG1      0.121000
     38 H19        -3.2150   -3.8410   -3.8330 ha        1 GG1      0.153000
     39 H2          1.7320   -0.4800    2.1730 ha        1 GG1      0.141000
     40 H251       -0.3960    0.4100    2.0120 h1        1 GG1      0.057033
     41 H252       -0.3250   -1.3830    1.6490 h1        1 GG1      0.057033
     42 H253       -1.7330   -0.3840    1.0480 h1        1 GG1      0.057033
     43 H23         4.0960    0.2740   -2.1750 ha        1 GG1      0.169000
     44 H111        8.6890   -0.0340   -1.1880 hc        1 GG1      0.066700
     45 H112        8.7020    0.9700    0.3250 hc        1 GG1      0.066700
     46 H16        10.4380    0.1200    1.6210 ha        1 GG1      0.137000
     47 H18        11.5610   -1.7750    2.7790 ha        1 GG1      0.130000
     48 H14         7.6860   -2.6480   -0.2410 ha        1 GG1      0.137000
     49 H12         8.8140   -4.5450    0.9210 ha        1 GG1      0.130000
     50 H9         10.7540   -4.1110    2.4330 ha        1 GG1      0.128000
     51 C24        -1.6750   -5.2960   -5.5260 c         1 GG1      0.905200
@<TRIPOS>BOND
     1    1   20 1   
     2    1   22 1   
     3    1   23 1   
     4    2   12 1   
     5    2   18 1   
     6    2   32 1   
     7    2   33 1   
     8    3   13 1   
     9    3   18 1   
    10    3   19 2   
    11    4    6 ar  
    12    4   21 ar  
    13    4   34 1   
    14    5    6 1   
    15    5   14 3   
    16    6   25 ar  
    17    7    8 ar  
    18    7   17 ar  
    19    7   51 1   
    20    8    9 ar  
    21    8   35 1   
    22    9   12 ar  
    23    9   36 1   
    24   10   12 ar  
    25   10   17 ar  
    26   10   37 1   
    27   11   26 1   
    28   11   27 ar  
    29   11   29 ar  
    30   13   20 ar  
    31   13   25 ar  
    32   14   26 1   
    33   15   51 1   
    34   16   51 1   
    35   17   38 1   
    36   18   23 1   
    37   20   21 ar  
    38   21   39 1   
    39   22   40 1   
    40   22   41 1   
    41   22   42 1   
    42   23   24 2   
    43   25   43 1   
    44   26   44 1   
    45   26   45 1   
    46   27   28 ar  
    47   27   46 1   
    48   28   31 ar  
    49   28   47 1   
    50   29   30 ar  
    51   29   48 1   
    52   30   31 ar  
    53   30   49 1   
    54   31   50 1   
@<TRIPOS>SUBSTRUCTURE
     1 GG1         1 TEMP              0 ****  ****    0 ROOT
