@<TRIPOS>MOLECULE
GG1
   51    43     1     0     0
SMALL
bcc


@<TRIPOS>ATOM
      1 N1         -2.9230    0.9410    0.7800 n2        1 GG1     -0.270000
      2 C4         -2.8240   -0.5020   -2.0950 c3        1 GG1      0.027000
      3 C5         -1.4350    0.8520   -1.4980 c1        1 GG1      0.363000
      4 C6          0.4240    1.0070    2.2280 c1        1 GG1     -0.047000
      5 C7          2.7170    0.9160    1.1200 c1        1 GG1     -0.131500
      6 C8          1.1890    0.9670    1.0840 c1        1 GG1     -0.031000
      7 C10        -4.8460   -2.6560   -4.7200 c1        1 GG1     -0.086000
      8 C13        -4.5930   -3.0340   -3.4160 c1        1 GG1     -0.119000
      9 C15        -4.2350   -2.0830   -2.4790 c1        1 GG1     -0.136000
     10 C17        -4.3860   -0.3840   -4.1540 c1        1 GG1     -0.127667
     11 C20         5.9100    0.7490    2.6380 c1        1 GG1     -0.068000
     12 C21        -4.1310   -0.7640   -2.8450 c1        1 GG1     -0.163000
     13 C22        -0.8640    0.8800   -0.2650 c1        1 GG1     -0.189000
     14 C24        -5.1970   -3.6820   -5.7370 c2        1 GG1      0.354000
     15 C26         3.9260    0.8780    1.1520 c1        1 GG1     -0.131500
     16 O6         -4.2950   -4.2030   -6.4420 o         1 GG1     -0.563500
     17 O5         -6.3970   -4.0560   -5.8680 o         1 GG1     -0.563500
     18 C19        -4.7420   -1.3280   -5.0860 c1        1 GG1     -0.127667
     19 N6         -2.7940    0.8630   -1.6530 n         1 GG1     -0.300000
     20 O2         -0.7070    0.8050   -2.5080 o         1 GG1     -0.336000
     21 C3         -1.6010    0.9190    0.8350 c2        1 GG1      0.142000
     22 C2         -0.9620    0.9850    2.1350 c1        1 GG1     -0.203000
     23 C25        -3.6650    0.9590    1.9820 c2        1 GG1     -0.076000
     24 C1         -3.6010    0.9230   -0.4440 c2        1 GG1      0.411000
     25 O1         -3.9670    2.0940   -0.3220 o         1 GG1     -0.359000
     26 C23         0.5690    0.9030   -0.1710 c2        1 GG1     -0.008000
     27 C11         5.4470    0.8360    1.1940 c2        1 GG1     -0.011000
     28 C16         6.8940   -0.2300    2.7100 c1        1 GG1     -0.127667
     29 C18         7.7500   -0.2710    3.7970 c1        1 GG1     -0.127667
     30 C14         5.7840    1.6800    3.6480 c1        1 GG1     -0.129000
     31 C12         6.6420    1.6420    4.7430 c1        1 GG1     -0.127667
     32 C9          7.6220    0.6720    4.8200 c1        1 GG1     -0.127667
     33 H41        -2.7650   -1.1080   -1.3060 h1        1 GG1      0.113000
     34 H42        -2.0540   -0.6710   -2.7000 h1        1 GG1      0.113000
     35 H6          0.8000    1.2890    3.0880 ha        1 GG1      0.139000
     36 H13        -4.6620   -3.9760   -3.1560 ha        1 GG1      0.153000
     37 H15        -4.0540   -2.3510   -1.5540 ha        1 GG1      0.122000
     38 H17        -4.3590    0.5680   -4.4040 ha        1 GG1      0.133500
     39 H19        -4.9250   -1.0550   -6.0240 ha        1 GG1      0.133500
     40 H2         -1.1580    1.0670    3.1020 ha        1 GG1      0.141000
     41 H251       -3.4140    1.7630    2.5150 ha        1 GG1      0.096333
     42 H252       -3.4640    0.1310    2.5110 ha        1 GG1      0.096333
     43 H253       -4.6230    0.9900    1.7740 ha        1 GG1      0.096333
     44 H23         1.1160    0.9190   -0.9830 ha        1 GG1      0.169000
     45 H111        5.7660    0.0550    0.7030 ha        1 GG1      0.108000
     46 H112        5.8060    1.6470    0.7860 ha        1 GG1      0.108000
     47 H16         6.9430   -0.9170    2.0270 ha        1 GG1      0.133500
     48 H18         8.4680   -0.9370    3.8300 ha        1 GG1      0.133500
     49 H14         5.0610    2.3280    3.6210 ha        1 GG1      0.130000
     50 H12         6.5530    2.2970    5.4510 ha        1 GG1      0.133500
     51 H9          8.2550    0.6820    5.5530 ha        1 GG1      0.133500
@<TRIPOS>BOND
     1    1   21 1   
     2    1   24 1   
     3    2   12 1   
     4    2   19 1   
     5    2   33 1   
     6    2   34 1   
     7    3   19 1   
     8    3   20 1   
     9    4    6 1   
    10    4   35 1   
    11    5   15 1   
    12    6   26 1   
    13    7    8 1   
    14    7   14 1   
    15    8   36 1   
    16    9   12 1   
    17    9   37 1   
    18   10   18 1   
    19   10   38 1   
    20   11   27 1   
    21   11   30 1   
    22   13   21 1   
    23   13   26 1   
    24   14   16 1   
    25   14   17 1   
    26   18   39 1   
    27   19   24 1   
    28   21   22 1   
    29   22   40 1   
    30   23   41 1   
    31   23   42 1   
    32   23   43 1   
    33   24   25 1   
    34   26   44 1   
    35   27   45 1   
    36   27   46 1   
    37   28   29 1   
    38   28   47 1   
    39   29   48 1   
    40   30   49 1   
    41   31   32 1   
    42   31   50 1   
    43   32   51 1   
@<TRIPOS>SUBSTRUCTURE
     1 GG1         1 TEMP              0 ****  ****    0 ROOT
