@<TRIPOS>MOLECULE
GG2
   59    63     1     0     0
SMALL
bcc


@<TRIPOS>ATOM
      1 C1          7.2690   10.6310   -2.1560 ca        1 GG2      0.142100
      2 C2          6.3880   11.3800   -2.9590 ca        1 GG2     -0.180500
      3 C3          5.1110   11.6620   -2.4990 ca        1 GG2     -0.061000
      4 O4          8.5130   10.4110   -2.7090 os        1 GG2     -0.323900
      5 N6          2.8820   12.7450   -0.8380 nc        1 GG2     -0.474800
      6 C7          1.2320    7.1540    0.5820 ca        1 GG2      0.039600
      7 C8          2.5230    9.1670    0.0380 c         1 GG2      0.753100
      8 C10         1.5880   12.7070   -0.3760 cd        1 GG2      0.250800
      9 C11         0.6630   13.8610   -0.3060 c         1 GG2      0.603600
     10 C12         1.2590   11.3630    0.0090 cd        1 GG2     -0.145600
     11 C13         2.4290   10.6130   -0.2440 cc        1 GG2     -0.183900
     12 C14         0.0900    5.0200    0.3190 ca        1 GG2     -0.135000
     13 C15         9.4050    9.6000   -1.9510 c3        1 GG2      0.110700
     14 C16         1.0290    4.3790    1.1560 ca        1 GG2      0.052600
     15 C19         2.0040    2.1670    1.6030 c         1 GG2      0.702500
     16 C20        -0.4510    2.4660    1.4570 c3        1 GG2      0.097000
     17 C21        -0.6200    1.1560    2.2190 c3        1 GG2     -0.093400
     18 C22         2.1850    6.5110    1.4000 ca        1 GG2     -0.126000
     19 C24         0.0370    9.2460    0.1640 c3        1 GG2      0.097000
     20 C4          4.6990   11.1990   -1.2310 ca        1 GG2     -0.051200
     21 C5          5.5880   10.4610   -0.4300 ca        1 GG2     -0.061000
     22 C6          6.8690   10.1740   -0.8960 ca        1 GG2     -0.180500
     23 N1          3.3820   11.5110   -0.7560 na        1 GG2      0.238300
     24 N5          1.3010    8.5500    0.3310 n         1 GG2     -0.377000
     25 C44         0.1900    6.3760    0.0380 ca        1 GG2     -0.126000
     26 N2          0.8940    3.0060    1.4830 n         1 GG2     -0.382000
     27 C18         2.0850    5.1550    1.6810 ca        1 GG2     -0.135000
     28 C25         0.4320    0.1650    1.7800 c3        1 GG2     -0.081400
     29 C23         1.8100    0.7250    2.0340 c3        1 GG2     -0.147400
     30 O1         -0.5480   13.6960   -0.0410 o         1 GG2     -0.622100
     31 N3          1.1570   15.1190   -0.5330 n         1 GG2     -0.661000
     32 C17         0.0480   10.7340    0.5380 c3        1 GG2     -0.028100
     33 H2          6.7220   11.7310   -3.9460 ha        1 GG2      0.152000
     34 H3          4.4280   12.2490   -3.1330 ha        1 GG2      0.159500
     35 H14        -0.7370    4.4540   -0.1370 ha        1 GG2      0.147500
     36 H151        9.6520   10.0930   -0.9790 h1        1 GG2      0.048367
     37 H152       10.3120    9.5350   -2.6030 h1        1 GG2      0.048367
     38 H153        8.9680    8.5870   -1.7780 h1        1 GG2      0.048367
     39 H201       -0.7570    2.2940    0.3820 h1        1 GG2      0.046200
     40 H202       -1.1490    3.2360    1.8950 h1        1 GG2      0.046200
     41 H211       -1.6460    0.7580    2.0080 hc        1 GG2      0.056200
     42 H212       -0.5430    1.3360    3.3220 hc        1 GG2      0.056200
     43 H22         3.0350    7.0800    1.8110 ha        1 GG2      0.146500
     44 H241       -0.7340    8.7300    0.8050 h1        1 GG2      0.053200
     45 H242       -0.2880    9.1550   -0.9150 h1        1 GG2      0.053200
     46 H5          5.2730   10.0760    0.5540 ha        1 GG2      0.159500
     47 H6          7.5460    9.5820   -0.2630 ha        1 GG2      0.152000
     48 H44        -0.5610    6.8310   -0.6280 ha        1 GG2      0.146500
     49 H18         2.8600    4.6850    2.3090 ha        1 GG2      0.147500
     50 H251        0.3060   -0.0620    0.6890 hc        1 GG2      0.051700
     51 H252        0.3120   -0.8000    2.3380 hc        1 GG2      0.051700
     52 H231        2.5840    0.1100    1.5030 hc        1 GG2      0.078700
     53 H232        2.0440    0.6900    3.1330 hc        1 GG2      0.078700
     54 HN31        2.1060   15.2760   -0.7530 hn        1 GG2      0.320000
     55 HN32        0.5390   15.8910   -0.4930 hn        1 GG2      0.320000
     56 H171        0.0150   10.8560    1.6550 hc        1 GG2      0.086700
     57 H172       -0.8700   11.2280    0.1190 hc        1 GG2      0.086700
     58 O3          3.6040    8.5530    0.0720 o         1 GG2     -0.623500
     59 O2          3.1610    2.5910    1.4190 o         1 GG2     -0.629500
@<TRIPOS>BOND
     1    1    2 ar  
     2    1    4 1   
     3    1   22 ar  
     4    2    3 ar  
     5    2   33 1   
     6    3   20 ar  
     7    3   34 1   
     8    4   13 1   
     9    5    8 2   
    10    5   23 1   
    11    6   18 ar  
    12    6   24 1   
    13    6   25 ar  
    14    7   11 1   
    15    7   24 1   
    16    7   58 2   
    17    8    9 1   
    18    8   10 1   
    19    9   30 2   
    20    9   31 1   
    21   10   11 2   
    22   10   32 1   
    23   11   23 1   
    24   12   14 ar  
    25   12   25 ar  
    26   12   35 1   
    27   13   36 1   
    28   13   37 1   
    29   13   38 1   
    30   14   26 1   
    31   14   27 ar  
    32   15   26 1   
    33   15   29 1   
    34   15   59 2   
    35   16   17 1   
    36   16   26 1   
    37   16   39 1   
    38   16   40 1   
    39   17   28 1   
    40   17   41 1   
    41   17   42 1   
    42   18   27 ar  
    43   18   43 1   
    44   19   24 1   
    45   19   32 1   
    46   19   44 1   
    47   19   45 1   
    48   20   21 ar  
    49   20   23 1   
    50   21   22 ar  
    51   21   46 1   
    52   22   47 1   
    53   25   48 1   
    54   27   49 1   
    55   28   29 1   
    56   28   50 1   
    57   28   51 1   
    58   29   52 1   
    59   29   53 1   
    60   31   54 1   
    61   31   55 1   
    62   32   56 1   
    63   32   57 1   
@<TRIPOS>SUBSTRUCTURE
     1 GG2         1 TEMP              0 ****  ****    0 ROOT
