@<TRIPOS>MOLECULE
GG2
   59    60     1     0     0
SMALL
bcc


@<TRIPOS>ATOM
      1 C1         -0.2910    0.3900    0.1330 ca        1 GG2      0.099000
      2 C2          1.0450    0.8310    0.0840 ca        1 GG2     -0.182500
      3 C3          1.8690    0.6590    1.1870 ca        1 GG2     -0.062000
      4 O4         -1.0140    0.6030   -1.0210 os        1 GG2     -0.204000
      5 N6          2.3960   -1.3520    4.0220 n2        1 GG2     -0.040000
      6 C7          2.2850    4.5460    4.7760 c2        1 GG2     -0.033000
      7 C8          2.8090    2.3050    3.8940 c2        1 GG2      0.364000
      8 C10         3.1610   -1.1950    5.1470 c2        1 GG2     -0.179000
      9 C11         3.6030   -2.3160    6.0110 c2        1 GG2      0.390000
     10 C12         3.4530    0.2110    5.3490 c2        1 GG2     -0.078000
     11 C13         2.8290    0.8630    4.2650 c2        1 GG2     -0.096000
     12 C14         3.4270    7.1910    5.5980 c2        1 GG2     -0.454000
     13 C15        -2.3820    0.2090   -0.9910 c3        1 GG2     -0.078000
     14 C16         2.5440    7.6060    4.5010 c2        1 GG2      0.073000
     15 C19         1.3120    9.6190    3.6890 c2        1 GG2      0.349000
     16 C20         4.2100   11.1920    6.6740 c3        1 GG2     -0.283000
     17 C21         2.4030   11.9890    3.6110 c1        1 GG2      0.197000
     18 C22         2.3090    5.2810    3.6400 c2        1 GG2     -0.193000
     19 C24         3.7060    1.9550    7.0700 c1        1 GG2     -0.086000
     20 C4          1.3610    0.0540    2.3550 ca        1 GG2     -0.012000
     21 C5          0.0260   -0.3890    2.3950 ca        1 GG2     -0.062000
     22 C6         -0.7980   -0.2190    1.2870 ca        1 GG2     -0.182500
     23 N1          2.2100   -0.1460    3.4940 na        1 GG2     -0.020000
     24 N5          2.4460    3.1720    4.9060 n         1 GG2     -0.316000
     25 C44         3.5500    7.7090    6.8000 c1        1 GG2      0.190000
     26 N2          2.2810    8.9910    4.4530 n         1 GG2     -0.327000
     27 C18         2.0720    6.7030    3.6020 c2        1 GG2     -0.137000
     28 C25         1.2470   12.0170    2.6910 c3        1 GG2     -0.344000
     29 C23         1.2270   11.1040    3.8870 c3        1 GG2     -0.373000
     30 O1          4.1710   -2.1130    7.1090 o         1 GG2     -0.400000
     31 N3          3.3880   -3.6000    5.5900 n         1 GG2     -0.415000
     32 C17         4.2480    0.7700    6.4520 c3        1 GG2     -0.200000
     33 H2          1.4240    1.3110   -0.8310 ha        1 GG2      0.153000
     34 H3          2.9100    1.0260    1.1520 ha        1 GG2      0.163000
     35 H14         4.0610    6.3090    5.3450 ha        1 GG2      0.213000
     36 H151       -2.4700   -0.8940   -0.8360 h1        1 GG2      0.087000
     37 H152       -2.9350    0.7630   -0.1940 h1        1 GG2      0.087000
     38 H153       -2.7560    0.4960   -2.0060 h1        1 GG2      0.087000
     39 H201        3.9940   10.1160    6.8680 hc        1 GG2      0.071000
     40 H202        2.8770    9.5730    5.0040 hn        1 GG2      0.246000
     41 H211        5.3100   11.3440    6.6300 hc        1 GG2      0.071000
     42 H212        3.7850   11.8060    7.4980 hc        1 GG2      0.071000
     43 H22         1.4590    7.0360    2.7420 ha        1 GG2      0.172000
     44 H241        4.2630    2.3500    7.9320 ha        1 GG2      0.062000
     45 H242        2.4410    2.7950    5.8560 hn        1 GG2      0.296000
     46 H5         -0.3790   -0.8740    3.2970 ha        1 GG2      0.163000
     47 H6         -1.8400   -0.5660    1.3340 ha        1 GG2      0.153000
     48 H44         2.0710    5.0290    5.7540 h4        1 GG2      0.142000
     49 H18         2.4720    4.8110    2.6520 ha        1 GG2      0.168000
     50 H251        3.7550   11.5060    5.7060 hc        1 GG2      0.071000
     51 H252        0.5460   11.3470    4.7310 hc        1 GG2      0.177000
     52 H231        1.3410   11.5750    1.6780 hc        1 GG2      0.165000
     53 H232        0.5610   12.8860    2.6710 hc        1 GG2      0.165000
     54 HN31        3.6770   -4.3480    6.1710 hn        1 GG2      0.235500
     55 HN32        2.9350   -3.8050    4.7370 hn        1 GG2      0.235500
     56 H171        5.3020    0.9800    6.0870 hc        1 GG2      0.170000
     57 H172        4.3740   -0.0350    7.2520 hc        1 GG2      0.170000
     58 O3          3.1040    2.6670    2.7370 o         1 GG2     -0.359000
     59 O2          0.5480    9.0270    2.9080 o         1 GG2     -0.338000
@<TRIPOS>BOND
     1    1    2 1   
     2    1    4 1   
     3    1   22 1   
     4    2    3 1   
     5    2   33 1   
     6    3   20 1   
     7    3   34 1   
     8    4   13 1   
     9    5    8 1   
    10    5   23 1   
    11    6   18 1   
    12    6   24 1   
    13    6   48 1   
    14    7   11 1   
    15    7   24 1   
    16    7   58 1   
    17    8    9 1   
    18    8   10 1   
    19    9   30 1   
    20    9   31 1   
    21   10   11 1   
    22   10   32 1   
    23   11   23 1   
    24   12   14 1   
    25   12   25 1   
    26   12   35 1   
    27   13   36 1   
    28   13   37 1   
    29   13   38 1   
    30   14   26 1   
    31   14   27 1   
    32   15   26 1   
    33   15   29 1   
    34   15   59 1   
    35   16   39 1   
    36   16   41 1   
    37   16   42 1   
    38   16   50 1   
    39   17   28 1   
    40   17   29 1   
    41   18   27 1   
    42   18   49 1   
    43   19   32 1   
    44   19   44 1   
    45   20   21 1   
    46   20   23 1   
    47   21   22 1   
    48   21   46 1   
    49   22   47 1   
    50   24   45 1   
    51   26   40 1   
    52   27   43 1   
    53   28   29 1   
    54   28   52 1   
    55   28   53 1   
    56   29   51 1   
    57   31   54 1   
    58   31   55 1   
    59   32   56 1   
    60   32   57 1   
@<TRIPOS>SUBSTRUCTURE
     1 GG2         1 TEMP              0 ****  ****    0 ROOT
