@<TRIPOS>MOLECULE
GG2
   60    58     1     0     0
SMALL
bcc


@<TRIPOS>ATOM
      1 C1         -0.3700    0.6260    0.3850 ca        1 GG2      0.171000
      2 C2          0.9790    1.0300    0.2650 ca        1 GG2     -0.208000
      3 C3          1.8580    0.8380    1.3170 ca        1 GG2     -0.041500
      4 O4         -1.1710    0.8390   -0.6800 oh        1 GG2     -0.289000
      5 N6          2.5430   -1.1720    4.0920 n2        1 GG2     -0.053000
      6 C7          2.4210    4.7210    4.7900 c2        1 GG2     -0.093000
      7 C8          2.9830    2.4810    3.9320 c2        1 GG2      0.355000
      8 C10         3.4220   -1.0160    5.1620 c2        1 GG2     -0.282000
      9 C11         3.9290   -2.1060    5.9450 c2        1 GG2      0.366000
     10 C12         3.7330    0.3880    5.3350 c2        1 GG2     -0.017000
     11 C13         3.0070    1.0300    4.3110 c2        1 GG2     -0.092000
     12 C14         3.3560    7.4080    5.7290 c2        1 GG2     -0.464000
     13 C15        -3.8280    0.2690   -0.3460 c1        1 GG2     -0.040000
     14 C16         2.5890    7.7870    4.5360 c2        1 GG2      0.108000
     15 C19         0.3410    9.1330    1.2890 c1        1 GG2      0.256000
     16 C20         3.4250   11.3660    7.3050 c3        1 GG2     -0.127000
     17 C21         3.9330   11.6570    6.0040 c1        1 GG2     -0.163000
     18 C22         2.4950    5.4470    3.6510 c2        1 GG2     -0.116000
     19 C24         3.9400    2.0230    7.1330 c1        1 GG2     -0.057000
     20 C4          1.3990    0.2350    2.5080 ca        1 GG2     -0.097000
     21 C5          0.0580   -0.1760    2.6320 ca        1 GG2     -0.041500
     22 C6         -0.8210    0.0240    1.5770 ca        1 GG2     -0.208000
     23 N1          2.3120    0.0210    3.6030 na        1 GG2      0.077000
     24 N5          2.5930    3.3390    4.9280 ns        1 GG2     -0.291000
     25 C44         3.2700    7.9240    6.9370 c1        1 GG2      0.217000
     26 N2          2.1860    9.1240    4.4630 n8        1 GG2     -0.344000
     27 C18         2.2570    6.8640    3.5880 c2        1 GG2     -0.243000
     28 C25         4.3600   11.9010    4.9120 c1        1 GG2     -0.237000
     29 C23         0.4870   10.3330    1.7860 c2        1 GG2     -0.451000
     30 O1          4.6690   -2.1140    6.9190 o         1 GG2     -0.206000
     31 N3          3.4850   -3.4920    5.4910 nz        1 GG2     -0.140000
     32 C17         4.6010    0.9850    6.3620 c3        1 GG2     -0.202000
     33 H2          1.3150    1.5050   -0.6690 ha        1 GG2      0.161500
     34 H3          2.9030    1.1830    1.2240 ha        1 GG2      0.157500
     35 H14         4.0810    6.5820    5.5550 ha        1 GG2      0.203000
     36 H151       -2.1250    0.5670   -0.4690 ho        1 GG2      0.291000
     37 H152       -4.4390    0.5580   -1.2110 ha        1 GG2      0.056500
     38 H153       -4.4070   -0.1530    0.4850 ha        1 GG2      0.056500
     39 H201        1.8270    9.4050    3.5740 hn        1 GG2      0.199000
     40 H202        2.8280    9.7810    4.8570 hn        1 GG2      0.199000
     41 H211        3.2970   10.2570    7.4420 hc        1 GG2      0.102667
     42 H212        2.4300   11.8590    7.4590 hc        1 GG2      0.102667
     43 H22         1.7560    7.1910    2.6570 ha        1 GG2      0.143000
     44 H241        4.4550    2.3570    8.0440 ha        1 GG2      0.079000
     45 H242        2.4970    2.9660    5.8600 hn        1 GG2      0.278000
     46 H5         -0.3080   -0.6470    3.5570 ha        1 GG2      0.157500
     47 H6         -1.8740   -0.2810    1.6660 ha        1 GG2      0.161500
     48 H44         2.1600    5.1970    5.7570 h4        1 GG2      0.152000
     49 H18         2.7080    4.9690    2.6760 ha        1 GG2      0.160000
     50 H251        4.1300   11.7390    8.0930 hc        1 GG2      0.102667
     51 H252       -0.0820   10.6620    2.6640 ha        1 GG2      0.183000
     52 H231        1.1400   11.0740    1.3110 ha        1 GG2      0.183000
     53 H232        4.7470   12.1330    3.9530 ha        1 GG2      0.223000
     54 HN31        3.7800   -3.6480    4.5220 hn        1 GG2      0.264000
     55 HN32        2.4630   -3.5590    5.5340 hn        1 GG2      0.264000
     56 H171        5.4900    1.4850    5.8550 hc        1 GG2      0.156500
     57 H172        5.0350    0.1680    7.0130 hc        1 GG2      0.156500
     58 H33         3.9010   -4.2080    6.0960 hn        1 GG2      0.264000
     59 O3          3.3190    2.8120    2.7790 o         1 GG2     -0.341000
     60 O2          0.2330    8.0270    0.8570 o         1 GG2     -0.165000
@<TRIPOS>BOND
     1    1    2 1   
     2    1    4 1   
     3    1   22 1   
     4    2    3 1   
     5    2   33 1   
     6    3   20 1   
     7    3   34 1   
     8    4   36 1   
     9    5    8 1   
    10    5   23 1   
    11    6   18 1   
    12    6   24 1   
    13    6   48 1   
    14    7   11 1   
    15    7   24 1   
    16    7   59 1   
    17    8    9 1   
    18    8   10 1   
    19    9   30 1   
    20    9   31 1   
    21   10   11 1   
    22   10   32 1   
    23   11   23 1   
    24   12   14 1   
    25   12   25 1   
    26   12   35 1   
    27   13   37 1   
    28   13   38 1   
    29   14   26 1   
    30   14   27 1   
    31   15   29 1   
    32   15   60 1   
    33   16   17 1   
    34   16   41 1   
    35   16   42 1   
    36   16   50 1   
    37   17   28 1   
    38   18   27 1   
    39   18   49 1   
    40   19   32 1   
    41   19   44 1   
    42   20   21 1   
    43   20   23 1   
    44   21   22 1   
    45   21   46 1   
    46   22   47 1   
    47   24   45 1   
    48   26   39 1   
    49   26   40 1   
    50   27   43 1   
    51   28   53 1   
    52   29   51 1   
    53   29   52 1   
    54   31   54 1   
    55   31   55 1   
    56   31   58 1   
    57   32   56 1   
    58   32   57 1   
@<TRIPOS>SUBSTRUCTURE
     1 GG2         1 TEMP              0 ****  ****    0 ROOT
