@<TRIPOS>MOLECULE
GG5
   28    24     1     0     0
SMALL
bcc


@<TRIPOS>ATOM
      1 C1          0.4420    1.4370   -3.4940 c1        1 GG5     -0.128000
      2 N2          1.9030    1.4370   -3.4940 n1        1 GG5     -0.140000
      3 C3          2.6350    1.4370   -2.2300 c1        1 GG5     -0.071000
      4 C4          1.8800    1.4370   -0.9180 c1        1 GG5     -0.173000
      5 C5          0.4100    1.4370   -0.9200 c1        1 GG5      0.040000
      6 C6         -0.3150    1.4370   -2.1840 c1        1 GG5     -0.128000
      7 C7         -0.3480    1.4370    0.3890 c2        1 GG5     -0.141000
      8 C8         -0.8280    2.6650    0.9360 c1        1 GG5     -0.104000
      9 N9         -2.1420    2.4390    1.6250 n2        1 GG5     -0.152000
     10 N11        -2.3300    0.9520    1.3950 n2        1 GG5     -0.074000
     11 C12        -1.2410    0.4320    0.6650 c2        1 GG5     -0.056000
     12 C13        -0.7410   -0.9670    0.9470 c2        1 GG5     -0.030000
     13 C14         0.1790   -1.2200    2.1210 c1        1 GG5     -0.078000
     14 C15         0.6790   -2.6200    2.4030 c1        1 GG5     -0.173000
     15 C16         0.2600   -3.7670    1.5100 c1        1 GG5      0.096000
     16 C17        -0.6600   -3.5140    0.3360 c2        1 GG5     -0.171000
     17 C18        -1.1600   -2.1150    0.0540 c2        1 GG5     -0.086000
     18 F19         0.7020   -5.0060    1.7600 f         1 GG5     -0.105000
     19 H1         -0.0460    1.4370   -4.3400 ha        1 GG5      0.149000
     20 H3          3.6110    1.4370   -2.2310 ha        1 GG5      0.161000
     21 H4          2.3680    1.4370   -0.0730 ha        1 GG5      0.154000
     22 H6         -1.2910    1.4370   -2.1850 ha        1 GG5      0.149000
     23 H8         -0.1980    3.3210    1.2900 ha        1 GG5      0.183000
     24 HN9        -2.8080    3.0540    1.7250 hn        1 GG5      0.277000
     25 H14         0.4500   -0.4800    2.6970 ha        1 GG5      0.150000
     26 H15         1.2730   -2.7830    3.1600 ha        1 GG5      0.150000
     27 H17        -0.9310   -4.2540   -0.2400 ha        1 GG5      0.151000
     28 H18        -1.7540   -1.9520   -0.7030 ha        1 GG5      0.149000
@<TRIPOS>BOND
     1    1    6 1   
     2    1   19 1   
     3    2    3 1   
     4    3   20 1   
     5    4    5 1   
     6    4   21 1   
     7    5    7 1   
     8    6   22 1   
     9    7    8 1   
    10    7   11 1   
    11    8   23 1   
    12    9   10 1   
    13    9   24 1   
    14   10   11 1   
    15   11   12 1   
    16   12   13 1   
    17   12   17 1   
    18   13   25 1   
    19   14   15 1   
    20   14   26 1   
    21   15   16 1   
    22   16   17 1   
    23   16   27 1   
    24   17   28 1   
@<TRIPOS>SUBSTRUCTURE
     1 GG5         1 TEMP              0 ****  ****    0 ROOT
