@<TRIPOS>MOLECULE
GG5
   28    30     1     0     0
SMALL
bcc


@<TRIPOS>ATOM
      1 C1          0.2030    3.1560   -0.8960 ca        1 GG5      0.393700
      2 N2         -0.8630    3.5010   -1.6440 nb        1 GG5     -0.666000
      3 C3         -1.2090    2.6620   -2.6400 ca        1 GG5      0.393700
      4 C4         -0.5220    1.4720   -2.9300 ca        1 GG5     -0.243800
      5 C5          0.5900    1.1210   -2.1440 ca        1 GG5      0.040000
      6 C6          0.9570    1.9880   -1.1030 ca        1 GG5     -0.243800
      7 C7          1.3370   -0.0740   -2.4320 cc        1 GG5     -0.206300
      8 C8          1.5510   -0.6170   -3.7160 cd        1 GG5     -0.128300
      9 N9          2.3510   -1.7420   -3.5400 na        1 GG5     -0.007600
     10 N11         2.6520   -1.9630   -2.2640 nd        1 GG5     -0.506800
     11 C12         2.0560   -0.9690   -1.5320 cc        1 GG5      0.379800
     12 C13         2.1440   -0.8950   -0.0820 ca        1 GG5     -0.137500
     13 C14         1.0090   -0.5790    0.6780 ca        1 GG5     -0.082000
     14 C15         1.0770   -0.5270    2.0650 ca        1 GG5     -0.172000
     15 C16         2.2990   -0.7950    2.7100 ca        1 GG5      0.130900
     16 C17         3.4420   -1.1150    1.9550 ca        1 GG5     -0.172000
     17 C18         3.3560   -1.1660    0.5680 ca        1 GG5     -0.082000
     18 F19         2.3730   -0.7460    4.0610 f         1 GG5     -0.139900
     19 H1          0.4690    3.8590   -0.0860 h4        1 GG5      0.022600
     20 H3         -2.0870    2.9640   -3.2380 h4        1 GG5      0.022600
     21 H4         -0.8520    0.8260   -3.7540 ha        1 GG5      0.147000
     22 H6          1.8170    1.7550   -0.4600 ha        1 GG5      0.147000
     23 H8          1.2100   -0.2820   -4.6950 h4        1 GG5      0.183000
     24 HN9         2.6840   -2.3580   -4.2440 hn        1 GG5      0.326700
     25 H14         0.0550   -0.3670    0.1680 ha        1 GG5      0.149500
     26 H15         0.1870   -0.2820    2.6630 ha        1 GG5      0.150500
     27 H17         4.3920   -1.3260    2.4670 ha        1 GG5      0.150500
     28 H18         4.2500   -1.4240   -0.0210 ha        1 GG5      0.149500
@<TRIPOS>BOND
     1    1    2 ar  
     2    1    6 ar  
     3    1   19 1   
     4    2    3 ar  
     5    3    4 ar  
     6    3   20 1   
     7    4    5 ar  
     8    4   21 1   
     9    5    6 ar  
    10    5    7 1   
    11    6   22 1   
    12    7    8 2   
    13    7   11 1   
    14    8    9 1   
    15    8   23 1   
    16    9   10 1   
    17    9   24 1   
    18   10   11 2   
    19   11   12 1   
    20   12   13 ar  
    21   12   17 ar  
    22   13   14 ar  
    23   13   25 1   
    24   14   15 ar  
    25   14   26 1   
    26   15   16 ar  
    27   15   18 1   
    28   16   17 ar  
    29   16   27 1   
    30   17   28 1   
@<TRIPOS>SUBSTRUCTURE
     1 GG5         1 TEMP              0 ****  ****    0 ROOT
