@<TRIPOS>MOLECULE
GG5
   28    30     1     0     0
SMALL
bcc


@<TRIPOS>ATOM
      1 C1         -0.1610    0.8070   -0.0540 ca        1 GG5      0.393700
      2 N2          0.8400   -0.0490   -0.3390 nb        1 GG5     -0.666000
      3 C3          1.2200   -0.8930    0.6390 ca        1 GG5      0.393700
      4 C4          0.6340   -0.9220    1.9160 ca        1 GG5     -0.243800
      5 C5         -0.4070   -0.0260    2.2040 ca        1 GG5      0.040000
      6 C6         -0.8110    0.8600    1.1900 ca        1 GG5     -0.243800
      7 C7         -1.0290    0.0210    3.5010 cc        1 GG5     -0.206300
      8 C8         -1.5130    1.1830    4.1360 cd        1 GG5     -0.128300
      9 N9         -1.9930    0.7820    5.3790 na        1 GG5     -0.007600
     10 N11        -1.8650   -0.5260    5.5810 nd        1 GG5     -0.506800
     11 C12        -1.2780   -1.0500    4.4590 cc        1 GG5      0.379800
     12 C13        -0.9990   -2.4700    4.3030 ca        1 GG5     -0.137500
     13 C14        -0.4910   -3.2130    5.3780 ca        1 GG5     -0.082000
     14 C15        -0.2400   -4.5740    5.2420 ca        1 GG5     -0.172000
     15 C16        -0.5080   -5.2090    4.0150 ca        1 GG5      0.130900
     16 C17        -1.0240   -4.4710    2.9330 ca        1 GG5     -0.172000
     17 C18        -1.2650   -3.1110    3.0850 ca        1 GG5     -0.082000
     18 F19        -0.2690   -6.5350    3.8750 f         1 GG5     -0.139900
     19 H1         -0.4560    1.4890   -0.8720 h4        1 GG5      0.022600
     20 H3          2.0430   -1.5850    0.3840 h4        1 GG5      0.022600
     21 H4          0.9820   -1.6360    2.6760 ha        1 GG5      0.147000
     22 H6         -1.6230    1.5770    1.3620 ha        1 GG5      0.147000
     23 H8         -1.5330    2.2200    3.8010 h4        1 GG5      0.183000
     24 HN9        -2.4070    1.3560    6.0770 hn        1 GG5      0.326700
     25 H14        -0.2880   -2.7190    6.3420 ha        1 GG5      0.149500
     26 H15         0.1600   -5.1590    6.0820 ha        1 GG5      0.150500
     27 H17        -1.2340   -4.9760    1.9800 ha        1 GG5      0.150500
     28 H18        -1.6660   -2.5280    2.2410 ha        1 GG5      0.149500
@<TRIPOS>BOND
     1    1    2 ar  
     2    1    6 ar  
     3    1   19 1   
     4    2    3 ar  
     5    3    4 ar  
     6    3   20 1   
     7    4    5 ar  
     8    4   21 1   
     9    5    6 ar  
    10    5    7 1   
    11    6   22 1   
    12    7    8 2   
    13    7   11 1   
    14    8    9 1   
    15    8   23 1   
    16    9   10 1   
    17    9   24 1   
    18   10   11 2   
    19   11   12 1   
    20   12   13 ar  
    21   12   17 ar  
    22   13   14 ar  
    23   13   25 1   
    24   14   15 ar  
    25   14   26 1   
    26   15   16 ar  
    27   15   18 1   
    28   16   17 ar  
    29   16   27 1   
    30   17   28 1   
@<TRIPOS>SUBSTRUCTURE
     1 GG5         1 TEMP              0 ****  ****    0 ROOT
