@<TRIPOS>MOLECULE
GG6
   16    15     1     0     0
SMALL
bcc


@<TRIPOS>ATOM
      1 O1          0.0010    0.0770    0.2460 oh        1 GG6     -0.690800
      2 C2          1.4170    0.0800    0.1000 c3        1 GG6      0.200100
      3 C3          1.9940   -0.0260    1.5090 c3        1 GG6     -0.085100
      4 C1          1.9830   -1.0070   -0.8140 c3        1 GG6     -0.059100
      5 O2          1.8970   -2.2570   -0.1590 oh        1 GG6     -0.672800
      6 P           1.3520   -1.2610   -2.5710 p5        1 GG6      1.195700
      7 O3         -0.0310   -0.6520   -2.5030 o         1 GG6     -0.930833
      8 O4          2.3590   -0.5350   -3.4190 o         1 GG6     -0.930833
      9 O5          1.3610   -2.7670   -2.6890 o         1 GG6     -0.930833
     10 HO1        -0.3360   -0.2400   -0.6220 ho        1 GG6      0.473000
     11 H2          1.7070    1.0930   -0.3160 h1        1 GG6     -0.010300
     12 H31         1.5550    0.7510    2.1800 hc        1 GG6      0.004033
     13 H32         1.7660   -1.0350    1.9260 hc        1 GG6      0.004033
     14 H33         3.1000    0.1080    1.4710 hc        1 GG6      0.004033
     15 H1          3.0760   -0.7790   -0.9370 h1        1 GG6      0.004700
     16 HO2         1.4640   -2.8720   -0.7790 ho        1 GG6      0.425000
@<TRIPOS>BOND
     1    1    2 1   
     2    1   10 1   
     3    2    3 1   
     4    2    4 1   
     5    2   11 1   
     6    3   12 1   
     7    3   13 1   
     8    3   14 1   
     9    4    5 1   
    10    4    6 1   
    11    4   15 1   
    12    5   16 1   
    13    6    7 1   
    14    6    8 1   
    15    6    9 1   
@<TRIPOS>SUBSTRUCTURE
     1 GG6         1 TEMP              0 ****  ****    0 ROOT
