@<TRIPOS>MOLECULE
GG6
   16    15     1     0     0
SMALL
bcc


@<TRIPOS>ATOM
      1 O1         -0.5930    0.4150    1.5780 oh        1 GG6     -0.691800
      2 C2          0.7190    0.0120    1.9530 c3        1 GG6      0.183100
      3 C3          1.6220    0.2480    0.7450 c3        1 GG6     -0.099100
      4 C1          1.2170    0.7230    3.2070 c3        1 GG6     -0.054100
      5 O2          1.3910    2.0890    3.0180 oh        1 GG6     -0.546800
      6 P           0.1360    0.9000    4.9560 p5        1 GG6      1.206700
      7 O3         -1.2360    1.1050    4.3720 o         1 GG6     -0.920167
      8 O4          0.4050   -0.4520    5.5490 o         1 GG6     -0.920167
      9 O5          0.7480    2.0390    5.7080 o         1 GG6     -0.920167
     10 HO1        -0.9920    0.7790    2.4040 ho        1 GG6      0.483000
     11 H2          0.6860   -1.1000    2.1520 h1        1 GG6      0.000700
     12 H31         2.6780    0.0120    1.0140 hc        1 GG6      0.000033
     13 H32         1.3120   -0.3950   -0.1130 hc        1 GG6      0.000033
     14 H33         1.5570    1.3140    0.4220 hc        1 GG6      0.000033
     15 H1          2.1490    0.2260    3.5600 h1        1 GG6     -0.009300
     16 HO2         2.0750    2.2230    2.3410 ho        1 GG6      0.287000
@<TRIPOS>BOND
     1    1    2 1   
     2    1   10 1   
     3    2    3 1   
     4    2    4 1   
     5    2   11 1   
     6    3   12 1   
     7    3   13 1   
     8    3   14 1   
     9    4    5 1   
    10    4    6 1   
    11    4   15 1   
    12    5   16 1   
    13    6    7 1   
    14    6    8 1   
    15    6    9 1   
@<TRIPOS>SUBSTRUCTURE
     1 GG6         1 TEMP              0 ****  ****    0 ROOT
