@<TRIPOS>MOLECULE
GG6
   16    15     1     0     0
SMALL
bcc


@<TRIPOS>ATOM
      1 O1          0.0070    0.0770    0.2590 oh        1 GG6     -0.690800
      2 C2          1.4210    0.0780    0.1040 c3        1 GG6      0.200100
      3 C3          2.0070   -0.0350    1.5090 c3        1 GG6     -0.085100
      4 C1          1.9810   -1.0060   -0.8180 c3        1 GG6     -0.059100
      5 O2          1.8990   -2.2580   -0.1670 oh        1 GG6     -0.672800
      6 P           1.3370   -1.2530   -2.5720 p5        1 GG6      1.195700
      7 O3         -0.0440   -0.6420   -2.4930 o         1 GG6     -0.930833
      8 O4          2.3390   -0.5250   -3.4240 o         1 GG6     -0.930833
      9 O5          1.3440   -2.7580   -2.6950 o         1 GG6     -0.930833
     10 HO1        -0.3370   -0.2370   -0.6080 ho        1 GG6      0.473000
     11 H2          1.7100    1.0920   -0.3090 h1        1 GG6     -0.010300
     12 H31         1.5740    0.7400    2.1860 hc        1 GG6      0.004033
     13 H32         1.7800   -1.0450    1.9230 hc        1 GG6      0.004033
     14 H33         3.1140    0.0980    1.4640 hc        1 GG6      0.004033
     15 H1          3.0720   -0.7780   -0.9480 h1        1 GG6      0.004700
     16 HO2         1.4600   -2.8710   -0.7870 ho        1 GG6      0.425000
@<TRIPOS>BOND
     1    1    2 1   
     2    1   10 1   
     3    2    3 1   
     4    2    4 1   
     5    2   11 1   
     6    3   12 1   
     7    3   13 1   
     8    3   14 1   
     9    4    5 1   
    10    4    6 1   
    11    4   15 1   
    12    5   16 1   
    13    6    7 1   
    14    6    8 1   
    15    6    9 1   
@<TRIPOS>SUBSTRUCTURE
     1 GG6         1 TEMP              0 ****  ****    0 ROOT
