@<TRIPOS>MOLECULE
GG7
   13    11     1     0     0
SMALL
bcc


@<TRIPOS>ATOM
      1 O1A        -2.0540   -0.3230   -1.3990 o         1 GG7     -0.954500
      2 P          -0.5440   -0.3230   -1.3990 p4        1 GG7      1.576000
      3 O1B        -0.0410    0.9100   -2.1100 os        1 GG7     -1.265000
      4 CA          0.0610   -0.3230    0.3120 c3        1 GG7     -0.051700
      5 CB         -0.4650    0.8970    1.0320 c3        1 GG7     -0.042100
      6 N           1.4830   -0.2970    0.3120 n3        1 GG7     -0.881800
      7 O1C        -0.0410   -1.5560   -2.1100 o         1 GG7     -1.003300
      8 HA         -0.2500   -1.1280    0.7670 h1        1 GG7      0.000700
      9 HB1        -1.4360    0.9350    0.9430 hc        1 GG7      0.001700
     10 HB2        -0.0720    1.7010    0.6410 hc        1 GG7      0.001700
     11 HB3        -0.2270    0.8450    1.9770 hc        1 GG7      0.001700
     12 HN1         1.8000   -1.0250   -0.1370 hn        1 GG7      0.307800
     13 HN2         1.7870   -0.3140    1.1710 hn        1 GG7      0.307800
@<TRIPOS>BOND
     1    1    2 1   
     2    2    4 1   
     3    2    7 2   
     4    4    5 1   
     5    4    6 1   
     6    4    8 1   
     7    5    9 1   
     8    5   10 1   
     9    5   11 1   
    10    6   12 1   
    11    6   13 1   
@<TRIPOS>SUBSTRUCTURE
     1 GG7         1 TEMP              0 ****  ****    0 ROOT
