@<TRIPOS>MOLECULE
GG7
   13    12     1     0     0
SMALL
bcc


@<TRIPOS>ATOM
      1 O1A        -3.1730   -0.7350    2.5960 o         1 GG7     -0.950833
      2 P          -3.0680   -1.6330    1.3790 p5        1 GG7      1.206700
      3 O1B        -4.3730   -1.9130    0.6780 o         1 GG7     -0.950833
      4 CA         -2.1060   -0.5610    0.2170 c3        1 GG7     -0.049700
      5 CB         -0.7070   -0.7010    0.7420 c3        1 GG7     -0.077100
      6 N          -2.6850    0.7540    0.2180 n3        1 GG7     -0.869800
      7 O1C        -2.1910   -2.8530    1.5620 o         1 GG7     -0.950833
      8 HA         -2.1810   -0.9750   -0.8170 h1        1 GG7      0.024700
      9 HB1        -0.6890   -0.3970    1.8190 hc        1 GG7      0.004033
     10 HB2         0.0510   -0.0890    0.1840 hc        1 GG7      0.004033
     11 HB3        -0.4270   -1.7820    0.6900 hc        1 GG7      0.004033
     12 HN1        -3.2280    0.8460    1.0670 hn        1 GG7      0.302300
     13 HN2        -1.9600    1.4520    0.2680 hn        1 GG7      0.302300
@<TRIPOS>BOND
     1    1    2 1   
     2    2    3 1   
     3    2    4 1   
     4    2    7 1   
     5    4    5 1   
     6    4    6 1   
     7    4    8 1   
     8    5    9 1   
     9    5   10 1   
    10    5   11 1   
    11    6   12 1   
    12    6   13 1   
@<TRIPOS>SUBSTRUCTURE
     1 GG7         1 TEMP              0 ****  ****    0 ROOT
