@<TRIPOS>MOLECULE
GG9
   36    33     1     0     0
SMALL
bcc


@<TRIPOS>ATOM
      1 C1         -0.5620    0.0210   -2.5660 c1        1 GG9     -0.159000
      2 C2          1.1630    0.1180   -2.5930 c1        1 GG9     -0.173000
      3 C3          1.8010    0.2750   -1.2780 c2        1 GG9      0.105000
      4 C4          0.8660    1.1540   -0.2170 c3        1 GG9      0.001000
      5 C5         -0.3480    0.7790   -0.0980 c3        1 GG9      0.052000
      6 C6         -1.2350    0.7550   -1.5030 c3        1 GG9     -0.107000
      7 C7         -1.3340   -0.3780   -3.8390 c1        1 GG9      0.368000
      8 O1          3.1110    0.8340   -1.4220 os        1 GG9     -0.766000
      9 O2          0.8670    2.5990   -0.6780 oh        1 GG9     -0.381000
     10 O3         -0.3520   -0.6230    0.4840 os        1 GG9     -0.331000
     11 O4         -1.5970    0.4920   -4.7160 o         1 GG9     -0.647000
     12 O5         -1.6340   -1.5960   -4.0430 o         1 GG9     -0.647000
     13 P1          4.3460   -0.1590   -1.5810 p5        1 GG9      1.575500
     14 O6          5.5370    0.6010   -2.1360 o         1 GG9     -0.956500
     15 O7          4.7010   -0.7390   -0.2360 o         1 GG9     -0.956500
     16 O8          3.9760   -1.2740   -2.5290 o         1 GG9     -0.956500
     17 C8         -1.1100   -0.7500    1.6840 c3        1 GG9      0.307000
     18 C9         -0.4900   -1.7960    2.5570 c3        1 GG9      0.143000
     19 C10        -2.5280   -1.1510    1.3460 c2        1 GG9      0.346000
     20 O9         -2.7610   -2.2880    0.8740 o         1 GG9     -0.623500
     21 O10        -3.4700   -0.3230    1.4940 o         1 GG9     -0.623500
     22 P2         -1.9580    0.5980    3.7310 p3        1 GG9      2.593000
     23 O11        -2.6390   -0.7230    4.0180 o         1 GG9     -1.268000
     24 O12        -3.0000    1.6800    3.5930 o         1 GG9     -1.268000
     25 O13        -1.0210    0.9400    4.8710 os        1 GG9     -1.270000
     26 O14        -1.1210    0.4840    2.3660 os        1 GG9     -0.763000
     27 F1          0.2150   -1.2040    3.5310 f         1 GG9     -0.217000
     28 F2         -1.4560   -2.5550    3.1010 f         1 GG9     -0.217000
     29 H2          1.6370   -0.3640   -3.2860 ha        1 GG9      0.111000
     30 H3          2.0130   -0.5950   -0.8920 h4        1 GG9      0.086000
     31 H4          1.2840    1.1130    0.6600 h1        1 GG9      0.072000
     32 H5         -0.7890    1.3730    0.5310 h1        1 GG9      0.098000
     33 H61        -1.5250    1.6540   -1.7510 hc        1 GG9      0.082000
     34 H62        -2.0990    0.3280   -1.3430 hc        1 GG9      0.082000
     35 HO2         1.4090    3.0780   -0.1550 ho        1 GG9      0.213000
     36 H9          0.1010   -2.3570    2.0220 h2        1 GG9      0.098000
@<TRIPOS>BOND
     1    1    2 1   
     2    1    6 1   
     3    2   29 1   
     4    3    4 1   
     5    3    8 1   
     6    3   30 1   
     7    4    5 1   
     8    4    9 1   
     9    4   31 1   
    10    5    6 1   
    11    5   10 1   
    12    5   32 1   
    13    6   33 1   
    14    6   34 1   
    15    7   11 1   
    16    7   12 1   
    17    8   13 1   
    18    9   35 1   
    19   10   17 1   
    20   13   14 1   
    21   13   15 1   
    22   13   16 1   
    23   17   18 1   
    24   17   19 1   
    25   17   26 1   
    26   18   27 1   
    27   18   28 1   
    28   18   36 1   
    29   19   20 1   
    30   19   21 1   
    31   22   23 1   
    32   22   24 1   
    33   22   26 1   
@<TRIPOS>SUBSTRUCTURE
     1 GG9         1 TEMP              0 ****  ****    0 ROOT
