@<TRIPOS>MOLECULE
GG9
   36    36     1     0     0
SMALL
bcc


@<TRIPOS>ATOM
      1 C1          1.8390   -2.2470    0.5790 ce        1 GG9     -0.171400
      2 C2          2.8690   -1.3870    0.5830 c2        1 GG9     -0.182200
      3 C3          2.6990    0.1020    0.6760 c3        1 GG9      0.220300
      4 C4          1.3950    0.5690   -0.0650 c3        1 GG9      0.139100
      5 C5          0.2210   -0.4490   -0.2220 c3        1 GG9      0.158100
      6 C6          0.4370   -1.7430    0.5770 c3        1 GG9     -0.054200
      7 C7          2.0730   -3.7380    0.6490 c         1 GG9      0.918800
      8 O1          3.8010    0.7820    0.1610 os        1 GG9     -0.607200
      9 O2          1.6980    1.0040   -1.3900 oh        1 GG9     -0.640800
     10 O3         -0.9580    0.2340    0.2370 os        1 GG9     -0.450600
     11 O4          2.5330   -4.3840   -0.3510 o         1 GG9     -0.914800
     12 O5          1.8480   -4.3750    1.7340 o         1 GG9     -0.914800
     13 P1          5.0090    1.4960    1.1490 p5        1 GG9      1.343900
     14 O6          5.2810    2.8100    0.4440 o         1 GG9     -0.958167
     15 O7          4.4380    1.6430    2.5380 o         1 GG9     -0.958167
     16 O8          6.1990    0.5620    1.0720 o         1 GG9     -0.958167
     17 C8         -2.2790   -0.1590   -0.2060 c3        1 GG9      0.387600
     18 C9         -2.8730   -1.1430    0.9120 c3        1 GG9      0.281900
     19 C10        -2.4020   -0.8700   -1.5930 c         1 GG9      0.900600
     20 O9         -1.7450   -0.4780   -2.6020 o         1 GG9     -0.882300
     21 O10        -3.2020   -1.8570   -1.6980 o         1 GG9     -0.882300
     22 O11        -5.3500    0.5760    0.8090 o         1 GG9     -0.953167
     23 O12        -5.1630    1.9910   -1.2750 o         1 GG9     -0.953167
     24 O13        -4.3970    2.8990    0.9220 o         1 GG9     -0.953167
     25 O14        -2.9530    1.0310   -0.1500 os        1 GG9     -0.612200
     26 F1         -2.5750   -2.4820    0.7780 f         1 GG9     -0.298300
     27 F2         -2.3890   -0.9110    2.1870 f         1 GG9     -0.298300
     28 H2          3.9100   -1.7420    0.5510 ha        1 GG9      0.108000
     29 H3          2.5920    0.3740    1.7710 h1        1 GG9      0.044700
     30 H4          1.0010    1.4660    0.4940 h1        1 GG9      0.032700
     31 H5          0.1100   -0.6930   -1.3160 h1        1 GG9      0.083700
     32 H61        -0.2510   -2.5260    0.1590 hc        1 GG9      0.046200
     33 H62         0.1080   -1.5630    1.6380 hc        1 GG9      0.046200
     34 HO2         2.6290    1.2620   -1.4020 ho        1 GG9      0.407000
     35 H9         -3.9990   -0.9660    0.8870 h2        1 GG9      0.122700
     36 P2         -4.5910    1.6620    0.0810 p5        1 GG9      1.401900
@<TRIPOS>BOND
     1    1    2 2   
     2    1    6 1   
     3    1    7 1   
     4    2    3 1   
     5    2   28 1   
     6    3    4 1   
     7    3    8 1   
     8    3   29 1   
     9    4    5 1   
    10    4    9 1   
    11    4   30 1   
    12    5    6 1   
    13    5   10 1   
    14    5   31 1   
    15    6   32 1   
    16    6   33 1   
    17    7   11 1   
    18    7   12 1   
    19    8   13 1   
    20    9   34 1   
    21   10   17 1   
    22   13   14 1   
    23   13   15 1   
    24   13   16 1   
    25   17   18 1   
    26   17   19 1   
    27   17   25 1   
    28   18   26 1   
    29   18   27 1   
    30   18   35 1   
    31   19   20 1   
    32   19   21 1   
    33   22   36 1   
    34   23   36 1   
    35   24   36 1   
    36   25   36 1   
@<TRIPOS>SUBSTRUCTURE
     1 GG9         1 TEMP              0 ****  ****    0 ROOT
