@<TRIPOS>MOLECULE
GGA
   72    71     1     0     0
SMALL
bcc


@<TRIPOS>ATOM
      1 C1          0.0000    0.0000    0.0000 c         1 GGA      0.927600
      2 O2         -0.7050    0.5870    0.8090 o         1 GGA     -0.795800
      3 O4         -0.5070   -0.7810   -0.9890 o         1 GGA     -0.795800
      4 C6          1.5160    0.0000    0.0000 c3        1 GGA     -0.233500
      5 N8          1.9260    0.0000    1.3810 nz        1 GGA      0.119400
      6 C10         2.0460    1.2140   -0.7670 c3        1 GGA      0.024600
      7 C12         1.6190    1.2400   -2.2350 c3        1 GGA     -0.111400
      8 C14         2.1740    2.4240   -3.0100 c         1 GGA      0.381100
      9 O16         2.8790    3.2910   -2.5020 o         1 GGA     -0.460100
     10 N18         1.7620    2.4100   -4.3380 ny        1 GGA      0.074200
     11 C20         2.1280    3.4360   -5.2790 c3        1 GGA     -0.079500
     12 C22         1.1070    4.5630   -5.2950 c3        1 GGA      0.001900
     13 C24         2.2480    2.7910   -6.6530 c         1 GGA     -0.024900
     14 O26         1.5360    1.8590   -7.0200 o         1 GGA     -0.555100
     15 N30         3.2160    3.4060   -7.4340 ny        1 GGA      0.344200
     16 C29         3.5020    3.0120   -8.7960 c3        1 GGA     -0.125400
     17 P34         2.4120    3.9340   -9.8560 p5        1 GGA      0.723100
     18 C33         2.7690    5.6610   -9.6240 c3        1 GGA     -0.068600
     19 C35         1.9070    6.5840  -10.4740 c3        1 GGA      0.032600
     20 C37         2.2490    8.0600  -10.2530 c3        1 GGA     -0.035400
     21 C39         1.3960    8.9610  -11.1460 c3        1 GGA     -0.037200
     22 N44         1.7410   10.3610  -10.9290 ny        1 GGA      0.005000
     23 C43         0.9430   11.2310  -11.7810 c3        1 GGA     -0.033200
     24 C45         1.2960   12.6990  -11.5750 c3        1 GGA     -0.017400
     25 C47         0.4800   13.6220  -12.4850 c3        1 GGA     -0.016400
     26 C49         0.8140   15.0960  -12.2740 c3        1 GGA     -0.062200
     27 N54         0.0630   15.9590  -13.1430 nz        1 GGA      0.095400
     28 O56         0.9610    3.5820   -9.7050 o         1 GGA     -0.553300
     29 O58         3.0080    3.6200  -11.3260 os        1 GGA     -0.464800
     30 P60         3.0540    2.2700  -12.2100 p5        1 GGA      0.836900
     31 O62         1.4940    1.9890  -12.5290 o         1 GGA     -0.436500
     32 O64         3.7910    1.1270  -11.5780 o         1 GGA     -0.436500
     33 O66         3.6430    2.7720  -13.6290 o         1 GGA     -0.436500
     34 H6          1.8720   -0.9050   -0.4770 hx        1 GGA      0.102700
     35 HN81        2.9200   -0.1100    1.4340 hn        1 GGA      0.212800
     36 HN82        1.4810   -0.7570    1.8610 hn        1 GGA      0.212800
     37 H101        3.1290    1.2070   -0.7210 hc        1 GGA      0.022700
     38 H102        1.6840    2.1140   -0.2850 hc        1 GGA      0.022700
     39 H121        0.5370    1.2740   -2.2800 hc        1 GGA      0.083700
     40 H122        1.9580    0.3270   -2.7100 hc        1 GGA      0.083700
     41 HN18        0.7620    2.3920   -4.3190 hn        1 GGA      0.285300
     42 H20         3.0920    3.8420   -4.9980 hx        1 GGA      0.050700
     43 H221        1.5890    5.4830   -5.6040 hc        1 GGA      0.030033
     44 H222        0.6920    4.6880   -4.3030 hc        1 GGA      0.030033
     45 H223        0.3130    4.3210   -5.9910 hc        1 GGA      0.030033
     46 HN30        2.9680    4.3750   -7.4730 hn        1 GGA      0.154300
     47 H291        3.3230    1.9500   -8.9180 hx        1 GGA      0.127700
     48 H292        4.5330    3.2420   -9.0380 hx        1 GGA      0.127700
     49 H331        2.6150    5.9080   -8.5800 hc        1 GGA      0.024700
     50 H332        3.8090    5.8350   -9.8710 hc        1 GGA      0.024700
     51 H351        2.0570    6.3410  -11.5190 hc        1 GGA      0.044200
     52 H352        0.8660    6.4240  -10.2210 hc        1 GGA      0.044200
     53 H371        3.2950    8.2200  -10.4830 hc        1 GGA      0.021700
     54 H372        2.0700    8.3150   -9.2160 hc        1 GGA      0.021700
     55 H391        0.3490    8.8090  -10.9120 hx        1 GGA      0.084200
     56 H392        1.5720    8.7050  -12.1840 hx        1 GGA      0.084200
     57 HN44        1.5730   10.5960   -9.9710 hn        1 GGA      0.233300
     58 H431        1.1190   10.9680  -12.8170 hx        1 GGA      0.080700
     59 H432       -0.1060   11.0840  -11.5520 hx        1 GGA      0.080700
     60 H451        2.3490   12.8400  -11.7850 hc        1 GGA      0.036700
     61 H452        1.1050   12.9640  -10.5420 hc        1 GGA      0.036700
     62 H471       -0.5730   13.4700  -12.2840 hc        1 GGA      0.040700
     63 H472        0.6810   13.3630  -13.5170 hc        1 GGA      0.040700
     64 H491        1.8700   15.2460  -12.4590 hx        1 GGA      0.085700
     65 H492        0.5970   15.3600  -11.2460 hx        1 GGA      0.085700
     66 H541        0.2700   15.7340  -14.0960 hn        1 GGA      0.226467
     67 H542       -0.9150   15.8330  -12.9740 hn        1 GGA      0.226467
     68 H83         1.6640    0.8670    1.8070 hn        1 GGA      0.212800
     69 H182        2.0950    1.5490   -4.7240 hn        1 GGA      0.285300
     70 H302        4.0770    3.3170   -6.9310 hn        1 GGA      0.154300
     71 H442        2.7100   10.4970  -11.1350 hn        1 GGA      0.233300
     72 H543        0.3150   16.9110  -12.9650 hn        1 GGA      0.226467
@<TRIPOS>BOND
     1    1    2 1   
     2    1    3 1   
     3    1    4 1   
     4    4    5 1   
     5    4    6 1   
     6    4   34 1   
     7    5   35 1   
     8    5   36 1   
     9    5   68 1   
    10    6    7 1   
    11    6   37 1   
    12    6   38 1   
    13    7    8 1   
    14    7   39 1   
    15    7   40 1   
    16    8    9 2   
    17    8   10 1   
    18   10   11 1   
    19   10   41 1   
    20   10   69 1   
    21   11   12 1   
    22   11   13 1   
    23   11   42 1   
    24   12   43 1   
    25   12   44 1   
    26   12   45 1   
    27   13   14 2   
    28   13   15 1   
    29   15   16 1   
    30   15   46 1   
    31   15   70 1   
    32   16   17 1   
    33   16   47 1   
    34   16   48 1   
    35   17   18 1   
    36   17   28 2   
    37   17   29 1   
    38   18   19 1   
    39   18   49 1   
    40   18   50 1   
    41   19   20 1   
    42   19   51 1   
    43   19   52 1   
    44   20   21 1   
    45   20   53 1   
    46   20   54 1   
    47   21   22 1   
    48   21   55 1   
    49   21   56 1   
    50   22   23 1   
    51   22   57 1   
    52   22   71 1   
    53   23   24 1   
    54   23   58 1   
    55   23   59 1   
    56   24   25 1   
    57   24   60 1   
    58   24   61 1   
    59   25   26 1   
    60   25   62 1   
    61   25   63 1   
    62   26   27 1   
    63   26   64 1   
    64   26   65 1   
    65   27   66 1   
    66   27   67 1   
    67   27   72 1   
    68   29   30 1   
    69   30   31 1   
    70   30   32 1   
    71   30   33 1   
@<TRIPOS>SUBSTRUCTURE
     1 GGA         1 TEMP              0 ****  ****    0 ROOT
