@<TRIPOS>MOLECULE
GGA
   67    65     1     0     0
SMALL
bcc


@<TRIPOS>ATOM
      1 C1          2.0870   -3.8680    9.1810 c1        1 GGA      0.776000
      2 O2          2.9280   -2.9410    9.3590 o         1 GGA     -0.821000
      3 O4          1.4380   -4.3240   10.1580 o         1 GGA     -0.821000
      4 C6          1.8360   -4.3980    7.8000 c2        1 GGA      0.136200
      5 N8          3.0550   -4.9070    7.2560 nh        1 GGA     -0.484100
      6 C10         1.3100   -3.2770    6.9140 c3        1 GGA     -0.136700
      7 C12         0.1160   -3.8070    6.0580 c3        1 GGA     -0.142400
      8 C14        -0.2700   -2.7570    5.0140 c         1 GGA      0.655100
      9 O16         0.2640   -1.6570    5.0270 o         1 GGA     -0.651100
     10 N18        -1.3100   -3.0510    4.0330 n         1 GGA     -0.556900
     11 C20        -1.6030   -2.1080    2.9990 c3        1 GGA      0.024700
     12 C22        -2.8350   -1.3150    3.3750 c3        1 GGA     -0.105100
     13 C24        -1.8520   -2.8440    1.7000 c         1 GGA      0.613100
     14 O26        -2.3270   -3.9720    1.7180 o         1 GGA     -0.693100
     15 N30        -1.6100   -2.1900    0.4520 n         1 GGA     -0.468900
     16 C29        -1.0520   -2.9310   -0.6550 c3        1 GGA     -0.151200
     17 P34        -1.4760   -2.0750   -2.2520 p5        1 GGA      1.583100
     18 C33        -0.0550   -1.0270   -2.7870 c3        1 GGA     -0.332600
     19 C35        -0.5530    0.0650   -3.7270 c3        1 GGA     -0.067400
     20 C37         0.6510    0.9820   -4.1470 c3        1 GGA     -0.102400
     21 C39         0.1180    2.3450   -4.6190 c3        1 GGA      0.143800
     22 N44         1.1670    3.3510   -4.4890 n3        1 GGA     -0.822200
     23 C43         0.6560    4.6460   -4.9330 c3        1 GGA      0.151800
     24 C45         1.7730    5.7160   -4.8070 c3        1 GGA     -0.076400
     25 C47         1.1330    7.1020   -4.5720 c3        1 GGA     -0.122400
     26 C49         2.2300    8.1610   -4.4910 c3        1 GGA      0.147800
     27 N54         1.6610    9.4130   -4.0350 n3        1 GGA     -0.910800
     28 O56        -2.6710   -1.2200   -2.0530 o         1 GGA     -0.960300
     29 O58        -1.7810   -3.1630   -3.3690 os        1 GGA     -0.766800
     30 P60        -3.2330   -3.7270   -3.6780 p5        1 GGA      1.393900
     31 O62        -3.4410   -3.7880   -5.1790 o         1 GGA     -0.888833
     32 O64        -4.2630   -2.8220   -3.0660 o         1 GGA     -0.888833
     33 O66        -3.3700   -5.1130   -3.0940 o         1 GGA     -0.888833
     34 H6          1.1780   -5.1120    7.8420 h4        1 GGA     -0.051200
     35 HN81        3.7380   -4.8010    7.8750 hn        1 GGA      0.174700
     36 HN82        2.9550   -5.7930    7.0630 hn        1 GGA      0.174700
     37 H101        1.0010   -2.5250    7.4820 hc        1 GGA      0.059700
     38 H102        2.0270   -2.9640    6.3200 hc        1 GGA      0.059700
     39 H121        0.3790   -4.6310    5.6090 hc        1 GGA      0.055700
     40 H122       -0.6490   -3.9840    6.6410 hc        1 GGA      0.055700
     41 HN18       -1.7380   -3.8560    4.0510 hn        1 GGA      0.325500
     42 H20        -0.8460   -1.5000    2.8890 h1        1 GGA      0.076700
     43 H221       -2.9290   -0.5520    2.7700 hc        1 GGA      0.042033
     44 H222       -2.7460   -0.9900    4.3030 hc        1 GGA      0.042033
     45 H223       -3.6300   -1.8900    3.3030 hc        1 GGA      0.042033
     46 HN30       -1.7530   -1.3070    0.3740 hn        1 GGA      0.339500
     47 H291       -0.0720   -2.9790   -0.5580 h1        1 GGA      0.040700
     48 H292       -1.4260   -3.8410   -0.6630 h1        1 GGA      0.040700
     49 H331        0.6010   -1.5810   -3.2510 hc        1 GGA      0.057200
     50 H332        0.3570   -0.6210   -2.0110 hc        1 GGA      0.057200
     51 H351       -1.2280    0.6030   -3.2710 hc        1 GGA      0.071700
     52 H352       -0.9460   -0.3450   -4.5250 hc        1 GGA      0.071700
     53 H371        1.1460    0.5550   -4.8760 hc        1 GGA      0.024200
     54 H372        1.2480    1.1120   -3.3780 hc        1 GGA      0.024200
     55 H391       -0.6500    2.6020   -4.0710 h1        1 GGA      0.051700
     56 H392       -0.1570    2.2810   -5.5530 h1        1 GGA      0.051700
     57 HN44        1.4270    3.4090   -3.6120 hn        1 GGA      0.337800
     58 H431        0.3730    4.5810   -5.8620 h1        1 GGA      0.037700
     59 H432       -0.1090    4.9040   -4.3750 h1        1 GGA      0.037700
     60 H451        2.2990    5.7370   -5.6300 hc        1 GGA      0.034700
     61 H452        2.3610    5.4900   -4.0450 hc        1 GGA      0.034700
     62 H471        0.5350    7.3120   -5.3060 hc        1 GGA      0.048200
     63 H472        0.6290    7.0900   -3.7340 hc        1 GGA      0.048200
     64 H491        2.6270    8.2880   -5.3770 h1        1 GGA      0.041700
     65 H492        2.9220    7.8670   -3.8610 h1        1 GGA      0.041700
     66 H541        0.8900    9.5920   -4.5100 hn        1 GGA      0.343300
     67 H542        1.4620    9.3510   -3.1410 hn        1 GGA      0.343300
@<TRIPOS>BOND
     1    1    2 2   
     2    1    3 2   
     3    4    5 2   
     4    4    6 1   
     5    4   34 1   
     6    5   35 1   
     7    5   36 1   
     8    6    7 1   
     9    6   37 1   
    10    6   38 1   
    11    7    8 1   
    12    7   39 1   
    13    7   40 1   
    14    8    9 2   
    15    8   10 1   
    16   10   11 1   
    17   10   41 1   
    18   11   12 1   
    19   11   13 1   
    20   11   42 1   
    21   12   43 1   
    22   12   44 1   
    23   12   45 1   
    24   13   14 2   
    25   13   15 1   
    26   15   16 1   
    27   15   46 1   
    28   16   17 1   
    29   16   47 1   
    30   16   48 1   
    31   17   18 1   
    32   17   28 2   
    33   17   29 1   
    34   18   19 1   
    35   18   49 1   
    36   18   50 1   
    37   19   20 1   
    38   19   51 1   
    39   19   52 1   
    40   20   21 1   
    41   20   53 1   
    42   20   54 1   
    43   21   22 1   
    44   21   55 1   
    45   21   56 1   
    46   22   23 1   
    47   22   57 1   
    48   23   24 1   
    49   23   58 1   
    50   23   59 1   
    51   24   25 1   
    52   24   60 1   
    53   24   61 1   
    54   25   26 1   
    55   25   62 1   
    56   25   63 1   
    57   26   27 1   
    58   26   64 1   
    59   26   65 1   
    60   27   66 1   
    61   27   67 1   
    62   29   30 1   
    63   30   31 1   
    64   30   32 1   
    65   30   33 1   
@<TRIPOS>SUBSTRUCTURE
     1 GGA         1 TEMP              0 ****  ****    0 ROOT
