@<TRIPOS>MOLECULE
GGA
   67    66     1     0     0
SMALL
bcc


@<TRIPOS>ATOM
      1 C1         -5.5220    4.0030   -1.9620 c         1 GGA      0.888600
      2 O2         -6.3270    4.9490   -2.2100 o         1 GGA     -0.851300
      3 O4         -5.3730    3.4910   -0.8180 o         1 GGA     -0.851300
      4 C6         -4.6310    3.4680   -3.1290 c3        1 GGA      0.020500
      5 N8         -4.6940    4.2880   -4.3370 n3        1 GGA     -0.890800
      6 C10        -4.9640    1.9980   -3.4140 c3        1 GGA     -0.044400
      7 C12        -4.3760    1.0960   -2.3500 c3        1 GGA     -0.154400
      8 C14        -4.6830   -0.3630   -2.6290 c         1 GGA      0.662100
      9 O16        -5.5680   -0.7250   -3.4370 o         1 GGA     -0.650100
     10 N18        -3.9350   -1.3020   -1.9460 n         1 GGA     -0.571900
     11 C20        -4.1470   -2.7220   -2.0890 c3        1 GGA      0.037700
     12 C22        -5.3160   -3.2560   -1.2570 c3        1 GGA     -0.114100
     13 C24        -2.8830   -3.5300   -1.6760 c         1 GGA      0.634100
     14 O26        -2.0220   -3.0260   -0.9190 o         1 GGA     -0.648100
     15 N30        -2.7690   -4.7830   -2.2140 n         1 GGA     -0.512900
     16 C29        -1.7980   -5.7430   -1.7900 c3        1 GGA     -0.198200
     17 P34        -1.8980   -7.1660   -2.7560 p5        1 GGA      1.554100
     18 C33        -0.8060   -6.8140   -3.9780 c3        1 GGA     -0.385600
     19 C35        -0.9690   -7.8940   -5.0150 c3        1 GGA     -0.090400
     20 C37        -0.0700   -7.7260   -6.2190 c3        1 GGA     -0.093400
     21 C39         1.3370   -8.2910   -6.0020 c3        1 GGA      0.160800
     22 N44         1.5550   -9.6910   -6.2990 n3        1 GGA     -0.821200
     23 C43         0.9540  -10.6030   -5.3410 c3        1 GGA      0.105800
     24 C45         1.6350  -11.9710   -5.2940 c3        1 GGA     -0.042400
     25 C47         0.9570  -12.7940   -4.2200 c3        1 GGA     -0.161400
     26 C49         1.7960  -14.0030   -3.8250 c3        1 GGA      0.156800
     27 N54         1.3200  -14.7550   -2.6830 n3        1 GGA     -0.916800
     28 O56        -3.2800   -7.2590   -3.2840 o         1 GGA     -0.944300
     29 O58        -1.3490   -8.3150   -1.9250 os        1 GGA     -0.782800
     30 P60        -0.2920   -9.6240   -1.1330 p5        1 GGA      1.424900
     31 O62         0.1320  -10.3290   -2.3910 o         1 GGA     -0.922167
     32 O64        -1.2240  -10.3630   -0.2370 o         1 GGA     -0.922167
     33 O66         0.7270   -8.7290   -0.5140 o         1 GGA     -0.922167
     34 H6         -3.5620    3.5290   -2.7690 h1        1 GGA      0.040700
     35 HN81       -5.5340    4.0550   -4.8360 hn        1 GGA      0.326800
     36 HN82       -4.8020    5.2450   -4.0410 hn        1 GGA      0.326800
     37 H101       -6.0770    1.8630   -3.4410 hc        1 GGA      0.038700
     38 H102       -4.5660    1.6860   -4.4150 hc        1 GGA      0.038700
     39 H121       -3.2660    1.2500   -2.2930 hc        1 GGA      0.085200
     40 H122       -4.8110    1.3860   -1.3500 hc        1 GGA      0.085200
     41 HN18       -3.2550   -1.0160   -1.2810 hn        1 GGA      0.327500
     42 H20        -4.3800   -2.9160   -3.1810 h1        1 GGA      0.080700
     43 H221       -5.1160   -3.1400   -0.1660 hc        1 GGA      0.044367
     44 H222       -5.4680   -4.3390   -1.4830 hc        1 GGA      0.044367
     45 H223       -6.2500   -2.7010   -1.5150 hc        1 GGA      0.044367
     46 HN30       -3.5550   -5.1790   -2.6990 hn        1 GGA      0.337500
     47 H291       -0.7770   -5.2760   -1.8280 h1        1 GGA      0.083200
     48 H292       -1.9470   -6.0150   -0.7070 h1        1 GGA      0.083200
     49 H331        0.2470   -6.8140   -3.5990 hc        1 GGA      0.074700
     50 H332       -0.9840   -5.8100   -4.4320 hc        1 GGA      0.074700
     51 H351       -2.0450   -7.8890   -5.3430 hc        1 GGA      0.079700
     52 H352       -0.7740   -8.8850   -4.5120 hc        1 GGA      0.079700
     53 H371       -0.5460   -8.2170   -7.1090 hc        1 GGA      0.014200
     54 H372        0.0250   -6.6350   -6.4610 hc        1 GGA      0.014200
     55 H391        1.6350   -8.1070   -4.9310 h1        1 GGA      0.044700
     56 H392        2.0470   -7.7160   -6.6650 h1        1 GGA      0.044700
     57 HN44        1.2100   -9.8980   -7.2190 hn        1 GGA      0.313800
     58 H431       -0.1410  -10.7710   -5.5650 h1        1 GGA      0.093700
     59 H432        0.9970  -10.1640   -4.2870 h1        1 GGA      0.093700
     60 H451        2.7220  -11.8450   -5.0540 hc        1 GGA      0.004700
     61 H452        1.5710  -12.4890   -6.2870 hc        1 GGA      0.004700
     62 H471       -0.0450  -13.1370   -4.5880 hc        1 GGA      0.098200
     63 H472        0.7590  -12.1240   -3.3210 hc        1 GGA      0.098200
     64 H491        2.8460  -13.6630   -3.5980 h1        1 GGA      0.019200
     65 H492        1.8560  -14.7160   -4.6970 h1        1 GGA      0.019200
     66 H541        0.3440  -14.9600   -2.8010 hn        1 GGA      0.343300
     67 H542        1.4020  -14.1900   -1.8560 hn        1 GGA      0.343300
@<TRIPOS>BOND
     1    1    2 1   
     2    1    3 1   
     3    1    4 1   
     4    4    5 1   
     5    4    6 1   
     6    4   34 1   
     7    5   35 1   
     8    5   36 1   
     9    6    7 1   
    10    6   37 1   
    11    6   38 1   
    12    7    8 1   
    13    7   39 1   
    14    7   40 1   
    15    8    9 2   
    16    8   10 1   
    17   10   11 1   
    18   10   41 1   
    19   11   12 1   
    20   11   13 1   
    21   11   42 1   
    22   12   43 1   
    23   12   44 1   
    24   12   45 1   
    25   13   14 2   
    26   13   15 1   
    27   15   16 1   
    28   15   46 1   
    29   16   17 1   
    30   16   47 1   
    31   16   48 1   
    32   17   18 1   
    33   17   28 2   
    34   17   29 1   
    35   18   19 1   
    36   18   49 1   
    37   18   50 1   
    38   19   20 1   
    39   19   51 1   
    40   19   52 1   
    41   20   21 1   
    42   20   53 1   
    43   20   54 1   
    44   21   22 1   
    45   21   55 1   
    46   21   56 1   
    47   22   23 1   
    48   22   57 1   
    49   23   24 1   
    50   23   58 1   
    51   23   59 1   
    52   24   25 1   
    53   24   60 1   
    54   24   61 1   
    55   25   26 1   
    56   25   62 1   
    57   25   63 1   
    58   26   27 1   
    59   26   64 1   
    60   26   65 1   
    61   27   66 1   
    62   27   67 1   
    63   29   30 1   
    64   30   31 1   
    65   30   32 1   
    66   30   33 1   
@<TRIPOS>SUBSTRUCTURE
     1 GGA         1 TEMP              0 ****  ****    0 ROOT
