@<TRIPOS>MOLECULE
GGB
   23    22     1     0     0
SMALL
bcc


@<TRIPOS>ATOM
      1 N           1.9310   -0.5830    2.1210 n3        1 GGB     -0.897800
      2 CA          0.7730    0.2630    1.8540 c3        1 GGB      0.015500
      3 CB         -0.0410   -0.1970    0.6440 c3        1 GGB     -0.090400
      4 CG          0.7850   -0.1540   -0.6200 c3        1 GGB      0.141400
      5 C          -0.2050    0.4210    3.0680 c         1 GGB      0.890600
      6 OD          0.0750   -0.7400   -1.7490 os        1 GGB     -0.283100
      7 NE         -0.8870    0.0390   -2.2760 nh        1 GGB     -0.515700
      8 CZ         -0.6000    0.2870   -3.7020 c2        1 GGB      0.713100
      9 NH1        -1.5490    0.0900   -4.5800 n2        1 GGB     -0.870100
     10 NH2         0.6740    0.8760   -3.9840 nh        1 GGB     -0.916800
     11 OA1         0.1030   -0.1540    4.1520 o         1 GGB     -0.839300
     12 OA2        -1.2320    1.1320    2.8980 o         1 GGB     -0.839300
     13 HN1A        1.6130   -1.5310    2.2180 hn        1 GGB      0.332800
     14 HN2         2.2900   -0.3160    3.0230 hn        1 GGB      0.332800
     15 HCA         1.1740    1.2960    1.6350 h1        1 GGB      0.040700
     16 HCB1       -0.4270   -1.2360    0.8050 hc        1 GGB      0.061700
     17 HCB2       -0.9290    0.4850    0.5600 hc        1 GGB      0.061700
     18 HCG1        1.1120    0.8890   -0.8600 h1        1 GGB      0.052200
     19 HCG2        1.6780   -0.8330   -0.5590 h1        1 GGB      0.052200
     20 HNE        -1.7690   -0.4640   -2.1890 hn        1 GGB      0.399800
     21 HN1        -1.3490    0.3980   -5.5070 hn        1 GGB      0.383400
     22 HN21        1.1050    0.4920   -4.7970 hn        1 GGB      0.386800
     23 HN22        1.2980    0.8870   -3.2040 hn        1 GGB      0.386800
@<TRIPOS>BOND
     1    1    2 1   
     2    1   13 1   
     3    1   14 1   
     4    2    3 1   
     5    2    5 1   
     6    2   15 1   
     7    3    4 1   
     8    3   16 1   
     9    3   17 1   
    10    4    6 1   
    11    4   18 1   
    12    4   19 1   
    13    5   11 1   
    14    5   12 1   
    15    6    7 1   
    16    7    8 1   
    17    7   20 1   
    18    8    9 2   
    19    8   10 1   
    20    9   21 1   
    21   10   22 1   
    22   10   23 1   
@<TRIPOS>SUBSTRUCTURE
     1 GGB         1 TEMP              0 ****  ****    0 ROOT
