@<TRIPOS>MOLECULE
GGB
   26    22     1     0     0
SMALL
bcc


@<TRIPOS>ATOM
      1 N         -13.7100  -95.7760 -108.0460 n4        1 GGB     -0.715400
      2 CA        -15.0070  -95.3930 -108.5840 c2        1 GGB     -0.144000
      3 CB        -16.1140  -95.2730 -107.8440 c2        1 GGB     -0.099000
      4 CG         14.4030   81.8680   94.0460 c         1 GGB      0.618700
      5 C         -10.8840  -94.6190 -105.4840 c1        1 GGB      0.925000
      6 OD         14.4400   82.6240   95.0220 o         1 GGB     -0.629100
      7 NE         14.0040   85.0830   96.5620 nh        1 GGB     -0.922800
      8 CZ         14.5450   84.3850   97.6720 c2        1 GGB      0.683100
      9 NH1        14.9990   83.1980   97.8650 n2        1 GGB     -0.744100
     10 NH2        14.4630   85.2350   98.9420 n4        1 GGB     -0.823600
     11 OA1       -11.7450  -94.9710 -106.2420 o         1 GGB     -0.461500
     12 OA2       -10.0380  -94.2740 -104.7380 o         1 GGB     -0.461500
     13 HN1A      -13.0250  -95.0240 -108.2110 hn        1 GGB      0.468133
     14 HN2       -13.7480  -95.9440 -107.0320 hn        1 GGB      0.468133
     15 HCA       -14.9720  -95.2090 -109.6770 hx        1 GGB      0.205000
     16 HCB1      -16.1720  -95.4480 -106.7590 ha        1 GGB      0.173000
     17 HCB2      -17.0640  -94.9770 -108.3230 ha        1 GGB      0.173000
     18 HCG1       14.8790   80.8650   94.0700 h4        1 GGB      0.009200
     19 HCG2       13.8930   82.1580   93.1040 h4        1 GGB      0.009200
     20 HNE        13.6040   84.4640   95.8790 hn        1 GGB      0.439800
     21 HN1        15.0930   82.5840   97.0770 hn        1 GGB      0.501400
     22 HN21       14.7660   84.6870   99.7570 hn        1 GGB      0.473133
     23 HN22       15.0640   86.0560   98.8400 hn        1 GGB      0.473133
     24 HN3       -13.3810  -96.6300 -108.5110 hn        1 GGB      0.468133
     25 HE3        14.6340   85.7460   96.1570 hn        1 GGB      0.439800
     26 HH23       13.4920   85.5380   99.0740 hn        1 GGB      0.473133
@<TRIPOS>BOND
     1    1    2 1   
     2    1   13 1   
     3    1   14 1   
     4    1   24 1   
     5    2    3 2   
     6    2   15 1   
     7    3   16 1   
     8    3   17 1   
     9    4    6 2   
    10    4   18 1   
    11    4   19 1   
    12    5   11 2   
    13    5   12 2   
    14    7    8 1   
    15    7   20 1   
    16    7   25 1   
    17    8    9 2   
    18    8   10 1   
    19    9   21 1   
    20   10   22 1   
    21   10   23 1   
    22   10   26 1   
@<TRIPOS>SUBSTRUCTURE
     1 GGB         1 TEMP              0 ****  ****    0 ROOT
