@<TRIPOS>MOLECULE
GGB
   23    21     1     0     0
SMALL
bcc


@<TRIPOS>ATOM
      1 N          -2.6180   -1.2030   -1.9520 n3        1 GGB     -0.887800
      2 CA         -1.2040   -1.0520   -1.9250 c3        1 GGB      0.019500
      3 CB         -0.7430   -0.8720   -0.4970 c3        1 GGB     -0.060400
      4 CG          0.0740    0.3960   -0.3860 c3        1 GGB      0.131400
      5 C          -0.5530   -2.2830   -2.5130 c         1 GGB      0.887600
      6 OD          0.1540    0.7860    0.9650 os        1 GGB     -0.285100
      7 NE          1.4030    1.2730    1.2330 nh        1 GGB     -0.474500
      8 CZ          1.7430    1.6640    2.5540 c2        1 GGB      0.263000
      9 NH1         2.9570    2.0670    2.8250 n1        1 GGB     -0.327000
     10 NH2         0.7650    1.6180    3.5810 nh        1 GGB     -0.824600
     11 OA1        -0.8050   -3.4190   -2.0320 o         1 GGB     -0.840300
     12 OA2         0.2360   -2.1730   -3.4880 o         1 GGB     -0.840300
     13 HN1A       -2.8580   -1.6950   -2.6870 hn        1 GGB      0.331800
     14 HN2        -3.0130   -0.3780   -1.9940 hn        1 GGB      0.331800
     15 HCA        -0.9500   -0.2670   -2.4500 h1        1 GGB      0.042700
     16 HCB1       -1.5220   -0.8110    0.0910 hc        1 GGB      0.035700
     17 HCB2       -0.1950   -1.6380   -0.2330 hc        1 GGB      0.035700
     18 HCG1        0.9760    0.2340   -0.7330 h1        1 GGB      0.069700
     19 HCG2       -0.3540    1.1070   -0.9070 h1        1 GGB      0.069700
     20 HNE         2.0210    1.3410    0.5640 hn        1 GGB      0.371800
     21 HN1         3.5860    2.0960    2.1630 DU        1 GGB      0.154000
     22 HN21        0.9810    1.8820    4.4290 hn        1 GGB      0.398300
     23 HN22       -0.0810    1.3280    3.3930 hn        1 GGB      0.398300
@<TRIPOS>BOND
     1    1    2 1   
     2    1   13 1   
     3    1   14 1   
     4    2    3 1   
     5    2    5 1   
     6    2   15 1   
     7    3    4 1   
     8    3   16 1   
     9    3   17 1   
    10    4    6 1   
    11    4   18 1   
    12    4   19 1   
    13    5   11 1   
    14    5   12 1   
    15    6    7 1   
    16    7    8 1   
    17    7   20 1   
    18    8    9 2   
    19    8   10 1   
    20   10   22 1   
    21   10   23 1   
@<TRIPOS>SUBSTRUCTURE
     1 GGB         1 TEMP              0 ****  ****    0 ROOT
