@<TRIPOS>MOLECULE
GGB
   26    22     1     0     0
SMALL
bcc


@<TRIPOS>ATOM
      1 N         -27.3500 -161.0510 -182.4080 nz        1 GGB     -0.715400
      2 CA        -28.7670 -160.7550 -182.5650 c2        1 GGB     -0.144000
      3 CB        -29.6240 -160.6530 -181.5450 c2        1 GGB     -0.099000
      4 CG         25.6290  137.8220  157.8020 c         1 GGB      0.618700
      5 C         -23.9860 -159.6430 -180.7970 c1        1 GGB      0.925000
      6 OD         25.7520  138.5710  158.7770 o         1 GGB     -0.630100
      7 NE         26.4850  140.9970  160.2550 nv        1 GGB     -0.922800
      8 CZ         26.0660  140.3120  161.4230 c2        1 GGB      0.683100
      9 NH1        25.5930  139.1430  161.6710 n2        1 GGB     -0.744100
     10 NH2        26.3470  141.1470  162.6740 nz        1 GGB     -0.823600
     11 OA1       -25.0060 -160.0700 -181.2660 o         1 GGB     -0.461500
     12 OA2       -22.9850 -159.2240 -180.3350 o         1 GGB     -0.461500
     13 HN1A      -27.1170 -161.9100 -182.9190 hn        1 GGB      0.468133
     14 HN2       -26.7850 -160.2760 -182.7850 hn        1 GGB      0.468133
     15 HCA       -29.0530 -160.6230 -183.6280 hx        1 GGB      0.205000
     16 HCB1      -29.3620 -160.7790 -180.4830 ha        1 GGB      0.173000
     17 HCB2      -30.6870 -160.4250 -181.7420 ha        1 GGB      0.173000
     18 HCG1       25.1200  136.8390  157.8850 h4        1 GGB      0.009200
     19 HCG2       26.0230  138.1000  156.8020 h4        1 GGB      0.009200
     20 HNE        26.7680  140.3680  159.5230 hn        1 GGB      0.439800
     21 HN1        25.3720  138.5400  160.9000 hn        1 GGB      0.501400
     22 HN21       26.1310  140.6050  163.5200 hn        1 GGB      0.473133
     23 HN22       27.3390  141.4100  162.6790 hn        1 GGB      0.473133
     24 HN3       -27.0900 -161.1720 -181.4200 hn        1 GGB      0.468133
     25 HE3        25.8350  141.6880  159.9380 hn        1 GGB      0.439800
     26 HH23       25.7720  141.9930  162.6550 hn        1 GGB      0.473133
@<TRIPOS>BOND
     1    1    2 1   
     2    1   13 1   
     3    1   14 1   
     4    1   24 1   
     5    2    3 2   
     6    2   15 1   
     7    3   16 1   
     8    3   17 1   
     9    4    6 2   
    10    4   18 1   
    11    4   19 1   
    12    5   11 2   
    13    5   12 2   
    14    7    8 1   
    15    7   20 1   
    16    7   25 1   
    17    8    9 2   
    18    8   10 1   
    19    9   21 1   
    20   10   22 1   
    21   10   23 1   
    22   10   26 1   
@<TRIPOS>SUBSTRUCTURE
     1 GGB         1 TEMP              0 ****  ****    0 ROOT
