@<TRIPOS>MOLECULE
GGB
   26    22     1     0     0
SMALL
bcc


@<TRIPOS>ATOM
      1 N         -44.5640 -352.7050 -362.5200 n4        1 GGB     -0.715400
      2 CA        -44.0160 -352.2410 -361.2540 c2        1 GGB     -0.142000
      3 CB        -44.4560 -351.1620 -360.6010 c2        1 GGB     -0.101000
      4 CG         40.7660  307.9440  314.2380 c         1 GGB      0.618700
      5 C         -43.9580 -355.6700 -365.1160 c1        1 GGB      0.925000
      6 OD         40.7080  306.7800  314.6470 o         1 GGB     -0.630100
      7 NE         39.9750  304.5660  316.4270 nh        1 GGB     -0.922800
      8 CZ         40.5960  303.7100  315.4820 c2        1 GGB      0.683100
      9 NH1        41.1900  303.8800  314.3550 n2        1 GGB     -0.744100
     10 NH2        40.4100  302.2420  315.8730 n4        1 GGB     -0.823600
     11 OA1       -44.1400 -354.7770 -364.3340 o         1 GGB     -0.461500
     12 OA2       -43.7790 -356.5460 -365.8850 o         1 GGB     -0.461500
     13 HN1A      -43.8240 -352.7240 -363.2360 hn        1 GGB      0.468133
     14 HN2       -45.3260 -352.1030 -362.8470 hn        1 GGB      0.468133
     15 HCA       -43.1900 -352.8880 -360.8930 hx        1 GGB      0.206000
     16 HCB1      -45.2730 -350.5050 -360.9400 ha        1 GGB      0.173000
     17 HCB2      -43.9890 -350.8710 -359.6430 ha        1 GGB      0.173000
     18 HCG1       41.3600  308.2170  313.3410 h4        1 GGB      0.009200
     19 HCG2       40.2250  308.7680  314.7510 h4        1 GGB      0.009200
     20 HNE        40.5210  304.7190  317.2520 hn        1 GGB      0.439800
     21 HN1        41.3590  304.8160  314.0360 hn        1 GGB      0.501400
     22 HN21       40.9070  302.0580  316.7470 hn        1 GGB      0.473133
     23 HN22       39.4090  302.0600  316.0050 hn        1 GGB      0.473133
     24 HN3       -44.9200 -353.6660 -362.4170 hn        1 GGB      0.468133
     25 HE3        39.6530  305.4240  316.0140 hn        1 GGB      0.439800
     26 HH23       40.7760  301.6280  315.1350 hn        1 GGB      0.473133
@<TRIPOS>BOND
     1    1    2 1   
     2    1   13 1   
     3    1   14 1   
     4    1   24 1   
     5    2    3 2   
     6    2   15 1   
     7    3   16 1   
     8    3   17 1   
     9    4    6 2   
    10    4   18 1   
    11    4   19 1   
    12    5   11 2   
    13    5   12 2   
    14    7    8 1   
    15    7   20 1   
    16    7   25 1   
    17    8    9 2   
    18    8   10 1   
    19    9   21 1   
    20   10   22 1   
    21   10   23 1   
    22   10   26 1   
@<TRIPOS>SUBSTRUCTURE
     1 GGB         1 TEMP              0 ****  ****    0 ROOT
