@<TRIPOS>MOLECULE
GGC
   54    55     1     0     0
SMALL
bcc


@<TRIPOS>ATOM
      1 CB1         2.4780   -0.7560    4.6460 c3        1 GGC     -0.063400
      2 CG1         1.8890    0.6000    4.3200 c3        1 GGC     -0.146400
      3 CD1         1.9240    0.8880    2.8300 c         1 GGC      0.666100
      4 OE1         2.8300    1.5830    2.3230 o         1 GGC     -0.635100
      5 C1          2.8380   -2.5330    6.3850 c         1 GGC      0.888600
      6 O11         3.7530   -2.8040    7.2170 o         1 GGC     -0.844800
      7 O12         2.1750   -3.3990    5.7510 o         1 GGC     -0.844800
      8 N1          3.2970   -0.0920    6.9130 n3        1 GGC     -0.895800
      9 CA1         2.4780   -1.0280    6.1520 c3        1 GGC      0.019500
     10 N2          0.9030    0.3710    2.0540 n         1 GGC     -0.569900
     11 CA2         0.7720    0.6400    0.6460 c3        1 GGC      0.031700
     12 CB2         0.8530   -0.6250   -0.2190 c3        1 GGC     -0.034300
     13 SG2         1.3490   -0.3100   -1.8870 ss        1 GGC     -0.330200
     14 C2         -0.5450    1.4040    0.3300 c         1 GGC      0.616100
     15 O2         -0.4740    2.5520   -0.1550 o         1 GGC     -0.618100
     16 C1'        -2.1410   -0.4010   -7.2660 ca        1 GGC     -0.156000
     17 C2'        -3.3990   -0.5190   -6.7290 ca        1 GGC     -0.128000
     18 C3'        -3.5780   -0.4820   -5.3270 ca        1 GGC     -0.143000
     19 C4'        -2.5000   -0.3320   -4.4870 ca        1 GGC     -0.088000
     20 C4A        -1.1830   -0.2040   -5.0140 ca        1 GGC     -0.036000
     21 C8A        -1.0080   -0.2380   -6.4240 ca        1 GGC     -0.037000
     22 C8'         0.2940   -0.1060   -6.9770 ca        1 GGC     -0.148000
     23 C7'         1.3800    0.0630   -6.1560 ca        1 GGC     -0.125000
     24 C6'         1.2150    0.1040   -4.7530 ca        1 GGC     -0.151000
     25 C5'        -0.0320   -0.0330   -4.1780 ca        1 GGC     -0.010300
     26 C10        -0.1980    0.0210   -2.7080 c3        1 GGC      0.001000
     27 N3         -1.7440    0.8100    0.6900 n         1 GGC     -0.498900
     28 CA3        -2.9790    1.2200    0.0610 c3        1 GGC     -0.068000
     29 C3         -3.5050    0.2420   -1.0190 c         1 GGC      0.889600
     30 O31        -2.8410   -0.8110   -1.2700 o         1 GGC     -0.848800
     31 O32        -4.5740    0.5520   -1.6110 o         1 GGC     -0.848800
     32 HB11        3.5230   -0.8200    4.2440 hc        1 GGC      0.055700
     33 HB12        1.8780   -1.5720    4.1620 hc        1 GGC      0.055700
     34 HG11        0.8390    0.6610    4.7080 hc        1 GGC      0.064700
     35 HG12        2.4840    1.4090    4.8220 hc        1 GGC      0.064700
     36 HN11        3.4950   -0.5240    7.8010 hn        1 GGC      0.331300
     37 HN12        4.1810    0.0130    6.4470 hn        1 GGC      0.331300
     38 HA1         1.4210   -0.8980    6.5310 h1        1 GGC      0.040700
     39 HN2         0.2290   -0.2210    2.4760 hn        1 GGC      0.315500
     40 HA2         1.6180    1.3350    0.3410 h1        1 GGC      0.123700
     41 HB21        1.6560   -1.2990    0.1770 h1        1 GGC      0.088700
     42 HB22       -0.1100   -1.1920   -0.2070 h1        1 GGC      0.088700
     43 H3'        -4.5900   -0.5710   -4.9030 ha        1 GGC      0.147000
     44 H4'        -2.6710   -0.3120   -3.3870 ha        1 GGC      0.216000
     45 H8'         0.4100   -0.1390   -8.0690 ha        1 GGC      0.110000
     46 H7'         2.3910    0.1700   -6.5740 ha        1 GGC      0.113000
     47 H6'         2.1080    0.2470   -4.1210 ha        1 GGC      0.147000
     48 H101       -0.9700   -0.7190   -2.3530 h1        1 GGC      0.119700
     49 H102       -0.5620    1.0380   -2.4040 h1        1 GGC      0.119700
     50 HN3        -1.7000   -0.1850    0.8010 hn        1 GGC      0.296500
     51 HA31       -3.7580    1.3000    0.8690 h1        1 GGC      0.055200
     52 HA32       -2.8530    2.2320   -0.4110 h1        1 GGC      0.055200
     53 H1'        -1.9870   -0.4280   -8.3540 ha        1 GGC      0.108000
     54 H2'        -4.2770   -0.6420   -7.3790 ha        1 GGC      0.109000
@<TRIPOS>BOND
     1    1    2 1   
     2    1    9 1   
     3    1   32 1   
     4    1   33 1   
     5    2    3 1   
     6    2   34 1   
     7    2   35 1   
     8    3    4 2   
     9    3   10 1   
    10    5    6 1   
    11    5    7 1   
    12    5    9 1   
    13    8    9 1   
    14    8   36 1   
    15    8   37 1   
    16    9   38 1   
    17   10   11 1   
    18   10   39 1   
    19   11   12 1   
    20   11   14 1   
    21   11   40 1   
    22   12   13 1   
    23   12   41 1   
    24   12   42 1   
    25   13   26 1   
    26   14   15 2   
    27   14   27 1   
    28   16   17 ar  
    29   16   21 ar  
    30   16   53 1   
    31   17   18 ar  
    32   17   54 1   
    33   18   19 ar  
    34   18   43 1   
    35   19   20 ar  
    36   19   44 1   
    37   20   21 ar  
    38   20   25 ar  
    39   21   22 ar  
    40   22   23 ar  
    41   22   45 1   
    42   23   24 ar  
    43   23   46 1   
    44   24   25 ar  
    45   24   47 1   
    46   25   26 1   
    47   26   48 1   
    48   26   49 1   
    49   27   28 1   
    50   27   50 1   
    51   28   29 1   
    52   28   51 1   
    53   28   52 1   
    54   29   30 1   
    55   29   31 1   
@<TRIPOS>SUBSTRUCTURE
     1 GGC         1 TEMP              0 ****  ****    0 ROOT
