@<TRIPOS>MOLECULE
GGC
   57    58     1     0     0
SMALL
bcc


@<TRIPOS>ATOM
      1 CB1        -0.2210   -0.4000    0.4110 c3        1 GGC     -0.087400
      2 CG1        -1.2740   -0.0630    1.4520 c3        1 GGC     -0.157400
      3 CD1        -2.6660   -0.4400    1.0010 c         1 GGC      0.561100
      4 OE1        -3.4330    0.2770    0.3740 o         1 GGC     -0.419100
      5 C1         -0.4430   -2.8050    1.0980 c         1 GGC      0.890600
      6 O11        -0.9530   -3.3530    0.0820 o         1 GGC     -0.781300
      7 O12        -0.7470   -3.0200    2.2930 o         1 GGC     -0.781300
      8 N1          1.4980   -2.0910   -0.2810 n4        1 GGC     -0.824600
      9 CA1         0.5770   -1.6450    0.8100 c3        1 GGC     -0.039500
     10 N2         -3.1260   -1.8250    1.3550 n4        1 GGC     -0.695800
     11 CA2        -4.5970   -1.9760    1.5840 c3        1 GGC      0.049500
     12 CB2        -5.0990   -3.3590    1.1810 c3        1 GGC     -0.068300
     13 SG2        -4.6510   -3.6790   -0.4950 ss        1 GGC     -0.275200
     14 C2         -4.9730   -1.6590    3.0490 c         1 GGC      0.633100
     15 O2         -5.7300   -0.7090    3.2810 o         1 GGC     -0.506100
     16 C1'        -5.0080   -7.5470   -4.6180 ca        1 GGC     -0.109000
     17 C2'        -6.2310   -7.8790   -4.0920 ca        1 GGC     -0.122000
     18 C3'        -6.5760   -7.4630   -2.7840 ca        1 GGC     -0.107000
     19 C4'        -5.6920   -6.7300   -2.0310 ca        1 GGC     -0.130000
     20 C4A        -4.4130   -6.3750   -2.5430 ca        1 GGC     -0.010000
     21 C8A        -4.0740   -6.7880   -3.8590 ca        1 GGC     -0.044000
     22 C8'        -2.8090   -6.4400   -4.4040 ca        1 GGC     -0.085000
     23 C7'        -1.9100   -5.7100   -3.6660 ca        1 GGC     -0.149000
     24 C6'        -2.2340   -5.3030   -2.3540 ca        1 GGC     -0.101000
     25 C5'        -3.4560   -5.6250   -1.7920 ca        1 GGC     -0.089300
     26 C10        -3.7260   -5.2080   -0.3980 c3        1 GGC      0.047000
     27 N3         -4.4690   -2.4850    4.0520 n         1 GGC     -0.525900
     28 CA3        -4.1580   -1.8970    5.3270 c3        1 GGC     -0.018000
     29 C3         -2.9080   -1.0290    5.2810 c         1 GGC      0.615100
     30 O31        -2.3970   -0.5070    6.4200 oh        1 GGC     -0.541100
     31 O32        -2.2890   -0.7290    4.2530 o         1 GGC     -0.561000
     32 HB11       -0.7040   -0.5560   -0.5910 hc        1 GGC      0.075700
     33 HB12        0.4760    0.4770    0.3190 hc        1 GGC      0.075700
     34 HG11       -1.0260   -0.5420    2.4460 hc        1 GGC      0.136200
     35 HG12       -1.2960    1.0510    1.6210 hc        1 GGC      0.136200
     36 HN11        2.2070   -2.7160    0.1090 hn        1 GGC      0.460133
     37 HN12        1.9480   -1.2980   -0.7390 hn        1 GGC      0.460133
     38 HA1         1.1890   -1.4410    1.7340 hx        1 GGC      0.124700
     39 HN2        -2.8730   -2.4630    0.5490 hn        1 GGC      0.501300
     40 HA2        -5.1260   -1.1990    0.9390 hx        1 GGC      0.159700
     41 HB21       -6.2180   -3.3450    1.2650 h1        1 GGC      0.107700
     42 HB22       -4.7190   -4.1610    1.8590 h1        1 GGC      0.107700
     43 H4'        -5.9780   -6.3980   -1.0220 ha        1 GGC      0.128000
     44 H8'        -2.5660   -6.7680   -5.4270 ha        1 GGC      0.142000
     45 H7'        -0.9300   -5.4410   -4.0840 ha        1 GGC      0.130000
     46 H6'        -1.4960   -4.7280   -1.7700 ha        1 GGC      0.144000
     47 H101       -2.7670   -5.0190    0.1510 h1        1 GGC      0.085200
     48 H102       -4.3090   -5.9800    0.1600 h1        1 GGC      0.085200
     49 HN3        -3.8690   -3.2320    3.7760 hn        1 GGC      0.312500
     50 HA31       -4.0090   -2.7230    6.0800 h1        1 GGC      0.114200
     51 HA32       -5.0240   -1.2490    5.6580 h1        1 GGC      0.114200
     52 H1'        -4.7280   -7.8600   -5.6360 ha        1 GGC      0.141000
     53 H2'        -6.9550   -8.4680   -4.6760 ha        1 GGC      0.144000
     54 H13         0.9320   -2.6200   -0.9670 hn        1 GGC      0.460133
     55 H22        -2.5870   -2.1410    2.1850 hn        1 GGC      0.501300
     56 H32        -2.9390   -0.7640    7.1820 ho        1 GGC      0.445000
     57 H3'        -7.5630   -7.7330   -2.3810 ha        1 GGC      0.140000
@<TRIPOS>BOND
     1    1    2 1   
     2    1    9 1   
     3    1   32 1   
     4    1   33 1   
     5    2    3 1   
     6    2   34 1   
     7    2   35 1   
     8    3    4 2   
     9    3   10 1   
    10    5    6 1   
    11    5    7 1   
    12    5    9 1   
    13    8    9 1   
    14    8   36 1   
    15    8   37 1   
    16    8   54 1   
    17    9   38 1   
    18   10   11 1   
    19   10   39 1   
    20   10   55 1   
    21   11   12 1   
    22   11   14 1   
    23   11   40 1   
    24   12   13 1   
    25   12   41 1   
    26   12   42 1   
    27   13   26 1   
    28   14   15 2   
    29   14   27 1   
    30   16   17 ar  
    31   16   21 ar  
    32   16   52 1   
    33   17   18 ar  
    34   17   53 1   
    35   18   19 ar  
    36   18   57 1   
    37   19   20 ar  
    38   19   43 1   
    39   20   21 ar  
    40   20   25 ar  
    41   21   22 ar  
    42   22   23 ar  
    43   22   44 1   
    44   23   24 ar  
    45   23   45 1   
    46   24   25 ar  
    47   24   46 1   
    48   25   26 1   
    49   26   47 1   
    50   26   48 1   
    51   27   28 1   
    52   27   49 1   
    53   28   29 1   
    54   28   50 1   
    55   28   51 1   
    56   29   30 1   
    57   29   31 2   
    58   30   56 1   
@<TRIPOS>SUBSTRUCTURE
     1 GGC         1 TEMP              0 ****  ****    0 ROOT
