@<TRIPOS>MOLECULE
GGC
   57    58     1     0     0
SMALL
bcc


@<TRIPOS>ATOM
      1 CB1         0.1070   -0.5870    1.2430 c3        1 GGC     -0.080400
      2 CG1        -1.0430   -0.7550    2.2170 c3        1 GGC     -0.151400
      3 CD1        -2.3820   -0.6830    1.5280 c         1 GGC      0.574100
      4 OE1        -2.8780    0.2810    0.9630 o         1 GGC     -0.443100
      5 C1         -0.1840   -2.8050    0.0290 c         1 GGC      0.928600
      6 O11         0.0780   -2.8410   -1.1930 o         1 GGC     -0.784300
      7 O12        -1.1280   -3.3820    0.6280 o         1 GGC     -0.784300
      8 N1          2.0790   -1.7610    0.2270 n4        1 GGC     -0.830600
      9 CA1         0.7720   -1.9300    0.9380 c3        1 GGC     -0.051500
     10 N2         -3.1900   -1.9550    1.5560 n4        1 GGC     -0.715800
     11 CA2        -4.6630   -1.8100    1.4780 c3        1 GGC      0.070500
     12 CB2        -5.3330   -3.1350    1.0900 c3        1 GGC     -0.091300
     13 SG2        -4.8050   -3.5820   -0.5250 ss        1 GGC     -0.246200
     14 C2         -5.3570   -1.2490    2.7230 c         1 GGC      0.519100
     15 O2         -6.0690   -0.2570    2.6930 o         1 GGC     -0.380100
     16 C1'        -4.7960   -7.5600   -4.5350 ca        1 GGC     -0.105000
     17 C2'        -5.9950   -8.0020   -4.0340 ca        1 GGC     -0.128000
     18 C3'        -6.4060   -7.6100   -2.7380 ca        1 GGC     -0.107000
     19 C4'        -5.6120   -6.7910   -1.9730 ca        1 GGC     -0.136000
     20 C4A        -4.3600   -6.3220   -2.4580 ca        1 GGC     -0.006000
     21 C8A        -3.9540   -6.7120   -3.7620 ca        1 GGC     -0.048000
     22 C8'        -2.7140   -6.2520   -4.2830 ca        1 GGC     -0.085000
     23 C7'        -1.9030   -5.4380   -3.5330 ca        1 GGC     -0.140000
     24 C6'        -2.2910   -5.0520   -2.2310 ca        1 GGC     -0.078000
     25 C5'        -3.4930   -5.4790   -1.6940 ca        1 GGC     -0.116300
     26 C10        -3.8350   -5.0720   -0.3150 c3        1 GGC      0.051000
     27 N3         -5.2590   -1.9820    4.0210 n4        1 GGC     -0.656800
     28 CA3        -4.3900   -1.2470    4.9970 c3        1 GGC     -0.052200
     29 C3         -2.8940   -1.5880    4.7130 c         1 GGC      0.901600
     30 O31        -2.6900   -2.7420    4.2110 o         1 GGC     -0.775300
     31 O32        -2.0440   -0.7060    4.9190 o         1 GGC     -0.775300
     32 HB11       -0.2430   -0.1080    0.2900 hc        1 GGC      0.075200
     33 HB12        0.8500    0.1130    1.7180 hc        1 GGC      0.075200
     34 HG11       -0.9350   -1.7040    2.8210 hc        1 GGC      0.146700
     35 HG12       -1.0440    0.0880    2.9740 hc        1 GGC      0.146700
     36 HN11        2.7040   -2.5300    0.4740 hn        1 GGC      0.459467
     37 HN12        1.8830   -1.8150   -0.7940 hn        1 GGC      0.459467
     38 HA1         0.9670   -2.4930    1.8960 hx        1 GGC      0.118700
     39 HN2        -2.8970   -2.5090    0.6960 hn        1 GGC      0.522300
     40 HA2        -4.8780   -1.0420    0.6550 hx        1 GGC      0.174700
     41 HB21       -6.4400   -2.9650    1.0540 h1        1 GGC      0.101700
     42 HB22       -5.1200   -3.9420    1.8320 h1        1 GGC      0.101700
     43 H4'        -5.9520   -6.4860   -0.9730 ha        1 GGC      0.120000
     44 H8'        -2.4200   -6.5640   -5.2980 ha        1 GGC      0.142000
     45 H7'        -0.9420   -5.0770   -3.9290 ha        1 GGC      0.145000
     46 H6'        -1.6100   -4.4040   -1.6440 ha        1 GGC      0.171000
     47 H101       -4.4200   -5.8520    0.2270 h1        1 GGC      0.088700
     48 H102       -2.9090   -4.8450    0.2740 h1        1 GGC      0.088700
     49 HN3        -6.1980   -2.1000    4.4160 hn        1 GGC      0.472300
     50 HA31       -4.5770   -0.1430    4.9170 hx        1 GGC      0.120200
     51 HA32       -4.6430   -1.6010    6.0340 hx        1 GGC      0.120200
     52 H1'        -4.4630   -7.8540   -5.5430 ha        1 GGC      0.141000
     53 H2'        -6.6460   -8.6590   -4.6280 ha        1 GGC      0.143000
     54 H13         2.5200   -0.8700    0.4510 hn        1 GGC      0.459467
     55 H22        -2.8860   -2.5320    2.3770 hn        1 GGC      0.522300
     56 H32        -4.8120   -2.9100    3.8790 hn        1 GGC      0.472300
     57 H3'        -7.3720   -7.9700   -2.3540 ha        1 GGC      0.136000
@<TRIPOS>BOND
     1    1    2 1   
     2    1    9 1   
     3    1   32 1   
     4    1   33 1   
     5    2    3 1   
     6    2   34 1   
     7    2   35 1   
     8    3    4 2   
     9    3   10 1   
    10    5    6 1   
    11    5    7 1   
    12    5    9 1   
    13    8    9 1   
    14    8   36 1   
    15    8   37 1   
    16    8   54 1   
    17    9   38 1   
    18   10   11 1   
    19   10   39 1   
    20   10   55 1   
    21   11   12 1   
    22   11   14 1   
    23   11   40 1   
    24   12   13 1   
    25   12   41 1   
    26   12   42 1   
    27   13   26 1   
    28   14   15 2   
    29   14   27 1   
    30   16   17 ar  
    31   16   21 ar  
    32   16   52 1   
    33   17   18 ar  
    34   17   53 1   
    35   18   19 ar  
    36   18   57 1   
    37   19   20 ar  
    38   19   43 1   
    39   20   21 ar  
    40   20   25 ar  
    41   21   22 ar  
    42   22   23 ar  
    43   22   44 1   
    44   23   24 ar  
    45   23   45 1   
    46   24   25 ar  
    47   24   46 1   
    48   25   26 1   
    49   26   47 1   
    50   26   48 1   
    51   27   28 1   
    52   27   49 1   
    53   27   56 1   
    54   28   29 1   
    55   28   50 1   
    56   28   51 1   
    57   29   30 1   
    58   29   31 1   
@<TRIPOS>SUBSTRUCTURE
     1 GGC         1 TEMP              0 ****  ****    0 ROOT
