@<TRIPOS>MOLECULE
GGC
   57    58     1     0     0
SMALL
bcc


@<TRIPOS>ATOM
      1 CB1         0.4620   -0.2380    0.6520 c3        1 GGC     -0.086400
      2 CG1        -0.5670   -0.3740    1.7620 c3        1 GGC     -0.147400
      3 CD1        -1.9750   -0.4340    1.2160 c         1 GGC      0.565100
      4 OE1        -2.6150    0.5200    0.7920 o         1 GGC     -0.437100
      5 C1         -0.1030   -2.6390    0.1640 c         1 GGC      0.888600
      6 O11        -0.7810   -2.6010   -0.8990 o         1 GGC     -0.780300
      7 O12        -0.3350   -3.3460    1.1700 o         1 GGC     -0.780300
      8 N1          1.7800   -1.5470   -1.0390 nz        1 GGC     -0.824600
      9 CA1         1.0650   -1.5950    0.2740 c3        1 GGC     -0.039500
     10 N2         -2.6380   -1.7770    1.1880 ny        1 GGC     -0.686800
     11 CA2        -4.0620   -1.7730    1.6420 c3        1 GGC      0.059500
     12 CB2        -4.7690   -3.0640    1.2160 c3        1 GGC     -0.079300
     13 SG2        -4.4630   -3.4340   -0.4770 ss        1 GGC     -0.259200
     14 C2         -4.1490   -1.6200    3.1770 c         1 GGC      0.646100
     15 O2         -3.1100   -1.6250    3.8740 o         1 GGC     -0.625100
     16 C1'        -5.1420   -7.8830   -3.9980 ca        1 GGC     -0.107000
     17 C2'        -6.1050   -8.3700   -3.1490 ca        1 GGC     -0.124000
     18 C3'        -6.1960   -7.8730   -1.8270 ca        1 GGC     -0.106000
     19 C4'        -5.3250   -6.9090   -1.3820 ca        1 GGC     -0.133000
     20 C4A        -4.3110   -6.3890   -2.2330 ca        1 GGC     -0.007000
     21 C8A        -4.2280   -6.8850   -3.5620 ca        1 GGC     -0.045000
     22 C8'        -3.2340   -6.3790   -4.4430 ca        1 GGC     -0.084000
     23 C7'        -2.3510   -5.4180   -4.0190 ca        1 GGC     -0.147000
     24 C6'        -2.4190   -4.9250   -2.6980 ca        1 GGC     -0.095000
     25 C5'        -3.3740   -5.3940   -1.8130 ca        1 GGC     -0.096300
     26 C10        -3.3800   -4.8610   -0.4340 c3        1 GGC      0.047000
     27 N3         -5.3920   -1.4520    3.7210 ns        1 GGC     -0.526900
     28 CA3        -5.5780   -1.3390    5.1430 c3        1 GGC     -0.011000
     29 C3         -5.4850   -2.6730    5.8720 c         1 GGC      0.596100
     30 O31        -4.2630   -3.2080    6.1300 oh        1 GGC     -0.566100
     31 O32        -6.4410   -3.3340    6.2650 o         1 GGC     -0.455000
     32 HB11        1.2800    0.4420    1.0140 hc        1 GGC      0.078700
     33 HB12       -0.0130    0.2490   -0.2420 hc        1 GGC      0.078700
     34 HG11       -0.3340   -1.2650    2.4130 hc        1 GGC      0.125200
     35 HG12       -0.5300    0.5420    2.4180 hc        1 GGC      0.125200
     36 HN11        2.3010   -0.6770   -1.1500 hn        1 GGC      0.461800
     37 HN12        1.0660   -1.6310   -1.7840 hn        1 GGC      0.461800
     38 HA1         1.7930   -1.9320    1.0650 hx        1 GGC      0.123700
     39 HN2        -2.0910   -2.4370    1.7780 hn        1 GGC      0.511300
     40 HA2        -4.5650   -0.8830    1.1500 hx        1 GGC      0.139700
     41 HB21       -4.4750   -3.9140    1.8830 h1        1 GGC      0.110200
     42 HB22       -5.8730   -2.9080    1.3270 h1        1 GGC      0.110200
     43 H4'        -5.4190   -6.5270   -0.3550 ha        1 GGC      0.124000
     44 H8'        -3.1890   -6.7750   -5.4700 ha        1 GGC      0.142000
     45 H7'        -1.5820   -5.0220   -4.6980 ha        1 GGC      0.135000
     46 H6'        -1.6950   -4.1580   -2.3710 ha        1 GGC      0.151000
     47 H101       -2.3510   -4.5290   -0.1310 h1        1 GGC      0.087700
     48 H102       -3.7390   -5.6110    0.3100 h1        1 GGC      0.087700
     49 HN3        -3.5590   -2.6240    5.8040 ho        1 GGC      0.446000
     50 HA31       -4.7980   -0.6410    5.5680 h1        1 GGC      0.104200
     51 HA32       -6.6010   -0.9040    5.3350 h1        1 GGC      0.104200
     52 H1'        -5.0600   -8.2570   -5.0300 ha        1 GGC      0.141000
     53 H2'        -6.8120   -9.1440   -3.4820 ha        1 GGC      0.144000
     54 H13         2.4170   -2.3450   -1.1050 hn        1 GGC      0.461800
     55 H22        -2.6190   -2.1540    0.1950 hn        1 GGC      0.511300
     56 H32        -6.2040   -1.5610    3.1560 hn        1 GGC      0.341500
     57 H3'        -6.9770   -8.2720   -1.1610 ha        1 GGC      0.140000
@<TRIPOS>BOND
     1    1    2 1   
     2    1    9 1   
     3    1   32 1   
     4    1   33 1   
     5    2    3 1   
     6    2   34 1   
     7    2   35 1   
     8    3    4 2   
     9    3   10 1   
    10    5    6 1   
    11    5    7 1   
    12    5    9 1   
    13    8    9 1   
    14    8   36 1   
    15    8   37 1   
    16    8   54 1   
    17    9   38 1   
    18   10   11 1   
    19   10   39 1   
    20   10   55 1   
    21   11   12 1   
    22   11   14 1   
    23   11   40 1   
    24   12   13 1   
    25   12   41 1   
    26   12   42 1   
    27   13   26 1   
    28   14   15 2   
    29   14   27 1   
    30   16   17 ar  
    31   16   21 ar  
    32   16   52 1   
    33   17   18 ar  
    34   17   53 1   
    35   18   19 ar  
    36   18   57 1   
    37   19   20 ar  
    38   19   43 1   
    39   20   21 ar  
    40   20   25 ar  
    41   21   22 ar  
    42   22   23 ar  
    43   22   44 1   
    44   23   24 ar  
    45   23   45 1   
    46   24   25 ar  
    47   24   46 1   
    48   25   26 1   
    49   26   47 1   
    50   26   48 1   
    51   27   28 1   
    52   27   56 1   
    53   28   29 1   
    54   28   50 1   
    55   28   51 1   
    56   29   30 1   
    57   29   31 2   
    58   30   49 1   
@<TRIPOS>SUBSTRUCTURE
     1 GGC         1 TEMP              0 ****  ****    0 ROOT
