@<TRIPOS>MOLECULE
GGG
   23    22     1     0     0
SMALL
bcc


@<TRIPOS>ATOM
      1 N1          5.5760    0.2630    0.5330 n3        1 GGG     -0.886800
      2 CA1         4.3710    0.7190   -0.1040 c3        1 GGG      0.079800
      3 C1          3.1600   -0.2230    0.0230 c         1 GGG      0.600100
      4 O1          3.2530   -1.2990    0.6520 o         1 GGG     -0.632100
      5 N2          2.0150    0.1420   -0.6540 n         1 GGG     -0.525900
      6 CA2         0.7580   -0.5180   -0.4170 c3        1 GGG     -0.009000
      7 C2         -0.3930    0.4660   -0.1080 c         1 GGG      0.617100
      8 O2         -0.2030    1.7040   -0.2030 o         1 GGG     -0.670100
      9 N3         -1.5650   -0.0900    0.3090 n         1 GGG     -0.500900
     10 CA3        -2.7980    0.6520    0.3920 c3        1 GGG     -0.062000
     11 C3         -4.0540   -0.2140    0.0680 c         1 GGG      0.908600
     12 O3         -3.8910   -1.4330   -0.2260 o         1 GGG     -0.833300
     13 O          -5.1630    0.3790    0.1280 o         1 GGG     -0.833300
     14 HN1         5.4250    0.1460    1.5180 hn        1 GGG      0.353300
     15 HN1A        5.8520   -0.6260    0.1580 hn        1 GGG      0.353300
     16 HA1         4.0860    1.7130    0.3430 h1        1 GGG      0.072200
     17 HA1A        4.5880    0.8740   -1.1990 h1        1 GGG      0.072200
     18 HN2         1.9320    1.0980   -0.9360 hn        1 GGG      0.321500
     19 HA2         0.4800   -1.0830   -1.3540 h1        1 GGG      0.078200
     20 HA2A        0.8670   -1.2610    0.4250 h1        1 GGG      0.078200
     21 HN3        -1.6990   -1.0770    0.1900 hn        1 GGG      0.330500
     22 HA3        -2.9040    1.0510    1.4380 h1        1 GGG      0.044700
     23 HA3A       -2.7750    1.5280   -0.3120 h1        1 GGG      0.044700
@<TRIPOS>BOND
     1    1    2 1   
     2    1   14 1   
     3    1   15 1   
     4    2    3 1   
     5    2   16 1   
     6    2   17 1   
     7    3    4 2   
     8    3    5 1   
     9    5    6 1   
    10    5   18 1   
    11    6    7 1   
    12    6   19 1   
    13    6   20 1   
    14    7    8 2   
    15    7    9 1   
    16    9   10 1   
    17    9   21 1   
    18   10   11 1   
    19   10   22 1   
    20   10   23 1   
    21   11   12 1   
    22   11   13 1   
@<TRIPOS>SUBSTRUCTURE
     1 GGG         1 TEMP              0 ****  ****    0 ROOT
