@<TRIPOS>MOLECULE
GGG
   23    22     1     0     0
SMALL
bcc


@<TRIPOS>ATOM
      1 N1         -2.4100    2.3220   -3.6140 n3        1 GGG     -0.886800
      2 CA1        -1.5010    1.2500   -3.2320 c3        1 GGG      0.079800
      3 C1         -1.3790    1.2070   -1.7230 c         1 GGG      0.600100
      4 O1         -2.2250    1.7270   -1.0340 o         1 GGG     -0.632100
      5 N2         -0.3020    0.4820   -1.1110 n         1 GGG     -0.525900
      6 CA2        -0.0760    0.5920    0.2980 c3        1 GGG     -0.009000
      7 C2          0.2950   -0.7670    0.8600 c         1 GGG      0.617100
      8 O2         -0.3350   -1.7540    0.5300 o         1 GGG     -0.670100
      9 N3          1.3230   -0.8740    1.8570 n         1 GGG     -0.500900
     10 CA3         1.5350   -2.1380    2.5520 c3        1 GGG     -0.062000
     11 C3          2.5570   -1.9460    3.6490 c         1 GGG      0.908600
     12 O3          2.1800   -1.7120    4.8230 o         1 GGG     -0.833300
     13 O           3.7720   -2.1230    3.4080 o         1 GGG     -0.833300
     14 HN1        -2.1450    3.1130   -3.2050 hn        1 GGG      0.353300
     15 HN1A       -3.2510    2.1130   -3.3490 hn        1 GGG      0.353300
     16 HA1        -0.6110    1.4130   -3.6300 h1        1 GGG      0.072200
     17 HA1A       -1.8470    0.4040   -3.5520 h1        1 GGG      0.072200
     18 HN2         0.2450   -0.0330   -1.6210 hn        1 GGG      0.321500
     19 HA2        -0.8920    0.9140    0.7360 h1        1 GGG      0.078200
     20 HA2A        0.6470    1.2160    0.4610 h1        1 GGG      0.078200
     21 HN3         1.8680   -0.1550    2.0350 hn        1 GGG      0.330500
     22 HA3         1.8620   -2.8090    1.9170 h1        1 GGG      0.044700
     23 HA3A        0.6890   -2.4430    2.9430 h1        1 GGG      0.044700
@<TRIPOS>BOND
     1    1    2 1   
     2    1   14 1   
     3    1   15 1   
     4    2    3 1   
     5    2   16 1   
     6    2   17 1   
     7    3    4 2   
     8    3    5 1   
     9    5    6 1   
    10    5   18 1   
    11    6    7 1   
    12    6   19 1   
    13    6   20 1   
    14    7    8 2   
    15    7    9 1   
    16    9   10 1   
    17    9   21 1   
    18   10   11 1   
    19   10   22 1   
    20   10   23 1   
    21   11   12 1   
    22   11   13 1   
@<TRIPOS>SUBSTRUCTURE
     1 GGG         1 TEMP              0 ****  ****    0 ROOT
