@<TRIPOS>MOLECULE
GGG
   26    22     1     0     0
SMALL
bcc


@<TRIPOS>ATOM
      1 N1       -406.9310   25.1230 -273.8060 n4        1 GGG     -0.829600
      2 CA1      -408.3230   25.3840 -274.2640 c3        1 GGG      0.004800
      3 C1       -408.3660   25.5460 -275.8020 c         1 GGG      0.648100
      4 O1       -407.3440   25.2520 -276.4570 o         1 GGG     -0.596100
      5 N2       -409.5190   25.9860 -276.3570 n         1 GGG     -0.617000
      6 CA2       352.8610  -22.4110  240.3280 c2        1 GGG     -0.428100
      7 C2        354.1490  -22.2410  240.3590 c1        1 GGG      0.566600
      8 O2        355.3420  -22.0820  240.3900 o         1 GGG     -0.542500
      9 N3        358.1130  -21.7300  239.7640 nh        1 GGG     -0.285100
     10 CA3       358.1740  -21.6930  241.0540 c2        1 GGG      0.427100
     11 C3        362.1610  -21.1900  239.9700 c1        1 GGG      0.920000
     12 O3        360.9770  -21.3440  240.0870 o         1 GGG     -0.459000
     13 O         363.3260  -21.0380  239.8570 o         1 GGG     -0.459000
     14 HN1      -406.9340   24.5940 -272.9310 hn        1 GGG      0.476133
     15 HN1A     -406.4300   26.0070 -273.6710 hn        1 GGG      0.476133
     16 HA1      -408.7070   26.3110 -273.7500 hx        1 GGG      0.131200
     17 HA1A     -408.9700   24.5040 -273.9760 hx        1 GGG      0.131200
     18 HN2      -409.5730   26.0750 -277.3490 hn        1 GGG      0.349000
     19 HA2       352.1640  -21.5610  240.2960 ha        1 GGG      0.205000
     20 HA2A      352.4080  -23.4130  240.3350 ha        1 GGG      0.205000
     21 HN3       358.9370  -21.6330  239.1870 hn        1 GGG      0.342700
     22 HA3       357.2470  -21.8030  241.6660 h4        1 GGG      0.082800
     23 HA3A      359.1530  -21.5520  241.5700 h4        1 GGG      0.082800
     24 H13      -406.4320   24.5860 -274.5410 hn        1 GGG      0.476133
     25 H22      -410.3190   26.1980 -275.8140 hn        1 GGG      0.349000
     26 H32       357.2350  -21.8570  239.2770 hn        1 GGG      0.342700
@<TRIPOS>BOND
     1    1    2 1   
     2    1   14 1   
     3    1   15 1   
     4    1   24 1   
     5    2    3 1   
     6    2   16 1   
     7    2   17 1   
     8    3    4 2   
     9    3    5 1   
    10    5   18 1   
    11    5   25 1   
    12    6    7 2   
    13    6   19 1   
    14    6   20 1   
    15    7    8 2   
    16    9   10 2   
    17    9   21 1   
    18    9   26 1   
    19   10   22 1   
    20   10   23 1   
    21   11   12 2   
    22   11   13 2   
@<TRIPOS>SUBSTRUCTURE
     1 GGG         1 TEMP              0 ****  ****    0 ROOT
