@<TRIPOS>MOLECULE
GGG
   26    22     1     0     0
SMALL
bcc


@<TRIPOS>ATOM
      1 N1       -119.7760   -0.4040  -95.4300 nz        1 GGG     -0.829600
      2 CA1      -118.4090   -0.5400  -96.0040 c3        1 GGG      0.004800
      3 C1       -117.3600   -0.6800  -94.8750 c         1 GGG      0.648100
      4 O1       -117.7230   -0.4680  -93.6990 o         1 GGG     -0.596100
      5 N2       -116.0970   -1.0150  -95.2270 nt        1 GGG     -0.617000
      6 CA2       108.4980    1.3620   82.7570 c2        1 GGG     -0.429100
      7 C2        108.9010    1.1630   83.9750 c1        1 GGG      0.566600
      8 O2        109.2760    0.9780   85.1050 o         1 GGG     -0.541500
      9 N3        109.5230    0.3770   87.8970 nv        1 GGG     -0.275100
     10 CA3       110.7420    0.6990   87.6210 c2        1 GGG      0.414100
     11 C3        105.8910   -0.7040   89.2350 c1        1 GGG      0.917000
     12 O3        106.9810   -0.3830   88.8520 o         1 GGG     -0.457500
     13 O         104.8170   -1.0190   89.6100 o         1 GGG     -0.457500
     14 HN1      -120.3850    0.1100  -96.0710 hn        1 GGG      0.476133
     15 HN1A     -119.7100    0.0990  -94.5250 hn        1 GGG      0.476133
     16 HA1      -118.1730    0.3890  -96.6000 hx        1 GGG      0.131200
     17 HA1A     -118.3890   -1.4360  -96.6870 hx        1 GGG      0.131200
     18 HN2      -115.8340   -1.1650  -96.1700 hn        1 GGG      0.349000
     19 HA2       108.1310    2.3430   82.4200 ha        1 GGG      0.204000
     20 HA2A      108.5070    0.5610   82.0040 ha        1 GGG      0.204000
     21 HN3       109.2170    0.0970   88.8180 hn        1 GGG      0.346700
     22 HA3       111.0240    1.0010   86.5830 h4        1 GGG      0.080300
     23 HA3A      111.5340    0.6830   88.4030 h4        1 GGG      0.080300
     24 H13      -120.1760   -1.3300  -95.2450 hn        1 GGG      0.476133
     25 H22      -115.4020   -1.0880  -94.5170 hn        1 GGG      0.349000
     26 H32       108.7920    0.3870   87.1940 hn        1 GGG      0.346700
@<TRIPOS>BOND
     1    1    2 1   
     2    1   14 1   
     3    1   15 1   
     4    1   24 1   
     5    2    3 1   
     6    2   16 1   
     7    2   17 1   
     8    3    4 2   
     9    3    5 1   
    10    5   18 1   
    11    5   25 1   
    12    6    7 2   
    13    6   19 1   
    14    6   20 1   
    15    7    8 2   
    16    9   10 2   
    17    9   21 1   
    18    9   26 1   
    19   10   22 1   
    20   10   23 1   
    21   11   12 2   
    22   11   13 2   
@<TRIPOS>SUBSTRUCTURE
     1 GGG         1 TEMP              0 ****  ****    0 ROOT
