@<TRIPOS>MOLECULE
GGG
   26    22     1     0     0
SMALL
bcc


@<TRIPOS>ATOM
      1 N1        -93.0780    3.3050  -66.6360 n4        1 GGG     -0.829600
      2 CA1       -91.7490    3.6160  -67.2270 c3        1 GGG      0.004800
      3 C1        -90.6630    3.6590  -66.1250 c         1 GGG      0.648100
      4 O1        -90.9630    3.2520  -64.9830 o         1 GGG     -0.596100
      5 N2        -89.4400    4.1280  -66.4640 n         1 GGG     -0.617000
      6 CA2        84.9120   -3.7000   57.8030 c2        1 GGG     -0.437100
      7 C2         85.4240   -3.5550   58.9890 c1        1 GGG      0.566600
      8 O2         85.8950   -3.4210   60.0870 o         1 GGG     -0.530500
      9 N3         87.0790   -3.1270   62.5860 nh        1 GGG     -0.272100
     10 CA3        87.7510   -3.0150   63.6810 c2        1 GGG      0.412100
     11 C3         83.8640   -2.3260   64.9710 c1        1 GGG      0.920000
     12 O3         82.8280   -2.1110   65.4920 o         1 GGG     -0.458500
     13 O          84.9180   -2.5450   64.4420 o         1 GGG     -0.458500
     14 HN1       -93.5260    4.1630  -66.2970 hn        1 GGG      0.476467
     15 HN1A      -93.6830    2.8540  -67.3280 hn        1 GGG      0.476467
     16 HA1       -91.4810    2.8020  -67.9630 hx        1 GGG      0.131200
     17 HA1A      -91.8130    4.6010  -67.7700 hx        1 GGG      0.131200
     18 HN2       -88.7210    4.1430  -65.7730 hn        1 GGG      0.349000
     19 HA2        84.5740   -4.6790   57.4330 ha        1 GGG      0.202000
     20 HA2A       84.7960   -2.8520   57.1140 ha        1 GGG      0.202000
     21 HN3        86.0720   -3.0150   62.5530 hn        1 GGG      0.348700
     22 HA3        88.8560   -3.1430   63.6960 h4        1 GGG      0.078300
     23 HA3A       87.2300   -2.7870   64.6410 h4        1 GGG      0.078300
     24 H13       -92.9440    2.6760  -65.8210 hn        1 GGG      0.476467
     25 H22       -89.2270    4.4320  -67.3810 hn        1 GGG      0.349000
     26 H32        87.5010   -3.3330   61.6900 hn        1 GGG      0.348700
@<TRIPOS>BOND
     1    1    2 1   
     2    1   14 1   
     3    1   15 1   
     4    1   24 1   
     5    2    3 1   
     6    2   16 1   
     7    2   17 1   
     8    3    4 2   
     9    3    5 1   
    10    5   18 1   
    11    5   25 1   
    12    6    7 2   
    13    6   19 1   
    14    6   20 1   
    15    7    8 2   
    16    9   10 2   
    17    9   21 1   
    18    9   26 1   
    19   10   22 1   
    20   10   23 1   
    21   11   12 2   
    22   11   13 2   
@<TRIPOS>SUBSTRUCTURE
     1 GGG         1 TEMP              0 ****  ****    0 ROOT
