@<TRIPOS>MOLECULE
GGH
   46    48     1     0     0
SMALL
bcc


@<TRIPOS>ATOM
      1 C2          0.0000    0.0000    0.0000 cc        1 GGH     -0.350200
      2 C4          1.8440    0.0000    1.2440 cd        1 GGH      0.024800
      3 C5          1.2010    0.0000    2.4580 cc        1 GGH     -0.021200
      4 C6         -0.2360    0.0010    2.4910 c         1 GGH      0.617000
      5 P1          7.9940   -0.5800    4.7960 p5        1 GGH      0.943800
      6 P2          7.0700    1.2260    6.9290 p5        1 GGH      0.746600
      7 O6         -0.8940    0.0010    3.5230 o         1 GGH     -0.774500
      8 O1A         9.3480    0.2730    4.5630 o         1 GGH     -0.675500
      9 O2A         8.1860   -1.8540    5.5680 o         1 GGH     -0.675500
     10 O3A         6.9990    0.4800    5.5000 os        1 GGH     -0.475800
     11 O5'         7.3810   -0.7760    3.3110 os        1 GGH     -0.470200
     12 O1B         6.7350    0.0520    7.9870 o         1 GGH     -0.564000
     13 O2B         8.3340    1.9850    7.1970 o         1 GGH     -0.564000
     14 C3B         5.5720    2.2340    6.9330 c3        1 GGH      0.399200
     15 P3          5.3280    3.6910    5.8910 p5        1 GGH      0.491700
     16 O1G         6.6710    4.5520    6.1370 o         1 GGH     -0.498167
     17 O2G         5.5160    3.1120    4.3940 o         1 GGH     -0.498167
     18 O3G         4.0420    4.4210    6.1410 o         1 GGH     -0.498167
     19 C5'         7.1540    0.3540    2.4860 c3        1 GGH      0.261400
     20 C4'         6.5800   -0.1120    1.1550 c3        1 GGH      0.142100
     21 O4'         5.3180   -0.7620    1.4150 os        1 GGH     -0.389600
     22 C1'         4.2690   -0.0020    0.7890 c3        1 GGH      0.171800
     23 N9          3.1750   -0.0010    1.5510 na        1 GGH      0.212100
     24 N3          1.3160    0.0000    0.0000 nd        1 GGH     -0.738100
     25 N2         -0.7260    0.0000   -1.1620 nz        1 GGH      0.355400
     26 N1         -0.7630    0.0000    1.1910 ns        1 GGH     -0.087400
     27 N7          2.0760    0.0000    3.5030 nc        1 GGH     -0.539000
     28 C8          3.2610   -0.0000    2.9240 cd        1 GGH      0.173400
     29 C2'         4.8440    1.3740    0.4890 c3        1 GGH     -0.118400
     30 C3'         6.2910    1.0430    0.2020 c3        1 GGH      0.156100
     31 O3'         6.3910    0.5870   -1.1450 oh        1 GGH     -0.596800
     32 H3B1        5.4350    2.5670    7.9550 hc        1 GGH      0.022700
     33 H3B2        4.7530    1.5610    6.7090 hc        1 GGH      0.022700
     34 H5'1        8.0890    0.8730    2.3160 h1        1 GGH      0.010700
     35 H5'2        6.4510    1.0210    2.9710 h1        1 GGH      0.010700
     36 H4'         7.2590   -0.8120    0.6830 h1        1 GGH      0.013700
     37 H1'         4.0270   -0.4680   -0.1590 h2        1 GGH      0.012700
     38 HN21       -0.1040   -0.0330   -1.9450 hn        1 GGH      0.049467
     39 HN22       -1.2780    0.8340   -1.2100 hn        1 GGH      0.049467
     40 HN1        -1.7600    0.0000    1.0990 hn        1 GGH      0.089500
     41 H8          4.1970   -0.0010    3.4690 h5        1 GGH      0.045100
     42 H2'1        4.7610    2.0240    1.3510 hc        1 GGH      0.046200
     43 H2'2        4.3690    1.8090   -0.3820 hc        1 GGH      0.046200
     44 H3'         6.9390    1.8900    0.3950 h1        1 GGH      0.014700
     45 HO3'        6.9900    1.1390   -1.6200 ho        1 GGH      0.358000
     46 H23        -1.3300   -0.7970   -1.1780 hn        1 GGH      0.049467
@<TRIPOS>BOND
     1    1   24 2   
     2    1   25 1   
     3    1   26 1   
     4    2    3 2   
     5    2   23 1   
     6    2   24 1   
     7    3    4 1   
     8    3   27 1   
     9    4    7 2   
    10    4   26 1   
    11    5    8 1   
    12    5    9 1   
    13    5   10 1   
    14    5   11 1   
    15    6   10 1   
    16    6   12 1   
    17    6   13 1   
    18    6   14 1   
    19   11   19 1   
    20   14   15 1   
    21   14   32 1   
    22   14   33 1   
    23   15   16 1   
    24   15   17 1   
    25   15   18 1   
    26   19   20 1   
    27   19   34 1   
    28   19   35 1   
    29   20   21 1   
    30   20   30 1   
    31   20   36 1   
    32   21   22 1   
    33   22   23 1   
    34   22   29 1   
    35   22   37 1   
    36   23   28 1   
    37   25   38 1   
    38   25   39 1   
    39   25   46 1   
    40   26   40 1   
    41   27   28 2   
    42   28   41 1   
    43   29   30 1   
    44   29   42 1   
    45   29   43 1   
    46   30   31 1   
    47   30   44 1   
    48   31   45 1   
@<TRIPOS>SUBSTRUCTURE
     1 GGH         1 TEMP              0 ****  ****    0 ROOT
