@<TRIPOS>MOLECULE
GGL
   17    16     1     0     0
SMALL
bcc


@<TRIPOS>ATOM
      1 N          -1.9610   -0.6890    0.6570 n3        1 GGL     -0.912800
      2 CA         -0.5390   -0.6890    0.6570 c3        1 GGL      0.034500
      3 C          -0.0350   -0.6890    2.0820 c         1 GGL      0.902600
      4 O          -0.4070    0.2100    2.8810 o         1 GGL     -0.867300
      5 CB         -0.0350    0.5450   -0.0560 c3        1 GGL     -0.067400
      6 CG          0.8210    0.1330   -1.2330 c3        1 GGL     -0.178400
      7 CD          1.3800    1.3670   -1.9070 c         1 GGL      0.902600
      8 OE1         0.7100    1.9570   -2.7950 o         1 GGL     -0.877800
      9 OE2         2.5140    1.8050   -1.5790 o         1 GGL     -0.877800
     10 OXT         0.7570   -1.5880    2.4690 o         1 GGL     -0.867300
     11 H          -2.2650   -1.0460   -0.1250 hn        1 GGL      0.328800
     12 H2         -2.2650   -1.1880    1.3570 hn        1 GGL      0.328800
     13 HA         -0.2130   -1.4860    0.1970 h1        1 GGL      0.034700
     14 HB2         0.4970    1.0830    0.5610 hc        1 GGL      0.044200
     15 HB3        -0.7940    1.0700   -0.3730 hc        1 GGL      0.044200
     16 HG2         0.2780   -0.3680   -1.8710 hc        1 GGL      0.014200
     17 HG3         1.5570   -0.4280   -0.9210 hc        1 GGL      0.014200
@<TRIPOS>BOND
     1    1    2 1   
     2    1   11 1   
     3    1   12 1   
     4    2    3 1   
     5    2    5 1   
     6    2   13 1   
     7    3    4 1   
     8    3   10 1   
     9    5    6 1   
    10    5   14 1   
    11    5   15 1   
    12    6    7 1   
    13    6   16 1   
    14    6   17 1   
    15    7    8 1   
    16    7    9 1   
@<TRIPOS>SUBSTRUCTURE
     1 GGL         1 TEMP              0 ****  ****    0 ROOT
