@<TRIPOS>MOLECULE
GGL
   17    16     1     0     0
SMALL
bcc


@<TRIPOS>ATOM
      1 N           1.2060    1.9340   -0.2470 n3        1 GGL     -0.912800
      2 CA          1.1010    0.6220    0.3820 c3        1 GGL      0.034500
      3 C           2.3580   -0.2690    0.1360 c         1 GGL      0.902600
      4 O           3.0570   -0.0790   -0.9060 o         1 GGL     -0.867300
      5 CB         -0.1580   -0.1740   -0.0010 c3        1 GGL     -0.067400
      6 CG         -1.4250    0.4410    0.5490 c3        1 GGL     -0.178400
      7 CD         -2.7040   -0.1820   -0.0220 c         1 GGL      0.902600
      8 OE1        -2.9260   -0.1210   -1.2690 o         1 GGL     -0.877800
      9 OE2        -3.5380   -0.6980    0.7850 o         1 GGL     -0.877800
     10 OXT         2.6500   -1.1370    1.0090 o         1 GGL     -0.867300
     11 H           2.0010    1.9280   -0.8660 hn        1 GGL      0.328800
     12 H2          0.3930    2.0980   -0.8150 hn        1 GGL      0.328800
     13 HA          1.0550    0.8160    1.4940 h1        1 GGL      0.034700
     14 HB2        -0.2400   -0.2560   -1.1160 hc        1 GGL      0.044200
     15 HB3        -0.0380   -1.2120    0.4060 hc        1 GGL      0.044200
     16 HG2        -1.4370    0.3390    1.6640 hc        1 GGL      0.014200
     17 HG3        -1.4600    1.5360    0.3100 hc        1 GGL      0.014200
@<TRIPOS>BOND
     1    1    2 1   
     2    1   11 1   
     3    1   12 1   
     4    2    3 1   
     5    2    5 1   
     6    2   13 1   
     7    3    4 1   
     8    3   10 1   
     9    5    6 1   
    10    5   14 1   
    11    5   15 1   
    12    6    7 1   
    13    6   16 1   
    14    6   17 1   
    15    7    8 1   
    16    7    9 1   
@<TRIPOS>SUBSTRUCTURE
     1 GGL         1 TEMP              0 ****  ****    0 ROOT
