@<TRIPOS>MOLECULE
GGO
   47    50     1     0     0
SMALL
bcc


@<TRIPOS>ATOM
      1 C5          1.9570    1.7410   -3.3940 c3        1 GGO      0.091000
      2 C6          3.4420    1.6920   -3.7770 c3        1 GGO     -0.062100
      3 C7          3.6030    1.9070   -5.2410 ca        1 GGO     -0.082300
      4 C8          3.2760    0.8800   -6.1300 ca        1 GGO     -0.126000
      5 C10         3.8970    2.2340   -7.9680 ca        1 GGO      0.054100
      6 C15         4.0970    3.1470   -5.7040 ca        1 GGO     -0.111000
      7 C20         1.3250    0.7810    2.2490 ca        1 GGO     -0.110300
      8 C21        -0.0280    0.8750    2.5780 ca        1 GGO     -0.123000
      9 C22        -0.4750    0.6460    3.8870 ca        1 GGO      0.085900
     10 C24         0.4630    0.3120    4.9020 ca        1 GGO      0.124900
     11 C26         1.8230    0.2150    4.5830 ca        1 GGO     -0.182000
     12 N           1.6830    3.5270    1.1690 n3        1 GGO     -0.900800
     13 C           1.3500    2.4060    0.3210 c3        1 GGO      0.164500
     14 C3          1.9720    2.5830   -1.0890 c3        1 GGO      0.095000
     15 N4          1.6770    1.5000   -1.9950 n         1 GGO     -0.466800
     16 C9          3.4160    1.0200   -7.5210 ca        1 GGO     -0.109000
     17 O           4.1370    2.6530   -9.2730 os        1 GGO     -0.333900
     18 C12         4.6400    4.0060   -9.1910 c3        1 GGO      0.321200
     19 O13         4.6900    4.3780   -7.7940 os        1 GGO     -0.335900
     20 C14         4.2330    3.2810   -7.0700 ca        1 GGO      0.054100
     21 C16         1.5200    0.1940   -1.5440 c         1 GGO      0.692500
     22 O17         1.5340   -0.7620   -2.3460 o         1 GGO     -0.639500
     23 C18         1.2330   -0.0570   -0.0790 c3        1 GGO     -0.140400
     24 C19         1.7820    1.0150    0.8460 c3        1 GGO     -0.065400
     25 F          -1.7900    0.7430    4.1860 f         1 GGO     -0.117900
     26 F25         0.0430    0.0880    6.1660 f         1 GGO     -0.114900
     27 C27         2.2500    0.4490    3.2650 ca        1 GGO      0.140900
     28 F28         3.5720    0.3520    2.9870 f         1 GGO     -0.128900
     29 H51         1.5430    2.7540   -3.6630 h1        1 GGO      0.068700
     30 H52         1.4080    0.9600   -3.9970 h1        1 GGO      0.068700
     31 H61         4.0110    2.4710   -3.2040 hc        1 GGO      0.057200
     32 H62         3.8650    0.6890   -3.4980 hc        1 GGO      0.057200
     33 H8          2.8960   -0.0740   -5.7310 ha        1 GGO      0.149000
     34 H15         4.3590    3.9570   -5.0130 ha        1 GGO      0.153000
     35 H21        -0.7690    1.1300    1.8020 ha        1 GGO      0.164000
     36 H26         2.5550   -0.0450    5.3640 ha        1 GGO      0.174000
     37 HN1         2.6740    3.6220    1.2760 hn        1 GGO      0.357300
     38 HN2         1.2620    3.4140    2.0710 hn        1 GGO      0.357300
     39 H           0.2230    2.4040    0.2150 h1        1 GGO      0.071700
     40 H31         1.5680    3.5360   -1.5380 h1        1 GGO      0.051700
     41 H32         3.0920    2.6970   -0.9880 h1        1 GGO      0.051700
     42 H9          3.1560    0.2070   -8.2100 ha        1 GGO      0.157000
     43 H121        5.6790    4.0270   -9.6020 h2        1 GGO      0.071700
     44 H122        3.9240    4.6860   -9.7150 h2        1 GGO      0.071700
     45 H181        0.1170   -0.1330    0.0310 hc        1 GGO      0.083200
     46 H182        1.6700   -1.0560    0.1890 hc        1 GGO      0.083200
     47 H19         2.9090    0.9660    0.8190 hc        1 GGO      0.076700
@<TRIPOS>BOND
     1    1    2 1   
     2    1   15 1   
     3    1   29 1   
     4    1   30 1   
     5    2    3 1   
     6    2   31 1   
     7    2   32 1   
     8    3    4 ar  
     9    3    6 ar  
    10    4   16 ar  
    11    4   33 1   
    12    5   16 ar  
    13    5   17 1   
    14    5   20 ar  
    15    6   20 ar  
    16    6   34 1   
    17    7    8 ar  
    18    7   24 1   
    19    7   27 ar  
    20    8    9 ar  
    21    8   35 1   
    22    9   10 ar  
    23    9   25 1   
    24   10   11 ar  
    25   10   26 1   
    26   11   27 ar  
    27   11   36 1   
    28   12   13 1   
    29   12   37 1   
    30   12   38 1   
    31   13   14 1   
    32   13   24 1   
    33   13   39 1   
    34   14   15 1   
    35   14   40 1   
    36   14   41 1   
    37   15   21 1   
    38   16   42 1   
    39   17   18 1   
    40   18   19 1   
    41   18   43 1   
    42   18   44 1   
    43   19   20 1   
    44   21   22 2   
    45   21   23 1   
    46   23   24 1   
    47   23   45 1   
    48   23   46 1   
    49   24   47 1   
    50   27   28 1   
@<TRIPOS>SUBSTRUCTURE
     1 GGO         1 TEMP              0 ****  ****    0 ROOT
