@<TRIPOS>MOLECULE
GGO
   47    45     1     0     0
SMALL
bcc


@<TRIPOS>ATOM
      1 C5          0.6240    0.8380    0.8590 c3        1 GGO     -0.021000
      2 C6          1.3390    0.1460    2.0000 c3        1 GGO     -0.141000
      3 C7          1.4490    1.0930    3.1740 c2        1 GGO     -0.076000
      4 C8          0.4870    1.0640    4.1810 c1        1 GGO     -0.131000
      5 C10         1.7750    2.6670    5.4520 c1        1 GGO      0.010000
      6 C15         2.5690    1.9050    3.3060 c2        1 GGO     -0.108000
      7 C20        -1.4740   -1.5580   -3.7570 c1        1 GGO     -0.077000
      8 C21        -1.6820   -2.9270   -3.6930 c1        1 GGO     -0.107000
      9 C22        -2.0060   -3.6330   -4.8410 c1        1 GGO      0.068500
     10 C24        -2.1220   -2.9700   -6.0520 c1        1 GGO      0.068500
     11 C26        -1.9140   -1.6020   -6.1160 c1        1 GGO     -0.182000
     12 N          -3.1980   -0.1590   -2.2540 n3        1 GGO     -0.333000
     13 C          -1.7600   -0.9060   -1.7360 c3        1 GGO     -0.034000
     14 C3         -1.4020   -0.3130   -0.3490 c3        1 GGO     -0.056000
     15 N4          0.1790   -0.1340   -0.0810 n         1 GGO     -0.334000
     16 C9          0.6460    1.8480    5.3180 c1        1 GGO     -0.113000
     17 O           2.2320    3.4920    6.5210 os        1 GGO     -0.218000
     18 C12         3.4620    4.0490    6.1440 c3        1 GGO      0.099000
     19 O13         3.7530    3.6060    4.8460 os        1 GGO     -0.215000
     20 C14         2.7310    2.6950    4.4520 c1        1 GGO      0.013000
     21 C16         1.0340   -0.8650   -0.6780 c2        1 GGO      0.308000
     22 O17         2.1080   -1.0910   -0.1580 o         1 GGO     -0.367000
     23 C18         0.5920   -1.6480   -1.6560 c3        1 GGO     -0.174000
     24 C19        -1.0490   -0.7950   -2.5110 c3        1 GGO     -0.065000
     25 F          -2.2160   -4.9540   -4.7770 f         1 GGO     -0.085500
     26 F25        -2.4360   -3.6520   -7.1610 f         1 GGO     -0.085500
     27 C27        -1.5900   -0.8960   -4.9680 c1        1 GGO      0.106000
     28 F28        -1.3870    0.4260   -5.0310 f         1 GGO     -0.099000
     29 H51         1.2390    1.4610    0.4180 h1        1 GGO      0.105500
     30 H52        -0.1470    1.3320    1.2080 h1        1 GGO      0.105500
     31 H61         2.2340   -0.1190    1.7100 hc        1 GGO      0.095500
     32 H62         0.8340   -0.6470    2.2670 hc        1 GGO      0.095500
     33 H8         -0.3020    0.4970    4.0870 ha        1 GGO      0.135000
     34 H15         3.2370    1.9360    2.5940 ha        1 GGO      0.165000
     35 H21        -1.6010   -3.3940   -2.8400 ha        1 GGO      0.159000
     36 H26        -1.9950   -1.1350   -6.9690 ha        1 GGO      0.171000
     37 HN1        -3.9150   -0.5860   -1.8800 hn        1 GGO      0.152500
     38 HN2        -3.1960    0.7180   -1.9950 hn        1 GGO      0.152500
     39 H          -1.9360   -1.8610   -1.6210 h1        1 GGO      0.110000
     40 H31        -1.8300    0.5630   -0.2690 h1        1 GGO      0.079500
     41 H32        -1.7680   -0.9010    0.3410 h1        1 GGO      0.079500
     42 H9         -0.0280    1.8280    6.0230 ha        1 GGO      0.155000
     43 H121        3.3860    5.0270    6.1420 h2        1 GGO      0.112000
     44 H122        4.1600    3.7320    6.7570 h2        1 GGO      0.112000
     45 H181        0.5150   -2.5700   -1.3350 hc        1 GGO      0.124500
     46 H182        1.2610   -1.7580   -2.3630 hc        1 GGO      0.124500
     47 H19        -0.8900    0.1500   -2.7100 hc        1 GGO      0.116000
@<TRIPOS>BOND
     1    1    2 1   
     2    1   15 1   
     3    1   29 1   
     4    1   30 1   
     5    2    3 1   
     6    2   31 1   
     7    2   32 1   
     8    3    4 1   
     9    3    6 1   
    10    4   33 1   
    11    5   16 1   
    12    5   17 1   
    13    6   20 1   
    14    6   34 1   
    15    7    8 1   
    16    7   24 1   
    17    8   35 1   
    18    9   10 1   
    19    9   25 1   
    20   10   26 1   
    21   11   27 1   
    22   11   36 1   
    23   12   13 1   
    24   12   37 1   
    25   12   38 1   
    26   13   14 1   
    27   13   24 1   
    28   13   39 1   
    29   14   15 1   
    30   14   40 1   
    31   14   41 1   
    32   15   21 1   
    33   16   42 1   
    34   17   18 1   
    35   18   19 1   
    36   18   43 1   
    37   18   44 1   
    38   19   20 1   
    39   21   22 1   
    40   21   23 1   
    41   23   24 1   
    42   23   45 1   
    43   23   46 1   
    44   24   47 1   
    45   27   28 1   
@<TRIPOS>SUBSTRUCTURE
     1 GGO         1 TEMP              0 ****  ****    0 ROOT
