@<TRIPOS>MOLECULE
GGO
   48    51     1     0     0
SMALL
bcc


@<TRIPOS>ATOM
      1 C5          0.0360   -0.0690    0.0110 c3        1 GGO      0.078000
      2 C6          1.5660    0.0110   -0.0180 c3        1 GGO     -0.054100
      3 C7          2.0980   -0.0060    1.3730 ca        1 GGO     -0.105300
      4 C8          2.0760    1.1630    2.1350 ca        1 GGO     -0.118000
      5 C10         3.0880    0.0310    3.9500 ca        1 GGO      0.071100
      6 C15         2.6290   -1.2090    1.8890 ca        1 GGO     -0.117000
      7 C20        -2.0550   -0.2040   -5.3870 ca        1 GGO     -0.171300
      8 C21        -3.3340    0.3390   -5.5100 ca        1 GGO     -0.110000
      9 C22        -4.0140    0.3240   -6.7390 ca        1 GGO      0.108900
     10 C24        -3.3910   -0.2440   -7.8870 ca        1 GGO      0.155900
     11 C26        -2.1090   -0.8020   -7.7720 ca        1 GGO     -0.163000
     12 N          -1.1970   -2.6390   -4.0260 nz        1 GGO     -0.836600
     13 C          -1.4370   -1.3830   -3.2420 c3        1 GGO      0.098500
     14 C3         -0.4380   -1.2940   -2.0550 c3        1 GGO      0.084000
     15 N4         -0.6140   -0.0920   -1.2880 n         1 GGO     -0.467800
     16 C9          2.5740    1.2090    3.4500 ca        1 GGO     -0.107000
     17 O           3.6420   -0.2200    5.1980 os        1 GGO     -0.323900
     18 C12         4.0370   -1.6130    5.2120 c3        1 GGO      0.320200
     19 O13         3.6850   -2.1830    3.9270 os        1 GGO     -0.333900
     20 C14         3.1150   -1.1620    3.1770 ca        1 GGO      0.061100
     21 C16        -0.8900    1.1210   -1.9380 c         1 GGO      0.681500
     22 O17        -0.6410    2.2070   -1.3960 o         1 GGO     -0.562500
     23 C18        -1.6350    1.0760   -3.2580 c3        1 GGO     -0.153400
     24 C19        -1.2720   -0.1230   -4.1170 c3        1 GGO     -0.021400
     25 F          -5.2510    0.8510   -6.8330 f         1 GGO     -0.089900
     26 F25        -4.0300   -0.2490   -9.0710 f         1 GGO     -0.083900
     27 C27        -1.4590   -0.7890   -6.5310 ca        1 GGO      0.096900
     28 F28        -0.2270   -1.3570   -6.4300 f         1 GGO     -0.151900
     29 H51        -0.2800   -0.9960    0.5680 h1        1 GGO      0.082200
     30 H52        -0.3600    0.8310    0.5680 h1        1 GGO      0.082200
     31 H61         1.9880   -0.8500   -0.6010 hc        1 GGO      0.053200
     32 H62         1.8820    0.9590   -0.5320 hc        1 GGO      0.053200
     33 H8          1.6610    2.0860    1.6990 ha        1 GGO      0.146000
     34 H15         2.6610   -2.1290    1.2930 ha        1 GGO      0.145000
     35 H21        -3.8390    0.8100   -4.6500 ha        1 GGO      0.175000
     36 H26        -1.6150   -1.2360   -8.6580 ha        1 GGO      0.194000
     37 HN1        -1.8790   -2.6920   -4.7920 hn        1 GGO      0.465133
     38 HN2        -1.2870   -3.4580   -3.4200 hn        1 GGO      0.465133
     39 H          -2.4970   -1.4410   -2.8510 hx        1 GGO      0.125700
     40 H31         0.6150   -1.3600   -2.4630 h1        1 GGO      0.060200
     41 H32        -0.6010   -2.1730   -1.3650 h1        1 GGO      0.060200
     42 H9          2.5540    2.1340    4.0410 ha        1 GGO      0.166000
     43 H121        3.4550   -2.1400    6.0070 h2        1 GGO      0.081700
     44 H122        5.1470   -1.6670    5.3350 h2        1 GGO      0.081700
     45 H181       -1.4070    2.0210   -3.8230 hc        1 GGO      0.106700
     46 H182       -2.7300    1.0840   -3.0050 hc        1 GGO      0.106700
     47 H19        -0.1770   -0.0260   -4.3930 hc        1 GGO      0.096700
     48 HN3        -0.2550   -2.6180   -4.4390 hn        1 GGO      0.465133
@<TRIPOS>BOND
     1    1    2 1   
     2    1   15 1   
     3    1   29 1   
     4    1   30 1   
     5    2    3 1   
     6    2   31 1   
     7    2   32 1   
     8    3    4 ar  
     9    3    6 ar  
    10    4   16 ar  
    11    4   33 1   
    12    5   16 ar  
    13    5   17 1   
    14    5   20 ar  
    15    6   20 ar  
    16    6   34 1   
    17    7    8 ar  
    18    7   24 1   
    19    7   27 ar  
    20    8    9 ar  
    21    8   35 1   
    22    9   10 ar  
    23    9   25 1   
    24   10   11 ar  
    25   10   26 1   
    26   11   27 ar  
    27   11   36 1   
    28   12   13 1   
    29   12   37 1   
    30   12   38 1   
    31   12   48 1   
    32   13   14 1   
    33   13   24 1   
    34   13   39 1   
    35   14   15 1   
    36   14   40 1   
    37   14   41 1   
    38   15   21 1   
    39   16   42 1   
    40   17   18 1   
    41   18   19 1   
    42   18   43 1   
    43   18   44 1   
    44   19   20 1   
    45   21   22 2   
    46   21   23 1   
    47   23   24 1   
    48   23   45 1   
    49   23   46 1   
    50   24   47 1   
    51   27   28 1   
@<TRIPOS>SUBSTRUCTURE
     1 GGO         1 TEMP              0 ****  ****    0 ROOT
