@<TRIPOS>MOLECULE
GGO
   48    51     1     0     0
SMALL
bcc


@<TRIPOS>ATOM
      1 C5          0.0410   -0.0540    0.0080 c3        1 GGO      0.078000
      2 C6          1.5720    0.0040   -0.0210 c3        1 GGO     -0.054100
      3 C7          2.1030   -0.0060    1.3690 ca        1 GGO     -0.105300
      4 C8          2.0970    1.1710    2.1210 ca        1 GGO     -0.118000
      5 C10         3.0920    0.0420    3.9470 ca        1 GGO      0.071100
      6 C15         2.6170   -1.2120    1.8970 ca        1 GGO     -0.117000
      7 C20        -2.0510   -0.2130   -5.3890 ca        1 GGO     -0.171300
      8 C21        -3.3220    0.3460   -5.5180 ca        1 GGO     -0.110000
      9 C22        -4.0030    0.3280   -6.7470 ca        1 GGO      0.108900
     10 C24        -3.3880   -0.2590   -7.8890 ca        1 GGO      0.155900
     11 C26        -2.1130   -0.8330   -7.7690 ca        1 GGO     -0.163000
     12 N          -1.2260   -2.6460   -4.0060 n4        1 GGO     -0.836600
     13 C          -1.4490   -1.3790   -3.2330 c3        1 GGO      0.098500
     14 C3         -0.4490   -1.2920   -2.0470 c3        1 GGO      0.084000
     15 N4         -0.6090   -0.0810   -1.2920 n         1 GGO     -0.467800
     16 C9          2.5940    1.2220    3.4350 ca        1 GGO     -0.107000
     17 O           3.6420   -0.2040    5.1980 os        1 GGO     -0.323900
     18 C12         4.0180   -1.6020    5.2250 c3        1 GGO      0.320200
     19 O13         3.6590   -2.1800    3.9450 os        1 GGO     -0.333900
     20 C14         3.1030   -1.1590    3.1860 ca        1 GGO      0.061100
     21 C16        -0.8700    1.1290   -1.9530 c         1 GGO      0.681500
     22 O17        -0.6060    2.2170   -1.4210 o         1 GGO     -0.562500
     23 C18        -1.6150    1.0810   -3.2730 c3        1 GGO     -0.153400
     24 C19        -1.2670   -0.1300   -4.1200 c3        1 GGO     -0.021400
     25 F          -5.2320    0.8710   -6.8460 f         1 GGO     -0.089900
     26 F25        -4.0260   -0.2660   -9.0740 f         1 GGO     -0.083900
     27 C27        -1.4630   -0.8170   -6.5280 ca        1 GGO      0.096900
     28 F28        -0.2380   -1.3990   -6.4210 f         1 GGO     -0.151900
     29 H51        -0.2880   -0.9720    0.5730 h1        1 GGO      0.082200
     30 H52        -0.3430    0.8560    0.5560 h1        1 GGO      0.082200
     31 H61         1.9820   -0.8670   -0.5970 hc        1 GGO      0.053200
     32 H62         1.9010    0.9430   -0.5440 hc        1 GGO      0.053200
     33 H8          1.6950    2.0950    1.6750 ha        1 GGO      0.146000
     34 H15         2.6370   -2.1380    1.3110 ha        1 GGO      0.145000
     35 H21        -3.8220    0.8310   -4.6630 ha        1 GGO      0.175000
     36 H26        -1.6240   -1.2810   -8.6500 ha        1 GGO      0.194000
     37 HN1        -1.3270   -3.4580   -3.3920 hn        1 GGO      0.465133
     38 HN2        -1.9090   -2.6970   -4.7710 hn        1 GGO      0.465133
     39 H          -2.5100   -1.4190   -2.8420 hx        1 GGO      0.125700
     40 H31         0.6030   -1.3760   -2.4550 h1        1 GGO      0.060200
     41 H32        -0.6240   -2.1630   -1.3490 h1        1 GGO      0.060200
     42 H9          2.5870    2.1530    4.0170 ha        1 GGO      0.166000
     43 H121        5.1270   -1.6710    5.3490 h2        1 GGO      0.081700
     44 H122        3.4290   -2.1140    6.0250 h2        1 GGO      0.081700
     45 H181       -1.3730    2.0180   -3.8470 hc        1 GGO      0.106700
     46 H182       -2.7090    1.1070   -3.0200 hc        1 GGO      0.106700
     47 H19        -0.1710   -0.0500   -4.3970 hc        1 GGO      0.096700
     48 HN3        -0.2830   -2.6420   -4.4180 hn        1 GGO      0.465133
@<TRIPOS>BOND
     1    1    2 1   
     2    1   15 1   
     3    1   29 1   
     4    1   30 1   
     5    2    3 1   
     6    2   31 1   
     7    2   32 1   
     8    3    4 ar  
     9    3    6 ar  
    10    4   16 ar  
    11    4   33 1   
    12    5   16 ar  
    13    5   17 1   
    14    5   20 ar  
    15    6   20 ar  
    16    6   34 1   
    17    7    8 ar  
    18    7   24 1   
    19    7   27 ar  
    20    8    9 ar  
    21    8   35 1   
    22    9   10 ar  
    23    9   25 1   
    24   10   11 ar  
    25   10   26 1   
    26   11   27 ar  
    27   11   36 1   
    28   12   13 1   
    29   12   37 1   
    30   12   38 1   
    31   12   48 1   
    32   13   14 1   
    33   13   24 1   
    34   13   39 1   
    35   14   15 1   
    36   14   40 1   
    37   14   41 1   
    38   15   21 1   
    39   16   42 1   
    40   17   18 1   
    41   18   19 1   
    42   18   43 1   
    43   18   44 1   
    44   19   20 1   
    45   21   22 2   
    46   21   23 1   
    47   23   24 1   
    48   23   45 1   
    49   23   46 1   
    50   24   47 1   
    51   27   28 1   
@<TRIPOS>SUBSTRUCTURE
     1 GGO         1 TEMP              0 ****  ****    0 ROOT
