@<TRIPOS>MOLECULE
GGO
   48    51     1     0     0
SMALL
bcc


@<TRIPOS>ATOM
      1 C5          0.0230   -0.0620    0.0120 c3        1 GGO      0.078000
      2 C6          1.5540    0.0160   -0.0110 c3        1 GGO     -0.054100
      3 C7          2.0800    0.0020    1.3810 ca        1 GGO     -0.105300
      4 C8          2.0550    1.1730    2.1410 ca        1 GGO     -0.118000
      5 C10         3.0610    0.0450    3.9620 ca        1 GGO      0.071100
      6 C15         2.6100   -1.2000    1.9020 ca        1 GGO     -0.117000
      7 C20        -2.0470   -0.2100   -5.3940 ca        1 GGO     -0.171300
      8 C21        -3.3240    0.3350   -5.5230 ca        1 GGO     -0.110000
      9 C22        -3.9990    0.3170   -6.7550 ca        1 GGO      0.108900
     10 C24        -3.3730   -0.2550   -7.8990 ca        1 GGO      0.155900
     11 C26        -2.0930   -0.8150   -7.7770 ca        1 GGO     -0.163000
     12 N          -1.1980   -2.6420   -4.0230 n4        1 GGO     -0.836600
     13 C          -1.4390   -1.3840   -3.2420 c3        1 GGO      0.098500
     14 C3         -0.4450   -1.2930   -2.0520 c3        1 GGO      0.084000
     15 N4         -0.6220   -0.0880   -1.2900 n         1 GGO     -0.467800
     16 C9          2.5480    1.2220    3.4580 ca        1 GGO     -0.107000
     17 O           3.6100   -0.2020    5.2130 os        1 GGO     -0.323900
     18 C12         4.0060   -1.5950    5.2310 c3        1 GGO      0.320200
     19 O13         3.6590   -2.1690    3.9460 os        1 GGO     -0.333900
     20 C14         3.0910   -1.1490    3.1920 ca        1 GGO      0.061100
     21 C16        -0.8940    1.1230   -1.9440 c         1 GGO      0.681500
     22 O17        -0.6440    2.2100   -1.4050 o         1 GGO     -0.562500
     23 C18        -1.6340    1.0750   -3.2670 c3        1 GGO     -0.153400
     24 C19        -1.2690   -0.1270   -4.1200 c3        1 GGO     -0.021400
     25 F          -5.2350    0.8460   -6.8550 f         1 GGO     -0.089900
     26 F25        -4.0070   -0.2620   -9.0860 f         1 GGO     -0.083900
     27 C27        -1.4470   -0.8000   -6.5340 ca        1 GGO      0.096900
     28 F28        -0.2170   -1.3690   -6.4260 f         1 GGO     -0.151900
     29 H51        -0.3740    0.8390    0.5650 h1        1 GGO      0.082200
     30 H52        -0.2960   -0.9890    0.5700 h1        1 GGO      0.082200
     31 H61         1.9770   -0.8470   -0.5910 hc        1 GGO      0.053200
     32 H62         1.8720    0.9620   -0.5270 hc        1 GGO      0.053200
     33 H8          1.6420    2.0950    1.7010 ha        1 GGO      0.146000
     34 H15         2.6440   -2.1210    1.3080 ha        1 GGO      0.145000
     35 H21        -3.8330    0.8090   -4.6670 ha        1 GGO      0.175000
     36 H26        -1.5950   -1.2520   -8.6600 ha        1 GGO      0.194000
     37 HN1        -0.2550   -2.6250   -4.4310 hn        1 GGO      0.465133
     38 HN2        -1.2930   -3.4590   -3.4140 hn        1 GGO      0.465133
     39 H          -2.5010   -1.4390   -2.8560 hx        1 GGO      0.125700
     40 H31        -0.6120   -2.1700   -1.3610 h1        1 GGO      0.060200
     41 H32         0.6100   -1.3620   -2.4560 h1        1 GGO      0.060200
     42 H9          2.5260    2.1490    4.0460 ha        1 GGO      0.166000
     43 H121        5.1150   -1.6490    5.3580 h2        1 GGO      0.081700
     44 H122        3.4220   -2.1210    6.0250 h2        1 GGO      0.081700
     45 H181       -2.7290    1.0860   -3.0180 hc        1 GGO      0.106700
     46 H182       -1.4010    2.0180   -3.8340 hc        1 GGO      0.106700
     47 H19        -0.1730   -0.0330   -4.3930 hc        1 GGO      0.096700
     48 HN3        -1.8780   -2.6970   -4.7900 hn        1 GGO      0.465133
@<TRIPOS>BOND
     1    1    2 1   
     2    1   15 1   
     3    1   29 1   
     4    1   30 1   
     5    2    3 1   
     6    2   31 1   
     7    2   32 1   
     8    3    4 ar  
     9    3    6 ar  
    10    4   16 ar  
    11    4   33 1   
    12    5   16 ar  
    13    5   17 1   
    14    5   20 ar  
    15    6   20 ar  
    16    6   34 1   
    17    7    8 ar  
    18    7   24 1   
    19    7   27 ar  
    20    8    9 ar  
    21    8   35 1   
    22    9   10 ar  
    23    9   25 1   
    24   10   11 ar  
    25   10   26 1   
    26   11   27 ar  
    27   11   36 1   
    28   12   13 1   
    29   12   37 1   
    30   12   38 1   
    31   12   48 1   
    32   13   14 1   
    33   13   24 1   
    34   13   39 1   
    35   14   15 1   
    36   14   40 1   
    37   14   41 1   
    38   15   21 1   
    39   16   42 1   
    40   17   18 1   
    41   18   19 1   
    42   18   43 1   
    43   18   44 1   
    44   19   20 1   
    45   21   22 2   
    46   21   23 1   
    47   23   24 1   
    48   23   45 1   
    49   23   46 1   
    50   24   47 1   
    51   27   28 1   
@<TRIPOS>SUBSTRUCTURE
     1 GGO         1 TEMP              0 ****  ****    0 ROOT
