@<TRIPOS>MOLECULE
GGS
   62    62     1     0     0
SMALL
bcc


@<TRIPOS>ATOM
      1 C1          0.0000    0.0000    0.0000 DU        1 GGS     -0.225000
      2 S1          1.8140    0.0000    0.0000 ss        1 GGS     -0.564000
      3 C2         -0.5020    0.0000    1.4210 c2        1 GGS     -0.389000
      4 C3         -1.1900    1.0190    1.8730 c2        1 GGS     -0.134000
      5 C4         -1.8150    0.9590    3.2430 c3        1 GGS     -0.046000
      6 C5         -1.3570    2.2530    1.0220 c3        1 GGS     -0.073000
      7 C6         -2.6790    2.1690    0.2560 c3        1 GGS     -0.101000
      8 C7         -2.8450    3.4020   -0.5940 c2        1 GGS     -0.512000
      9 C8         -3.9440    4.1100   -0.5140 c2        1 GGS     -0.108000
     10 C9         -4.0460    5.4280   -1.2380 c3        1 GGS     -0.034000
     11 PA          2.2910   -1.9950    0.5340 p5        1 GGS      1.227000
     12 PB          4.8710   -3.4040    0.9120 p5        1 GGS      1.025500
     13 C10        -5.1060    3.6070    0.3030 c3        1 GGS     -0.107000
     14 C11        -4.7170    5.2130   -2.5950 c3        1 GGS     -0.084000
     15 C12        -4.8210    6.5310   -3.3190 c2        1 GGS     -0.156000
     16 C13        -4.1940    6.7040   -4.4570 c2        1 GGS     -0.170000
     17 C14        -3.3430    5.5970   -5.0240 c3        1 GGS     -0.065000
     18 C15        -4.3250    8.0090   -5.1980 c3        1 GGS     -0.043000
     19 C16        -3.1530    8.9220   -4.8340 c3        1 GGS     -0.072000
     20 C17        -3.2850   10.2280   -5.5760 c2        1 GGS     -0.184000
     21 C18        -3.2870   11.3590   -4.9150 c2        1 GGS     -0.197000
     22 C19        -2.9520   11.3750   -3.4460 c3        1 GGS     -0.050000
     23 O1A         1.7220   -2.2980    1.8680 o         1 GGS     -0.582000
     24 O1B         4.3890   -4.6170    0.2160 o         1 GGS     -0.673167
     25 C20        -3.6250   12.6450   -5.6240 c3        1 GGS     -0.050000
     26 O2A         1.6720   -3.0060   -0.5560 o         1 GGS     -0.582000
     27 O2B         6.3620   -3.0540    0.4120 o         1 GGS     -0.673167
     28 O3A         3.8900   -2.1700    0.5820 os        1 GGS     -0.916000
     29 O3B         4.8870   -3.6660    2.5000 o         1 GGS     -0.673167
     30 H1         -0.3610   -0.8850   -0.5110 ha        1 GGS      0.086500
     31 H1A        -0.3610    0.8840   -0.5110 ha        1 GGS      0.086500
     32 H2          0.4180    0.5010    1.1460 DU        1 GGS      0.362000
     33 H4         -1.1760    0.3910    3.9070 hc        1 GGS      0.029667
     34 H4A        -1.9360    1.9640    3.6290 hc        1 GGS      0.029667
     35 H4B        -2.7840    0.4790    3.1770 hc        1 GGS      0.029667
     36 H5         -1.3620    3.1310    1.6570 hc        1 GGS      0.068500
     37 H5A        -0.5350    2.3210    0.3190 hc        1 GGS      0.068500
     38 H6         -3.5000    2.1020    0.9590 hc        1 GGS      0.041000
     39 H6A        -2.6730    1.2910   -0.3790 hc        1 GGS      0.041000
     40 H7         -3.2520    2.4480   -0.9060 ha        1 GGS      0.259000
     41 H9         -3.0540    5.8370   -1.3860 hc        1 GGS      0.050500
     42 H9A        -4.6370    6.1190   -0.6490 hc        1 GGS      0.050500
     43 H10        -5.3340    2.5870    0.0170 hc        1 GGS      0.036000
     44 H10A       -4.8490    3.6370    1.3550 hc        1 GGS      0.036000
     45 H10B       -5.9720    4.2340    0.1250 hc        1 GGS      0.036000
     46 H11        -5.7090    4.8040   -2.4470 hc        1 GGS      0.062000
     47 H11A       -4.1270    4.5230   -3.1850 hc        1 GGS      0.062000
     48 H12        -5.4320    7.3270   -2.9110 ha        1 GGS      0.090000
     49 H14        -2.9310    5.9100   -5.9760 hc        1 GGS      0.050333
     50 H14A       -3.9500    4.7120   -5.1670 hc        1 GGS      0.050333
     51 H14B       -2.5350    5.3740   -4.3370 hc        1 GGS      0.050333
     52 H15        -5.2570    8.4890   -4.9220 hc        1 GGS      0.044000
     53 H15A       -4.3190    7.8210   -6.2650 hc        1 GGS      0.044000
     54 H16        -2.2220    8.4430   -5.1110 hc        1 GGS      0.067000
     55 H16A       -3.1600    9.1110   -3.7670 hc        1 GGS      0.067000
     56 H17        -3.5250   10.2220   -6.6320 ha        1 GGS      0.094000
     57 H19        -2.0750   10.7640   -3.2690 hc        1 GGS      0.036667
     58 H19A       -2.7530   12.3920   -3.1310 hc        1 GGS      0.036667
     59 H19B       -3.7880   10.9790   -2.8810 hc        1 GGS      0.036667
     60 H20        -4.2760   12.4340   -6.4640 hc        1 GGS      0.036667
     61 H20A       -2.7140   13.1100   -5.9830 hc        1 GGS      0.036667
     62 H20B       -4.1270   13.3150   -4.9370 hc        1 GGS      0.036667
@<TRIPOS>BOND
     1    1    2 1   
     2    1    3 1   
     3    1   30 1   
     4    1   31 1   
     5    1   32 1   
     6    2   11 1   
     7    3    4 1   
     8    3   32 1   
     9    4    5 1   
    10    4    6 1   
    11    5   33 1   
    12    5   34 1   
    13    5   35 1   
    14    6    7 1   
    15    6   36 1   
    16    6   37 1   
    17    7    8 1   
    18    7   38 1   
    19    7   39 1   
    20    8    9 1   
    21    8   40 1   
    22    9   10 1   
    23    9   13 1   
    24   10   14 1   
    25   10   41 1   
    26   10   42 1   
    27   11   23 1   
    28   11   26 1   
    29   11   28 1   
    30   12   24 1   
    31   12   27 1   
    32   12   28 1   
    33   12   29 1   
    34   13   43 1   
    35   13   44 1   
    36   13   45 1   
    37   14   15 1   
    38   14   46 1   
    39   14   47 1   
    40   15   16 1   
    41   15   48 1   
    42   16   17 1   
    43   16   18 1   
    44   17   49 1   
    45   17   50 1   
    46   17   51 1   
    47   18   19 1   
    48   18   52 1   
    49   18   53 1   
    50   19   20 1   
    51   19   54 1   
    52   19   55 1   
    53   20   21 1   
    54   20   56 1   
    55   21   22 1   
    56   21   25 1   
    57   22   57 1   
    58   22   58 1   
    59   22   59 1   
    60   25   60 1   
    61   25   61 1   
    62   25   62 1   
@<TRIPOS>SUBSTRUCTURE
     1 GGS         1 TEMP              0 ****  ****    0 ROOT
