@<TRIPOS>MOLECULE
GGY
   59    61     1     0     0
SMALL
bcc


@<TRIPOS>ATOM
      1 C01         4.9840    0.6430   -3.0330 c3        1 GGY     -0.093100
      2 C02         4.3100    0.3820   -1.6960 c3        1 GGY      0.160300
      3 C03         5.3200    0.2840   -0.5970 c2        1 GGY     -0.109200
      4 C04         5.6670    1.2710    0.2280 c2        1 GGY     -0.252200
      5 C05         5.0680    2.6670    0.2230 c3        1 GGY      0.669100
      6 F06         3.7420    2.7220    0.5920 f         1 GGY     -0.243967
      7 F07         5.6870    3.5340    1.0900 f         1 GGY     -0.243967
      8 F08         5.1000    3.3220   -0.9850 f         1 GGY     -0.243967
      9 O09         3.6300   -0.8830   -1.8540 os        1 GGY     -0.335900
     10 C10         2.7250   -1.1730   -0.8440 ca        1 GGY      0.136100
     11 C11         1.6030   -0.3590   -0.6340 ca        1 GGY     -0.164000
     12 C12         0.6620   -0.7080    0.3410 cp        1 GGY      0.013000
     13 C13        -0.5100    0.1250    0.5920 cp        1 GGY     -0.239300
     14 C14        -1.7780   -0.4630    0.5890 ca        1 GGY     -0.039000
     15 C15        -2.9210    0.3060    0.8320 ca        1 GGY     -0.181300
     16 C16        -4.2400   -0.2650    0.8260 cc        1 GGY     -0.043100
     17 C17        -5.4270    0.4090    0.5970 cd        1 GGY     -0.131000
     18 C18        -6.5600   -0.4630    0.6700 cd        1 GGY     -0.104300
     19 C19        -7.9720   -0.0160    0.5250 c3        1 GGY      0.234100
     20 N20        -8.1840    0.9910   -0.5080 n3        1 GGY     -0.735600
     21 C21        -7.8230    0.5390   -1.8320 c3        1 GGY      0.154600
     22 C22        -9.5160    1.5520   -0.4500 c3        1 GGY      0.154600
     23 C23        -6.1820   -1.7620    0.9490 cc        1 GGY     -0.172100
     24 S24        -4.5310   -1.9050    1.1210 ss        1 GGY      0.000200
     25 C25        -2.7240    1.6850    1.0910 ca        1 GGY      0.470200
     26 N26        -1.5370    2.2900    1.1160 nb        1 GGY     -0.729000
     27 C27        -0.4110    1.5350    0.8560 ca        1 GGY      0.676200
     28 N28         0.8140    2.1820    0.8000 nh        1 GGY     -0.943500
     29 C29         0.8360   -1.8960    1.0690 ca        1 GGY     -0.142000
     30 C30         1.9360   -2.7160    0.8360 ca        1 GGY     -0.089000
     31 C31         2.8990   -2.3580   -0.1120 ca        1 GGY     -0.156600
     32 C32         4.1000   -3.2180   -0.3180 c         1 GGY      0.688700
     33 N33         3.8850   -4.4820   -0.8100 n         1 GGY     -0.663000
     34 O34         5.2540   -2.8420   -0.0280 o         1 GGY     -0.617100
     35 H011        5.7610   -0.1310   -3.2370 hc        1 GGY      0.057700
     36 H012        4.2250    0.6110   -3.8500 hc        1 GGY      0.057700
     37 H013        5.4600    1.6530   -3.0050 hc        1 GGY      0.057700
     38 H02         3.5540    1.1890   -1.4740 h1        1 GGY      0.061700
     39 H03         5.7840   -0.7200   -0.4920 ha        1 GGY      0.192000
     40 H04         6.4320    1.1380    1.0090 ha        1 GGY      0.168000
     41 H11         1.4590    0.5390   -1.2550 ha        1 GGY      0.162000
     42 H29         0.0950   -2.1770    1.8330 ha        1 GGY      0.144000
     43 H14        -1.8720   -1.5420    0.3840 ha        1 GGY      0.141000
     44 H25        -3.5910    2.3410    1.3000 h4        1 GGY      0.030100
     45 H17        -5.5180    1.4750    0.3710 ha        1 GGY      0.168000
     46 H191       -8.6220   -0.9270    0.3520 h1        1 GGY      0.038700
     47 H192       -8.2880    0.4410    1.5100 h1        1 GGY      0.038700
     48 H23        -6.8590   -2.6080    1.0490 h4        1 GGY      0.171000
     49 H211       -8.4730   -0.2990   -2.2080 h1        1 GGY      0.032867
     50 H212       -7.9070    1.4010   -2.5440 h1        1 GGY      0.032867
     51 H213       -6.7580    0.1850   -1.8150 h1        1 GGY      0.032867
     52 H221       -9.6820    1.9970    0.5650 h1        1 GGY      0.032867
     53 H222       -9.5970    2.3650   -1.2180 h1        1 GGY      0.032867
     54 H223      -10.3260    0.7950   -0.6460 h1        1 GGY      0.032867
     55 H281        1.6230    1.6190    0.9220 hn        1 GGY      0.429300
     56 H282        0.8720    3.1130    1.1440 hn        1 GGY      0.429300
     57 H30         2.0600   -3.6450    1.4130 ha        1 GGY      0.145000
     58 H331        2.9960   -4.7420   -1.1540 hn        1 GGY      0.313000
     59 H332        4.6630   -5.0570   -1.0220 hn        1 GGY      0.313000
@<TRIPOS>BOND
     1    1    2 1   
     2    1   35 1   
     3    1   36 1   
     4    1   37 1   
     5    2    3 1   
     6    2    9 1   
     7    2   38 1   
     8    3    4 2   
     9    3   39 1   
    10    4    5 1   
    11    4   40 1   
    12    5    6 1   
    13    5    7 1   
    14    5    8 1   
    15    9   10 1   
    16   10   11 ar  
    17   10   31 ar  
    18   11   12 ar  
    19   11   41 1   
    20   12   13 1   
    21   12   29 ar  
    22   13   14 ar  
    23   13   27 ar  
    24   14   15 ar  
    25   14   43 1   
    26   15   16 1   
    27   15   25 ar  
    28   16   17 2   
    29   16   24 1   
    30   17   18 1   
    31   17   45 1   
    32   18   19 1   
    33   18   23 2   
    34   19   20 1   
    35   19   46 1   
    36   19   47 1   
    37   20   21 1   
    38   20   22 1   
    39   21   49 1   
    40   21   50 1   
    41   21   51 1   
    42   22   52 1   
    43   22   53 1   
    44   22   54 1   
    45   23   24 1   
    46   23   48 1   
    47   25   26 ar  
    48   25   44 1   
    49   26   27 ar  
    50   27   28 1   
    51   28   55 1   
    52   28   56 1   
    53   29   30 ar  
    54   29   42 1   
    55   30   31 ar  
    56   30   57 1   
    57   31   32 1   
    58   32   33 1   
    59   32   34 2   
    60   33   58 1   
    61   33   59 1   
@<TRIPOS>SUBSTRUCTURE
     1 GGY         1 TEMP              0 ****  ****    0 ROOT
