@<TRIPOS>MOLECULE
GGY
   59    53     1     0     0
SMALL
bcc


@<TRIPOS>ATOM
      1 C01        -0.5960    0.5590    5.0810 c3        1 GGY     -0.211000
      2 C02         0.4280    1.6550    5.0790 c3        1 GGY      0.045000
      3 C03         0.1860    2.5780    6.2640 c2        1 GGY     -0.105000
      4 C04         0.9370    2.4260    7.4330 c1        1 GGY     -0.248000
      5 C05         2.0000    1.3340    7.5210 c2        1 GGY      0.451000
      6 F06         2.9540    1.5610    6.5990 f         1 GGY     -0.173000
      7 F07         2.5580    1.3420    8.7650 f         1 GGY     -0.173000
      8 F08         1.4350    0.1440    7.2960 f         1 GGY     -0.173000
      9 O09         0.3260    2.3950    3.8700 os        1 GGY     -0.218000
     10 C10         1.0940    1.8140    2.7470 c2        1 GGY      0.091000
     11 C11         0.5920    0.7200    2.0580 c2        1 GGY     -0.165000
     12 C12         1.2680    0.2310    0.9360 c1        1 GGY      0.012000
     13 C13         0.7440   -1.0440    0.2060 c1        1 GGY     -0.173000
     14 C14        -0.1300   -0.9240   -0.8470 c2        1 GGY     -0.037000
     15 C15        -0.5720   -2.0310   -1.4890 c1        1 GGY     -0.117000
     16 C16        -1.4680   -1.8910   -2.7240 c1        1 GGY     -0.364000
     17 C17        -1.1270   -2.2830   -4.0720 c1        1 GGY     -0.128000
     18 C18        -2.3690   -1.9330   -5.0250 c1        1 GGY     -0.128000
     19 C19        -2.4900   -2.3000   -6.5000 c2        1 GGY     -0.009000
     20 N20        -3.2180   -1.2690   -7.1950 n3        1 GGY     -0.262000
     21 C21        -2.2830   -0.4060   -7.8940 c3        1 GGY     -0.121000
     22 C22        -4.1260   -1.8870   -8.1640 c3        1 GGY     -0.121000
     23 C23        -3.4100   -1.3430   -4.2150 c1        1 GGY     -0.364000
     24 S24        -2.9030   -1.2880   -2.7500 ss        1 GGY      0.544000
     25 C25        -0.1460   -3.2740   -1.0870 c2        1 GGY      0.003000
     26 N26         0.7300   -3.3940   -0.0320 n1        1 GGY     -0.204000
     27 C27         1.1710   -2.2930    0.6080 c1        1 GGY      0.155000
     28 N28         2.0820   -2.4140    1.6530 n3        1 GGY     -0.341000
     29 C29         2.4320    0.8350    0.5140 c2        1 GGY     -0.141000
     30 C30         2.9390    1.9390    1.2090 c1        1 GGY     -0.089000
     31 C31         2.2700    2.4260    2.3220 c1        1 GGY     -0.136000
     32 C32         2.7420    3.7440    2.9970 c2        1 GGY      0.362000
     33 N33         3.9330    4.3660    2.5700 n         1 GGY     -0.423000
     34 O34         2.1350    4.1850    3.9700 o         1 GGY     -0.378000
     35 H011       -1.2670    0.7380    5.7820 hc        1 GGY      0.097000
     36 H012       -0.1540   -0.3010    5.2620 hc        1 GGY      0.097000
     37 H013       -1.0380    0.5210    4.2060 hc        1 GGY      0.097000
     38 H02         1.3270    1.2610    5.1480 h1        1 GGY      0.101000
     39 H03        -0.5080    3.2910    6.2070 ha        1 GGY      0.192000
     40 H04         0.7820    3.0180    8.1920 ha        1 GGY      0.169000
     41 H11        -0.1910    0.2350    2.4110 ha        1 GGY      0.162000
     42 H29         2.9130    0.4860   -0.2850 ha        1 GGY      0.145000
     43 H14        -0.3810   -0.0190   -1.1850 ha        1 GGY      0.142000
     44 H25        -0.4660   -4.0770   -1.5540 h4        1 GGY      0.164000
     45 H17        -0.2960   -2.7250   -4.3490 DU        1 GGY      0.168500
     46 H191       -2.9550   -3.1320   -6.5840 h4        1 GGY      0.079000
     47 H192       -1.5880   -2.3870   -6.8930 h4        1 GGY      0.079000
     48 H23        -4.2860   -1.0320   -4.5350 DU        1 GGY      0.168500
     49 H211       -1.7590    0.1030   -7.2440 h1        1 GGY      0.071667
     50 H212       -1.6780   -0.9550   -8.4440 h1        1 GGY      0.071667
     51 H213       -2.7800    0.2170   -8.4740 h1        1 GGY      0.071667
     52 H221       -4.7400   -2.4950   -7.6960 h1        1 GGY      0.071667
     53 H222       -4.6440   -1.1850   -8.6230 h1        1 GGY      0.071667
     54 H223       -3.6030   -2.3960   -8.8270 h1        1 GGY      0.071667
     55 H281        2.3840   -1.6710    2.0810 hn        1 GGY      0.224500
     56 H282        2.3760   -3.2370    1.9060 hn        1 GGY      0.224500
     57 H30         3.7700    2.3700    0.9080 ha        1 GGY      0.145000
     58 H331        4.2710    4.1810    1.7490 hn        1 GGY      0.226500
     59 H332        4.3910    4.9110    3.1390 hn        1 GGY      0.226500
@<TRIPOS>BOND
     1    1    2 1   
     2    1   35 1   
     3    1   36 1   
     4    1   37 1   
     5    2    3 1   
     6    2    9 1   
     7    2   38 1   
     8    3    4 1   
     9    3   39 1   
    10    4   40 1   
    11    5    6 1   
    12    5    7 1   
    13    5    8 1   
    14    9   10 1   
    15   10   11 1   
    16   10   31 1   
    17   11   12 1   
    18   11   41 1   
    19   12   29 1   
    20   13   14 1   
    21   13   27 1   
    22   14   15 1   
    23   14   43 1   
    24   15   25 1   
    25   16   17 1   
    26   16   24 1   
    27   17   18 1   
    28   18   23 1   
    29   19   20 1   
    30   19   46 1   
    31   19   47 1   
    32   20   21 1   
    33   20   22 1   
    34   21   49 1   
    35   21   50 1   
    36   21   51 1   
    37   22   52 1   
    38   22   53 1   
    39   22   54 1   
    40   23   24 1   
    41   25   26 1   
    42   25   44 1   
    43   27   28 1   
    44   28   55 1   
    45   28   56 1   
    46   29   30 1   
    47   29   42 1   
    48   30   57 1   
    49   31   32 1   
    50   32   33 1   
    51   32   34 1   
    52   33   58 1   
    53   33   59 1   
@<TRIPOS>SUBSTRUCTURE
     1 GGY         1 TEMP              0 ****  ****    0 ROOT
