@<TRIPOS>MOLECULE
GGY
   61    63     1     0     0
SMALL
bcc


@<TRIPOS>ATOM
      1 C01         0.1640    0.8040    0.8510 c3        1 GGY     -0.118100
      2 C02         1.5030    0.3690    0.2900 c3        1 GGY      0.169300
      3 C03         2.5540    0.3070    1.3590 c2        1 GGY     -0.117200
      4 C04         3.3820   -0.7170    1.5550 c2        1 GGY     -0.207200
      5 C05         3.4280   -1.9850    0.7130 c3        1 GGY      0.666100
      6 F06         3.5950   -1.7720   -0.6410 f         1 GGY     -0.236633
      7 F07         4.4530   -2.8300    1.0450 f         1 GGY     -0.236633
      8 F08         2.2960   -2.7600    0.7740 f         1 GGY     -0.236633
      9 O09         1.9530    1.3970   -0.6360 os        1 GGY     -0.333900
     10 C10         1.9240    1.1500   -1.9760 ca        1 GGY      0.249100
     11 C11         1.3360    0.0340   -2.5950 ca        1 GGY     -0.224000
     12 C12         1.4420   -0.1490   -3.9740 cp        1 GGY      0.102000
     13 C13         0.8810   -1.3320   -4.6130 cp        1 GGY     -0.294300
     14 C14         0.0220   -1.1840   -5.7080 ca        1 GGY     -0.003000
     15 C15        -0.5510   -2.3020   -6.3180 ca        1 GGY     -0.226300
     16 C16        -1.4540   -2.2040   -7.4330 cc        1 GGY     -0.040100
     17 C17        -1.5690   -3.1210   -8.4690 cd        1 GGY     -0.146000
     18 C18        -2.5740   -2.7300   -9.4050 cd        1 GGY     -0.217300
     19 C19        -2.8570   -3.4730  -10.6480 c3        1 GGY      0.201100
     20 N20        -3.8570   -4.5870  -10.4320 nx        1 GGY     -0.685400
     21 C21        -5.2350   -4.0510  -10.2920 c3        1 GGY      0.081600
     22 C22        -3.7880   -5.5770  -11.5370 c3        1 GGY      0.081600
     23 C23        -3.1760   -1.5340   -9.0340 cc        1 GGY     -0.169100
     24 S24        -2.5460   -0.9410   -7.6330 ss        1 GGY      0.176200
     25 C25        -0.2050   -3.5750   -5.7870 ca        1 GGY      0.502200
     26 N26         0.6210   -3.7710   -4.7680 nb        1 GGY     -0.719000
     27 C27         1.1870   -2.6640   -4.1520 ca        1 GGY      0.728200
     28 N28         2.0290   -2.8820   -3.0940 nv        1 GGY     -0.949500
     29 C29         2.0890    0.8340   -4.7580 ca        1 GGY     -0.159000
     30 C30         2.6340    1.9560   -4.1650 ca        1 GGY     -0.054000
     31 C31         2.5710    2.1330   -2.7700 ca        1 GGY     -0.271600
     32 C32         3.0810    3.3320   -2.1230 c         1 GGY      0.598700
     33 N33         4.5020    3.7240   -2.5390 nz        1 GGY     -0.769400
     34 O34         2.5920    4.0750   -1.2930 o         1 GGY     -0.383100
     35 H011        0.2280    1.8410    1.2600 hc        1 GGY      0.069367
     36 H012       -0.6120    0.7840    0.0500 hc        1 GGY      0.069367
     37 H013       -0.1390    0.1070    1.6710 hc        1 GGY      0.069367
     38 H02         1.4210   -0.6290   -0.2220 h1        1 GGY      0.072700
     39 H03         2.5930    1.1930    2.0190 ha        1 GGY      0.169000
     40 H04         4.1100   -0.7310    2.3860 ha        1 GGY      0.187000
     41 H11         0.7530   -0.6900   -2.0020 ha        1 GGY      0.178000
     42 H29         2.1530    0.6960   -5.8490 ha        1 GGY      0.166000
     43 H14        -0.2040   -0.1710   -6.0810 ha        1 GGY      0.142000
     44 H25        -0.6330   -4.4970   -6.2270 h4        1 GGY      0.031100
     45 H17        -0.9500   -4.0140   -8.5790 ha        1 GGY      0.164000
     46 H191       -1.9090   -3.9470  -11.0380 hx        1 GGY      0.107700
     47 H192       -3.2770   -2.7910  -11.4410 hx        1 GGY      0.107700
     48 H23        -3.9540   -1.0210   -9.6040 h4        1 GGY      0.188000
     49 H211       -5.5750   -3.6240  -11.2730 hx        1 GGY      0.105533
     50 H212       -5.2340   -3.2420   -9.5110 hx        1 GGY      0.105533
     51 H213       -5.9290   -4.8780   -9.9830 hx        1 GGY      0.105533
     52 H221       -3.9780   -5.0620  -12.5160 hx        1 GGY      0.105533
     53 H222       -4.5660   -6.3720  -11.3750 hx        1 GGY      0.105533
     54 H223       -2.7690   -6.0490  -11.5540 hx        1 GGY      0.105533
     55 H281        2.2760   -3.8090   -2.8330 hn        1 GGY      0.454800
     56 H282        2.5530   -2.1300   -2.7200 hn        1 GGY      0.454800
     57 H30         3.0970    2.7270   -4.8020 ha        1 GGY      0.135000
     58 H331        4.7830    4.5900   -2.0630 hn        1 GGY      0.464467
     59 H332        4.5500    3.8640   -3.5510 hn        1 GGY      0.464467
     60 H201       -3.6090   -5.0600   -9.5510 hn        1 GGY      0.451800
     61 H333        5.1480    2.9730   -2.2810 hn        1 GGY      0.464467
@<TRIPOS>BOND
     1    1    2 1   
     2    1   35 1   
     3    1   36 1   
     4    1   37 1   
     5    2    3 1   
     6    2    9 1   
     7    2   38 1   
     8    3    4 2   
     9    3   39 1   
    10    4    5 1   
    11    4   40 1   
    12    5    6 1   
    13    5    7 1   
    14    5    8 1   
    15    9   10 1   
    16   10   11 ar  
    17   10   31 ar  
    18   11   12 ar  
    19   11   41 1   
    20   12   13 1   
    21   12   29 ar  
    22   13   14 ar  
    23   13   27 ar  
    24   14   15 ar  
    25   14   43 1   
    26   15   16 1   
    27   15   25 ar  
    28   16   17 2   
    29   16   24 1   
    30   17   18 1   
    31   17   45 1   
    32   18   19 1   
    33   18   23 2   
    34   19   20 1   
    35   19   46 1   
    36   19   47 1   
    37   20   21 1   
    38   20   22 1   
    39   20   60 1   
    40   21   49 1   
    41   21   50 1   
    42   21   51 1   
    43   22   52 1   
    44   22   53 1   
    45   22   54 1   
    46   23   24 1   
    47   23   48 1   
    48   25   26 ar  
    49   25   44 1   
    50   26   27 ar  
    51   27   28 1   
    52   28   55 1   
    53   28   56 1   
    54   29   30 ar  
    55   29   42 1   
    56   30   31 ar  
    57   30   57 1   
    58   31   32 1   
    59   32   33 1   
    60   32   34 2   
    61   33   58 1   
    62   33   59 1   
    63   33   61 1   
@<TRIPOS>SUBSTRUCTURE
     1 GGY         1 TEMP              0 ****  ****    0 ROOT
