@<TRIPOS>MOLECULE
GGY
   62    64     1     0     0
SMALL
bcc


@<TRIPOS>ATOM
      1 C01         0.4140    1.5580    1.0040 c3        1 GGY     -0.112100
      2 C02         1.4340    0.7680    0.2010 c3        1 GGY      0.175300
      3 C03         2.6380    0.4560    1.0340 c2        1 GGY     -0.133200
      4 C04         3.3420   -0.6740    1.0730 c2        1 GGY     -0.187200
      5 C05         3.1660   -1.9110    0.2170 c3        1 GGY      0.671100
      6 F06         3.8740   -1.8790   -0.9720 f         1 GGY     -0.248633
      7 F07         3.5600   -3.0770    0.8090 f         1 GGY     -0.248633
      8 F08         1.8960   -2.1910   -0.2530 f         1 GGY     -0.248633
      9 O09         1.8370    1.6610   -0.8790 os        1 GGY     -0.389900
     10 C10         2.0870    1.1540   -2.1290 ca        1 GGY      0.205100
     11 C11         1.4610    0.0160   -2.6650 ca        1 GGY     -0.207000
     12 C12         1.7300   -0.3810   -3.9800 cp        1 GGY     -0.007000
     13 C13         1.0590   -1.5500   -4.5600 cp        1 GGY     -0.105300
     14 C14         0.1800   -1.3850   -5.6480 ca        1 GGY     -0.079000
     15 C15        -0.4540   -2.4920   -6.2260 ca        1 GGY     -0.036300
     16 C16        -1.3430   -2.3760   -7.3510 cc        1 GGY     -0.159100
     17 C17        -1.5230   -3.3500   -8.3330 cd        1 GGY     -0.081000
     18 C18        -2.4510   -2.9250   -9.3270 cd        1 GGY     -0.209300
     19 C19        -2.7340   -3.6870  -10.5640 c3        1 GGY      0.190100
     20 N20        -3.9840   -4.5280  -10.4880 n4        1 GGY     -0.682400
     21 C21        -5.2100   -3.6990  -10.6280 c3        1 GGY      0.079600
     22 C22        -3.9570   -5.5920  -11.5300 c3        1 GGY      0.079600
     23 C23        -2.9410   -1.6510   -9.0420 cc        1 GGY     -0.148100
     24 S24        -2.3010   -1.0340   -7.6670 ss        1 GGY      0.243200
     25 C25        -0.1740   -3.7730   -5.6650 ca        1 GGY      0.450200
     26 N26         0.6580   -3.9660   -4.6420 nb        1 GGY     -0.622000
     27 C27         1.2700   -2.8720   -4.1000 ca        1 GGY      0.454200
     28 N28         2.2000   -3.1480   -2.9880 n4        1 GGY     -0.822300
     29 C29         2.6250    0.3570   -4.7670 ca        1 GGY     -0.134000
     30 C30         3.2540    1.4820   -4.2400 ca        1 GGY     -0.012000
     31 C31         2.9910    1.8980   -2.9250 ca        1 GGY     -0.211600
     32 C32         3.7450    3.0610   -2.4380 c         1 GGY      0.572700
     33 N33         2.9870    4.0890   -1.6320 n4        1 GGY     -0.751400
     34 O34         4.9200    3.3230   -2.6350 o         1 GGY     -0.370100
     35 H011        0.8370    2.5360    1.3350 hc        1 GGY      0.076700
     36 H012       -0.4990    1.7490    0.3900 hc        1 GGY      0.076700
     37 H013        0.1260    0.9660    1.9090 hc        1 GGY      0.076700
     38 H02         0.9600   -0.1610   -0.2100 h1        1 GGY      0.076700
     39 H03         2.9240    1.2720    1.7290 ha        1 GGY      0.176000
     40 H04         4.1790   -0.8000    1.7900 ha        1 GGY      0.207000
     41 H11         0.7240   -0.5450   -2.0690 ha        1 GGY      0.170000
     42 H29         2.8400    0.0500   -5.8050 ha        1 GGY      0.182000
     43 H14         0.0040   -0.3690   -6.0430 ha        1 GGY      0.176000
     44 H25        -0.6510   -4.6910   -6.0660 h4        1 GGY      0.070100
     45 H17        -0.9960   -4.3080   -8.3670 ha        1 GGY      0.172000
     46 H191       -2.8550   -2.9820  -11.4380 hx        1 GGY      0.116200
     47 H192       -1.8720   -4.3840  -10.7840 hx        1 GGY      0.116200
     48 H23        -3.6510   -1.1020   -9.6690 h4        1 GGY      0.204000
     49 H211       -5.1860   -2.8740   -9.8680 hx        1 GGY      0.110533
     50 H212       -6.1160   -4.3430  -10.4610 hx        1 GGY      0.110533
     51 H213       -5.2540   -3.2600  -11.6620 hx        1 GGY      0.110533
     52 H221       -4.9120   -6.1820  -11.4820 hx        1 GGY      0.110533
     53 H222       -3.8600   -5.1220  -12.5460 hx        1 GGY      0.110533
     54 H223       -3.0850   -6.2760  -11.3470 hx        1 GGY      0.110533
     55 H281        1.6870   -3.5540   -2.1890 hn        1 GGY      0.481133
     56 H282        2.6520   -2.2750   -2.6790 hn        1 GGY      0.481133
     57 H30         3.9760    2.0480   -4.8590 ha        1 GGY      0.192000
     58 H331        2.2020    4.4550   -2.1800 hn        1 GGY      0.480133
     59 H332        3.6130    4.8660   -1.3760 hn        1 GGY      0.480133
     60 H201       -4.0090   -4.9800   -9.5640 hn        1 GGY      0.448800
     61 H283        2.9210   -3.8200   -3.2890 hn        1 GGY      0.481133
     62 H333        2.6150    3.6550   -0.7750 hn        1 GGY      0.480133
@<TRIPOS>BOND
     1    1    2 1   
     2    1   35 1   
     3    1   36 1   
     4    1   37 1   
     5    2    3 1   
     6    2    9 1   
     7    2   38 1   
     8    3    4 2   
     9    3   39 1   
    10    4    5 1   
    11    4   40 1   
    12    5    6 1   
    13    5    7 1   
    14    5    8 1   
    15    9   10 1   
    16   10   11 ar  
    17   10   31 ar  
    18   11   12 ar  
    19   11   41 1   
    20   12   13 1   
    21   12   29 ar  
    22   13   14 ar  
    23   13   27 ar  
    24   14   15 ar  
    25   14   43 1   
    26   15   16 1   
    27   15   25 ar  
    28   16   17 2   
    29   16   24 1   
    30   17   18 1   
    31   17   45 1   
    32   18   19 1   
    33   18   23 2   
    34   19   20 1   
    35   19   46 1   
    36   19   47 1   
    37   20   21 1   
    38   20   22 1   
    39   20   60 1   
    40   21   49 1   
    41   21   50 1   
    42   21   51 1   
    43   22   52 1   
    44   22   53 1   
    45   22   54 1   
    46   23   24 1   
    47   23   48 1   
    48   25   26 ar  
    49   25   44 1   
    50   26   27 ar  
    51   27   28 1   
    52   28   55 1   
    53   28   56 1   
    54   28   61 1   
    55   29   30 ar  
    56   29   42 1   
    57   30   31 ar  
    58   30   57 1   
    59   31   32 1   
    60   32   33 1   
    61   32   34 2   
    62   33   58 1   
    63   33   59 1   
    64   33   62 1   
@<TRIPOS>SUBSTRUCTURE
     1 GGY         1 TEMP              0 ****  ****    0 ROOT
