@<TRIPOS>MOLECULE
GGY
   61    63     1     0     0
SMALL
bcc


@<TRIPOS>ATOM
      1 C01         0.1540    0.7870    0.8570 c3        1 GGY     -0.118100
      2 C02         1.4940    0.3560    0.2960 c3        1 GGY      0.169300
      3 C03         2.5440    0.2940    1.3650 c2        1 GGY     -0.117200
      4 C04         3.3740   -0.7290    1.5600 c2        1 GGY     -0.207200
      5 C05         3.4230   -1.9950    0.7140 c3        1 GGY      0.666100
      6 F06         3.5900   -1.7780   -0.6390 f         1 GGY     -0.236633
      7 F07         4.4500   -2.8390    1.0440 f         1 GGY     -0.236633
      8 F08         2.2920   -2.7720    0.7720 f         1 GGY     -0.236633
      9 O09         1.9430    1.3890   -0.6260 os        1 GGY     -0.333900
     10 C10         1.9160    1.1460   -1.9680 ca        1 GGY      0.249100
     11 C11         1.3300    0.0300   -2.5900 ca        1 GGY     -0.224000
     12 C12         1.4380   -0.1490   -3.9700 cp        1 GGY      0.102000
     13 C13         0.8790   -1.3300   -4.6130 cp        1 GGY     -0.294300
     14 C14         0.0210   -1.1810   -5.7090 ca        1 GGY     -0.003000
     15 C15        -0.5510   -2.2980   -6.3220 ca        1 GGY     -0.226300
     16 C16        -1.4520   -2.1970   -7.4380 cc        1 GGY     -0.040100
     17 C17        -1.5640   -3.1110   -8.4760 cd        1 GGY     -0.146000
     18 C18        -2.5690   -2.7190   -9.4130 cd        1 GGY     -0.217300
     19 C19        -2.8490   -3.4590  -10.6580 c3        1 GGY      0.201100
     20 N20        -3.8490   -4.5750  -10.4460 n4        1 GGY     -0.685400
     21 C21        -5.2280   -4.0400  -10.3060 c3        1 GGY      0.081600
     22 C22        -3.7770   -5.5620  -11.5540 c3        1 GGY      0.081600
     23 C23        -3.1730   -1.5250   -9.0390 cc        1 GGY     -0.169100
     24 S24        -2.5460   -0.9350   -7.6360 ss        1 GGY      0.176200
     25 C25        -0.2040   -3.5720   -5.7930 ca        1 GGY      0.502200
     26 N26         0.6210   -3.7690   -4.7740 nb        1 GGY     -0.719000
     27 C27         1.1850   -2.6630   -4.1550 ca        1 GGY      0.728200
     28 N28         2.0270   -2.8840   -3.0970 nh        1 GGY     -0.949500
     29 C29         2.0840    0.8370   -4.7500 ca        1 GGY     -0.159000
     30 C30         2.6270    1.9590   -4.1540 ca        1 GGY     -0.054000
     31 C31         2.5630    2.1310   -2.7580 ca        1 GGY     -0.271600
     32 C32         3.0700    3.3290   -2.1080 c         1 GGY      0.598700
     33 N33         4.4910    3.7250   -2.5210 n4        1 GGY     -0.769400
     34 O34         2.5800    4.0690   -1.2750 o         1 GGY     -0.383100
     35 H011       -0.1480    0.0880    1.6740 hc        1 GGY      0.069367
     36 H012       -0.6220    0.7680    0.0550 hc        1 GGY      0.069367
     37 H013        0.2160    1.8230    1.2700 hc        1 GGY      0.069367
     38 H02         1.4150   -0.6390   -0.2200 h1        1 GGY      0.072700
     39 H03         2.5820    1.1780    2.0270 ha        1 GGY      0.169000
     40 H04         4.1010   -0.7440    2.3910 ha        1 GGY      0.187000
     41 H11         0.7470   -0.6960   -1.9990 ha        1 GGY      0.178000
     42 H29         2.1490    0.7030   -5.8420 ha        1 GGY      0.166000
     43 H14        -0.2060   -0.1670   -6.0790 ha        1 GGY      0.142000
     44 H25        -0.6300   -4.4930   -6.2370 h4        1 GGY      0.031100
     45 H17        -0.9450   -4.0040   -8.5880 ha        1 GGY      0.164000
     46 H191       -1.9000   -3.9310  -11.0480 hx        1 GGY      0.107700
     47 H192       -3.2690   -2.7750  -11.4500 hx        1 GGY      0.107700
     48 H23        -3.9510   -1.0120   -9.6080 h4        1 GGY      0.188000
     49 H211       -5.9210   -4.8690  -10.0010 hx        1 GGY      0.105533
     50 H212       -5.2280   -3.2340   -9.5230 hx        1 GGY      0.105533
     51 H213       -5.5670   -3.6110  -11.2870 hx        1 GGY      0.105533
     52 H221       -4.5550   -6.3570  -11.3950 hx        1 GGY      0.105533
     53 H222       -2.7580   -6.0320  -11.5710 hx        1 GGY      0.105533
     54 H223       -3.9680   -5.0440  -12.5310 hx        1 GGY      0.105533
     55 H281        2.2750   -3.8110   -2.8370 hn        1 GGY      0.454800
     56 H282        2.5490   -2.1320   -2.7200 hn        1 GGY      0.454800
     57 H30         3.0900    2.7320   -4.7880 ha        1 GGY      0.135000
     58 H331        4.7710    4.5880   -2.0410 hn        1 GGY      0.464467
     59 H332        5.1380    2.9730   -2.2660 hn        1 GGY      0.464467
     60 H201       -3.6020   -5.0500   -9.5660 hn        1 GGY      0.451800
     61 H333        4.5390    3.8690   -3.5320 hn        1 GGY      0.464467
@<TRIPOS>BOND
     1    1    2 1   
     2    1   35 1   
     3    1   36 1   
     4    1   37 1   
     5    2    3 1   
     6    2    9 1   
     7    2   38 1   
     8    3    4 2   
     9    3   39 1   
    10    4    5 1   
    11    4   40 1   
    12    5    6 1   
    13    5    7 1   
    14    5    8 1   
    15    9   10 1   
    16   10   11 ar  
    17   10   31 ar  
    18   11   12 ar  
    19   11   41 1   
    20   12   13 1   
    21   12   29 ar  
    22   13   14 ar  
    23   13   27 ar  
    24   14   15 ar  
    25   14   43 1   
    26   15   16 1   
    27   15   25 ar  
    28   16   17 2   
    29   16   24 1   
    30   17   18 1   
    31   17   45 1   
    32   18   19 1   
    33   18   23 2   
    34   19   20 1   
    35   19   46 1   
    36   19   47 1   
    37   20   21 1   
    38   20   22 1   
    39   20   60 1   
    40   21   49 1   
    41   21   50 1   
    42   21   51 1   
    43   22   52 1   
    44   22   53 1   
    45   22   54 1   
    46   23   24 1   
    47   23   48 1   
    48   25   26 ar  
    49   25   44 1   
    50   26   27 ar  
    51   27   28 1   
    52   28   55 1   
    53   28   56 1   
    54   29   30 ar  
    55   29   42 1   
    56   30   31 ar  
    57   30   57 1   
    58   31   32 1   
    59   32   33 1   
    60   32   34 2   
    61   33   58 1   
    62   33   59 1   
    63   33   61 1   
@<TRIPOS>SUBSTRUCTURE
     1 GGY         1 TEMP              0 ****  ****    0 ROOT
