@<TRIPOS>MOLECULE
GGZ
   41    39     1     0     0
SMALL
bcc


@<TRIPOS>ATOM
      1 C2          5.0960    0.5290    2.8900 c1        1 GGZ     -0.022000
      2 C4          3.3050    0.5980    1.3880 c1        1 GGZ      0.048000
      3 C5          4.0830    1.4910    0.5430 c2        1 GGZ     -0.206000
      4 C6          5.3270    1.8530    0.9190 c1        1 GGZ      0.168000
      5 C8          2.1130    1.1760   -0.4620 c1        1 GGZ      0.004000
      6 N1          5.8480    1.3860    2.0800 n2        1 GGZ     -0.274000
      7 O3P        -2.5040    3.3210    1.2580 oh        1 GGZ     -0.820000
      8 P1         -2.4410    1.6760    1.5340 p5        1 GGZ      2.582000
      9 O2'        -1.2470    1.3490    2.0110 os        1 GGZ     -0.720000
     10 O1P        -3.6500    1.4830    2.4520 o         1 GGZ     -1.069000
     11 O3'        -2.4410    0.8910    0.1440 os        1 GGZ     -0.717000
     12 C3'        -1.0000    0.4400   -0.0840 c3        1 GGZ      0.007000
     13 C4'        -0.8270   -1.1420    0.2250 c3        1 GGZ     -0.009000
     14 C5'        -1.1500   -1.9560   -1.0230 c3        1 GGZ      0.050000
     15 O5'        -2.4710   -2.4610   -0.9310 os        1 GGZ     -0.745000
     16 P2         -3.2070   -2.9810   -2.3020 p5        1 GGZ      2.080000
     17 O4P        -3.2910   -1.8890   -3.2440 o         1 GGZ     -0.888500
     18 O5P        -2.4080   -4.1100   -2.9020 o         1 GGZ     -0.888500
     19 O6P        -4.6610   -3.4930   -1.9590 os        1 GGZ     -1.267000
     20 S2         -5.8420   -3.0230   -2.8400 s4        1 GGZ      2.228800
     21 OS3        -6.0900   -1.5070   -2.6820 o         1 GGZ     -0.730900
     22 OS2        -5.5970   -3.3900   -4.2930 os        1 GGZ     -1.092000
     23 OS1        -7.1760   -3.5970   -2.3390 o         1 GGZ     -0.730900
     24 C2'        -0.3130    1.0410    0.7470 c3        1 GGZ      0.003000
     25 C1'         0.8330    0.0420    1.1400 c3        1 GGZ      0.143000
     26 O4'         0.3990   -1.3100    0.5590 os        1 GGZ     -0.293000
     27 N9          1.9630    0.4210    0.6240 n1        1 GGZ     -0.182000
     28 N7          3.2340    1.7600   -0.5330 n2        1 GGZ     -0.173000
     29 N6          6.3540    2.7440    0.4010 n2        1 GGZ     -0.326000
     30 N3          3.8170    0.1510    2.5100 n1        1 GGZ     -0.180000
     31 H2          5.3610    0.1780    3.7130 ha        1 GGZ      0.166000
     32 H8          1.2820    1.5850   -0.9330 ha        1 GGZ      0.317000
     33 HO3P       -3.3030    3.5910    1.3440 ho        1 GGZ      0.348000
     34 H3'        -0.6990    0.6600   -1.0320 h1        1 GGZ      0.210000
     35 H4'        -1.4440   -1.4220    0.9990 h1        1 GGZ      0.121000
     36 H5'1       -0.5160   -2.7050   -1.1000 h1        1 GGZ      0.063500
     37 H5'2       -1.0790   -1.3940   -1.7990 h1        1 GGZ      0.063500
     38 H2'         0.0670    1.8980    0.3560 h1        1 GGZ      0.183000
     39 H1'         0.9090   -0.0170    2.1080 h2        1 GGZ      0.144000
     40 HN61        7.0610    3.0850    1.0040 hn        1 GGZ      0.201500
     41 HN62        6.3070    3.0490   -0.4900 hn        1 GGZ      0.201500
@<TRIPOS>BOND
     1    1    6 1   
     2    1   31 1   
     3    2    3 1   
     4    2   30 1   
     5    3    4 1   
     6    3   28 1   
     7    4    6 1   
     8    5   28 1   
     9    5   32 1   
    10    7    8 1   
    11    7   33 1   
    12    8    9 1   
    13    8   10 1   
    14    8   11 1   
    15    9   24 1   
    16   11   12 1   
    17   12   13 1   
    18   12   24 1   
    19   12   34 1   
    20   13   14 1   
    21   13   26 1   
    22   13   35 1   
    23   14   15 1   
    24   14   36 1   
    25   14   37 1   
    26   15   16 1   
    27   16   17 1   
    28   16   18 1   
    29   16   19 1   
    30   19   20 1   
    31   20   21 1   
    32   20   23 1   
    33   24   25 1   
    34   24   38 1   
    35   25   26 1   
    36   25   27 1   
    37   25   39 1   
    38   29   40 1   
    39   29   41 1   
@<TRIPOS>SUBSTRUCTURE
     1 GGZ         1 TEMP              0 ****  ****    0 ROOT
