@<TRIPOS>MOLECULE
GGZ
   41    43     1     0     0
SMALL
bcc


@<TRIPOS>ATOM
      1 C2          1.2130    1.5770   -0.1360 c1        1 GGZ      0.141400
      2 C4          0.2940    0.3440    1.7480 c2        1 GGZ      0.178800
      3 C5          1.6540    0.2170    2.2560 ce        1 GGZ      0.171100
      4 C6          2.7220    0.7930    1.4730 ce        1 GGZ      0.546600
      5 C8          2.1510   -0.9130    4.4910 c1        1 GGZ      0.355800
      6 N1          2.4720    1.4580    0.2990 ne        1 GGZ     -0.771700
      7 P1         -4.7690    1.7980    3.9940 p5        1 GGZ      1.570500
      8 O2'        -3.3880    1.0490    3.7680 os        1 GGZ     -0.620200
      9 O1P        -5.7790    1.4120    4.9660 o         1 GGZ     -0.772300
     10 O3'        -5.2100    1.8710    2.4350 os        1 GGZ     -0.577200
     11 C3'        -4.2150    1.3620    1.5630 c3        1 GGZ      0.130400
     12 C4'        -3.0770   -2.0130    2.4380 c3        1 GGZ      0.332900
     13 C5'        -4.3270   -2.7440    1.8960 c3        1 GGZ      0.154400
     14 O5'        -4.8170   -3.6770    2.8080 os        1 GGZ     -0.577200
     15 P2         -4.6030   -5.2630    2.4220 p5        1 GGZ      1.546800
     16 O4P        -4.8300   -6.1110    3.5930 o         1 GGZ     -0.820500
     17 O5P        -5.1130   -5.4920    1.0670 o         1 GGZ     -0.820500
     18 O6P        -2.9370   -4.9820    2.2490 os        1 GGZ     -0.780100
     19 S2         -1.5530   -4.3360    2.1360 s6        1 GGZ      1.995000
     20 OS3        -1.1400   -4.3280    0.8340 o         1 GGZ     -0.721800
     21 OS2        -1.9230   -2.8030    2.6030 os        1 GGZ     -0.651500
     22 OS1        -0.7100   -4.8060    3.1060 o         1 GGZ     -0.721800
     23 C2'        -2.9240    1.1760    2.3910 c3        1 GGZ      0.157800
     24 C1'        -2.0860    0.0880    1.8730 c2        1 GGZ     -0.123400
     25 O4'        -2.7000   -1.0710    1.4400 os        1 GGZ     -0.407400
     26 N9         -0.7960   -0.0760    2.4590 nh        1 GGZ     -0.243300
     27 N7          1.9000   -0.4100    3.4530 n1        1 GGZ     -1.045500
     28 N6          4.0410    0.7320    1.9440 nh        1 GGZ     -0.489100
     29 N3          0.1470    1.0380    0.5450 nh        1 GGZ     -0.241600
     30 H2         -0.7760    1.0790    0.1540 hn        1 GGZ      0.327700
     31 H8         -0.6770   -0.8390    3.0970 hn        1 GGZ      0.279700
     32 HO3P       -3.3540    3.4740    3.9090 ho        1 GGZ      0.456000
     33 H3'        -4.0640    2.1030    0.7360 h1        1 GGZ      0.069700
     34 H4'        -4.5680    0.3880    1.1260 h1        1 GGZ      0.069700
     35 H5'1       -5.1160   -1.9550    1.7480 h1        1 GGZ      0.046200
     36 H5'2       -4.1020   -3.2320    0.9080 h1        1 GGZ      0.046200
     37 H2'        -3.2730   -1.5410    3.4410 h2        1 GGZ      0.072700
     38 H1'        -2.3310    2.1380    2.3920 h1        1 GGZ      0.021700
     39 HN61        4.2580   -0.0660    2.4960 hn        1 GGZ      0.239700
     40 HN62        4.7410    0.9530    1.2710 hn        1 GGZ      0.239700
     41 O3P        -4.2290    3.2950    4.2370 oh        1 GGZ     -0.765400
@<TRIPOS>BOND
     1    1    6 2   
     2    1   29 2   
     3    2    3 2   
     4    2   26 1   
     5    2   29 1   
     6    3    4 1   
     7    3   27 1   
     8    4    6 1   
     9    4   28 2   
    10    5   27 3   
    11    7    8 1   
    12    7    9 2   
    13    7   10 1   
    14    7   41 1   
    15    8   23 1   
    16   10   11 1   
    17   11   23 1   
    18   11   33 1   
    19   11   34 1   
    20   12   13 1   
    21   12   21 1   
    22   12   25 1   
    23   12   37 1   
    24   13   14 1   
    25   13   35 1   
    26   13   36 1   
    27   14   15 1   
    28   15   16 1   
    29   15   17 1   
    30   15   18 1   
    31   18   19 1   
    32   19   20 2   
    33   19   21 1   
    34   19   22 2   
    35   23   24 1   
    36   23   38 1   
    37   24   25 1   
    38   24   26 2   
    39   26   31 1   
    40   28   39 1   
    41   28   40 1   
    42   29   30 1   
    43   32   41 1   
@<TRIPOS>SUBSTRUCTURE
     1 GGZ         1 TEMP              0 ****  ****    0 ROOT
