@<TRIPOS>MOLECULE
GGZ
   41    41     1     0     0
SMALL
bcc


@<TRIPOS>ATOM
      1 C2          0.3090    2.0670   -0.6280 c1        1 GGZ     -0.068000
      2 C4          0.0920    1.0750    1.5840 c2        1 GGZ      0.235000
      3 C5          1.5240    1.3020    1.7620 c2        1 GGZ     -0.251000
      4 C6          2.2460    1.9290    0.6800 c2        1 GGZ      0.199000
      5 C8          2.7100    0.6540    3.9280 c1        1 GGZ      0.019000
      6 N1          1.6180    2.2930   -0.4850 n2        1 GGZ     -0.333000
      7 P1         -4.3810    1.8340    4.8630 p5        1 GGZ      2.561000
      8 O2'        -2.9650    1.7680    4.1430 os        1 GGZ     -0.783000
      9 O1P        -4.6770    1.2700    6.1680 o         1 GGZ     -1.040000
     10 O3'        -5.2650    1.3840    3.5840 os        1 GGZ     -0.734000
     11 C3'        -4.4900    1.0540    2.4470 c3        1 GGZ     -0.015000
     12 C4'        -2.5250   -1.8250    1.6080 c3        1 GGZ     -0.078000
     13 C5'        -2.8920   -3.1970    2.1020 c2        1 GGZ      0.265000
     14 O5'        -3.3280   -4.0370    1.2880 o         1 GGZ     -0.460000
     15 P2         -3.9940   -6.0670    0.7780 p3        1 GGZ      2.679000
     16 O4P        -5.4210   -5.7920    0.7170 o         1 GGZ     -1.108500
     17 O5P        -3.1150   -6.3090   -0.3540 o         1 GGZ     -1.108500
     18 O6P        -3.4540   -6.5220    2.1520 os        1 GGZ     -1.248000
     19 S2         -2.7950   -6.7970    3.7360 s6        1 GGZ      2.983000
     20 OS3        -1.7350   -7.6460    3.4760 o         1 GGZ     -1.077333
     21 OS2        -2.4700   -5.4890    4.0730 o         1 GGZ     -1.077333
     22 OS1        -3.8640   -7.3640    4.4050 o         1 GGZ     -1.077333
     23 C2'        -3.0180    1.4180    2.7400 c3        1 GGZ      0.127000
     24 C1'        -2.0840    0.3490    2.3180 c2        1 GGZ     -0.411000
     25 O4'        -2.4780   -0.9410    2.7310 os        1 GGZ     -0.239000
     26 N9         -0.6960    0.5670    2.5630 n7        1 GGZ     -0.170000
     27 N7          2.1460    0.9400    2.9310 n2        1 GGZ     -0.227000
     28 N6          3.6040    2.2280    0.8330 n8        1 GGZ     -0.339000
     29 N3         -0.4480    1.4760    0.3570 n7        1 GGZ     -0.228000
     30 H2         -1.4160    1.2740    0.1940 hn        1 GGZ      0.273000
     31 H8         -0.2760    0.1850    3.3820 hn        1 GGZ      0.213000
     32 HO3P       -4.1040    3.8820    4.1390 ho        1 GGZ      0.254000
     33 H3'        -4.8880    1.6410    1.5770 h1        1 GGZ      0.105500
     34 H4'        -4.6130   -0.0430    2.2330 h1        1 GGZ      0.105500
     35 H5'1       -3.2730   -1.4520    0.8590 h1        1 GGZ      0.095000
     36 H5'2       -2.7450   -3.4500    3.1780 h4        1 GGZ      0.187000
     37 H2'        -1.5180   -1.8790    1.1140 h1        1 GGZ      0.095000
     38 H1'        -2.7290    2.3680    2.1980 h1        1 GGZ      0.078000
     39 HN61        4.1160    1.6320    1.4400 hn        1 GGZ      0.195500
     40 HN62        4.0880    2.4720   -0.0020 hn        1 GGZ      0.195500
     41 O3P        -4.5890    3.4290    4.8210 oh        1 GGZ     -0.794000
@<TRIPOS>BOND
     1    1    6 1   
     2    1   29 1   
     3    2    3 1   
     4    2   26 1   
     5    2   29 1   
     6    3    4 1   
     7    3   27 1   
     8    4    6 1   
     9    4   28 1   
    10    5   27 1   
    11    7    8 1   
    12    7    9 1   
    13    7   10 1   
    14    7   41 1   
    15    8   23 1   
    16   10   11 1   
    17   11   23 1   
    18   11   33 1   
    19   11   34 1   
    20   12   13 1   
    21   12   25 1   
    22   12   35 1   
    23   12   37 1   
    24   13   14 1   
    25   13   36 1   
    26   15   16 1   
    27   15   17 1   
    28   15   18 1   
    29   18   19 1   
    30   19   20 1   
    31   19   21 1   
    32   19   22 1   
    33   23   24 1   
    34   23   38 1   
    35   24   25 1   
    36   24   26 1   
    37   26   31 1   
    38   28   39 1   
    39   28   40 1   
    40   29   30 1   
    41   32   41 1   
@<TRIPOS>SUBSTRUCTURE
     1 GGZ         1 TEMP              0 ****  ****    0 ROOT
