@<TRIPOS>MOLECULE
GGZ
   41    44     1     0     0
SMALL
bcc


@<TRIPOS>ATOM
      1 C2          0.5660    2.7560   -2.7440 ca        1 GGZ      0.669900
      2 C4          1.4630    1.9150   -0.8430 ca        1 GGZ      0.455800
      3 C5          2.6550    2.7240   -1.0670 ca        1 GGZ     -0.199200
      4 C6          2.7720    3.4040   -2.3240 ca        1 GGZ      0.751200
      5 C8          2.9820    1.6760    0.8080 cc        1 GGZ      0.402700
      6 N1          1.6620    3.4500   -3.1410 nb        1 GGZ     -0.808000
      7 P1         -0.5200   -3.1540    0.1720 p5        1 GGZ      1.583500
      8 O2'        -0.5600   -1.5540   -0.0290 os        1 GGZ     -0.544200
      9 O1P        -1.2370   -3.7330    1.3030 o         1 GGZ     -0.818300
     10 O3'         1.0580   -3.3460    0.0180 os        1 GGZ     -0.541200
     11 C3'         1.7420   -2.1630   -0.3790 c3        1 GGZ      0.075100
     12 C4'         2.7860   -1.7540    0.6690 c3        1 GGZ      0.086100
     13 C5'         4.0410   -1.1380    0.0120 c3        1 GGZ      0.201400
     14 O5'         4.7890   -2.1100   -0.6180 os        1 GGZ     -0.570200
     15 P2          4.9230   -1.9940   -2.2890 p5        1 GGZ      1.594800
     16 O4P         5.7180   -3.1620   -2.6960 o         1 GGZ     -0.872000
     17 O5P         3.5100   -1.7830   -2.6930 o         1 GGZ     -0.872000
     18 O6P         5.7210   -0.6150   -2.4380 os        1 GGZ     -0.827100
     19 S2          6.6560    0.7310   -2.7730 s6        1 GGZ      1.818300
     20 OS3         7.1900    0.4790   -4.0360 o         1 GGZ     -0.787867
     21 OS2         5.7510    1.8050   -2.7610 o         1 GGZ     -0.787867
     22 OS1         7.5810    0.7680   -1.7320 o         1 GGZ     -0.787867
     23 C2'         0.6990   -1.0070   -0.3740 c3        1 GGZ      0.104100
     24 C1'         1.1530   -0.0500    0.7800 c3        1 GGZ      0.243800
     25 O4'         2.1420   -0.7780    1.5220 os        1 GGZ     -0.446600
     26 N9          1.6860    1.2380    0.3800 na        1 GGZ     -0.295000
     27 N7          3.5530    2.5730    0.0040 nd        1 GGZ     -0.507100
     28 N6          3.9600    4.0360   -2.6570 nh        1 GGZ     -0.893500
     29 N3          0.3730    1.9580   -1.6650 nb        1 GGZ     -0.750000
     30 H2         -0.3000    2.8220   -3.4350 h5        1 GGZ      0.025100
     31 H8          3.4190    1.2700    1.7290 h5        1 GGZ      0.078800
     32 HO3P       -1.8930   -4.3830   -0.9740 ho        1 GGZ      0.463000
     33 H3'         2.2480   -2.3340   -1.3940 h1        1 GGZ      0.229700
     34 H4'         3.0620   -2.6020    1.3450 h1        1 GGZ      0.094700
     35 H5'1        4.6500   -0.6750    0.8410 h1        1 GGZ      0.032200
     36 H5'2        3.7320   -0.3370   -0.7180 h1        1 GGZ      0.032200
     37 H2'         0.6150   -0.5060   -1.3740 h1        1 GGZ      0.144700
     38 H1'         0.3050    0.1390    1.5020 h2        1 GGZ      0.089700
     39 HN61        4.7690    3.5720   -2.2600 hn        1 GGZ      0.438800
     40 HN62        4.0750    4.2170   -3.6320 hn        1 GGZ      0.438800
     41 O3P        -1.1990   -3.7520   -1.1470 oh        1 GGZ     -0.747400
@<TRIPOS>BOND
     1    1    6 ar  
     2    1   29 ar  
     3    1   30 1   
     4    2    3 ar  
     5    2   26 1   
     6    2   29 ar  
     7    3    4 ar  
     8    3   27 1   
     9    4    6 ar  
    10    4   28 1   
    11    5   26 1   
    12    5   27 2   
    13    5   31 1   
    14    7    8 1   
    15    7    9 2   
    16    7   10 1   
    17    7   41 1   
    18    8   23 1   
    19   10   11 1   
    20   11   12 1   
    21   11   23 1   
    22   11   33 1   
    23   12   13 1   
    24   12   25 1   
    25   12   34 1   
    26   13   14 1   
    27   13   35 1   
    28   13   36 1   
    29   14   15 1   
    30   15   16 1   
    31   15   17 1   
    32   15   18 1   
    33   18   19 1   
    34   19   20 1   
    35   19   21 1   
    36   19   22 1   
    37   23   24 1   
    38   23   37 1   
    39   24   25 1   
    40   24   26 1   
    41   24   38 1   
    42   28   39 1   
    43   28   40 1   
    44   32   41 1   
@<TRIPOS>SUBSTRUCTURE
     1 GGZ         1 TEMP              0 ****  ****    0 ROOT
