@<TRIPOS>MOLECULE
GHA
   38    38     1     0     0
SMALL
bcc


@<TRIPOS>ATOM
      1 C1          0.0000    0.0000    0.0000 c3        1 GHA      0.119100
      2 O1         -0.4970    1.1720   -0.6490 oh        1 GHA     -0.659800
      3 C2          1.5420    0.0000    0.0000 c3        1 GHA      0.132100
      4 O2          2.0420   -1.1710   -0.6480 oh        1 GHA     -0.625800
      5 C3          1.9430    0.0000    1.4910 c3        1 GHA      0.057800
      6 N4          0.7720   -0.5820    2.1940 n3        1 GHA     -0.504600
      7 C5         -0.4010   -0.0010    1.4910 c3        1 GHA      0.076500
      8 C6         -1.6420   -0.8690    1.7090 c3        1 GHA      0.220400
      9 O6         -1.4140   -2.1710    1.1650 oh        1 GHA     -0.570800
     10 C7          0.7720   -0.0200    3.5510 c3        1 GHA      0.108800
     11 C8          1.9920   -0.5350    4.3170 c3        1 GHA      0.140100
     12 O8          3.1820   -0.0110    3.7230 oh        1 GHA     -0.662800
     13 C9          1.9070   -0.0820    5.7760 c3        1 GHA      0.163100
     14 C10         3.1270   -0.5970    6.5410 c3        1 GHA      0.182400
     15 O10         3.2220   -2.0150    6.3880 oh        1 GHA     -0.574800
     16 O9          0.7170   -0.6070    6.3680 os        1 GHA     -0.464500
     17 S9          0.1670    0.5390    7.4360 s6        1 GHA     -0.073700
     18 O11        -0.3600    1.6800    8.5210 o         1 GHA     -0.582867
     19 O12         0.0520    1.9980    6.6680 o         1 GHA     -0.582867
     20 O13        -1.3210    0.0960    8.0020 o         1 GHA     -0.582867
     21 H1         -0.3730   -0.8930   -0.4870 h1        1 GHA      0.001700
     22 HO1        -0.7970    0.9480   -1.5140 ho        1 GHA      0.291000
     23 H2          1.9150    0.8930   -0.4870 h1        1 GHA     -0.032300
     24 HO2         2.7640   -0.9370   -1.2070 ho        1 GHA      0.295000
     25 H31         2.5140    0.8910    1.7240 h1        1 GHA      0.030700
     26 H32         2.5140   -0.8910    1.7240 h1        1 GHA      0.030700
     27 H5         -0.5780    1.0120    1.8320 h1        1 GHA      0.031700
     28 H61        -2.4500   -0.5090    1.0830 h1        1 GHA     -0.026800
     29 H62        -1.9410   -0.8180    2.7490 h1        1 GHA     -0.026800
     30 HO6        -2.2290   -2.6430    1.1270 ho        1 GHA      0.334000
     31 H71         1.2700    0.9420    3.5440 h1        1 GHA      0.033200
     32 H72        -0.2500    0.1050    3.8900 h1        1 GHA      0.033200
     33 H8          2.0140   -1.6170    4.2750 h1        1 GHA      0.034700
     34 HO8         3.0410    0.8890    3.4780 ho        1 GHA      0.376000
     35 H9          1.8840    1.0000    5.8170 h1        1 GHA      0.044700
     36 H101        4.0040   -0.5340    5.9080 h1        1 GHA     -0.036800
     37 H102        3.2780    0.0060    7.4280 h1        1 GHA     -0.036800
     38 H10         3.9420   -2.3390    6.9030 ho        1 GHA      0.310000
@<TRIPOS>BOND
     1    1    2 1   
     2    1    3 1   
     3    1    7 1   
     4    1   21 1   
     5    2   22 1   
     6    3    4 1   
     7    3    5 1   
     8    3   23 1   
     9    4   24 1   
    10    5    6 1   
    11    5   25 1   
    12    5   26 1   
    13    6    7 1   
    14    6   10 1   
    15    7    8 1   
    16    7   27 1   
    17    8    9 1   
    18    8   28 1   
    19    8   29 1   
    20    9   30 1   
    21   10   11 1   
    22   10   31 1   
    23   10   32 1   
    24   11   12 1   
    25   11   13 1   
    26   11   33 1   
    27   12   34 1   
    28   13   14 1   
    29   13   16 1   
    30   13   35 1   
    31   14   15 1   
    32   14   36 1   
    33   14   37 1   
    34   15   38 1   
    35   16   17 1   
    36   17   18 1   
    37   17   19 1   
    38   17   20 1   
@<TRIPOS>SUBSTRUCTURE
     1 GHA         1 TEMP              0 ****  ****    0 ROOT
