@<TRIPOS>MOLECULE
GHC
   50    47     1     0     0
SMALL
bcc


@<TRIPOS>ATOM
      1 C4         -3.7980    4.2330   -0.8420 c1        1 GHC     -0.258000
      2 C5         -2.3890    3.9930   -0.8490 c1        1 GHC     -0.208000
      3 C6         -1.5910    4.3070   -2.0600 c1        1 GHC      0.377000
      4 C13        -3.5110    3.1590    2.8590 c3        1 GHC     -0.110000
      5 N1         -2.2250    4.8420   -3.2040 n3        1 GHC     -0.341000
      6 N2         -4.2940    5.6010   -4.3500 n3        1 GHC     -0.313000
      7 C3         -3.1580    3.2900    1.3940 c2        1 GHC     -0.385000
      8 N3         -4.4380    4.7770   -2.0060 n1        1 GHC     -0.214000
      9 C29        -4.6740    2.2030    3.0150 c3        1 GHC     -0.226000
     10 S4         -4.3520    3.8060    0.5600 ss        1 GHC      0.634000
     11 C2         -3.6540    5.0840   -3.1940 c2        1 GHC      0.181000
     12 O6         -0.3860    4.1480   -2.0530 o         1 GHC     -0.346000
     13 C1         -1.9720    3.3890    0.5780 c1        1 GHC     -0.216000
     14 SAT        -0.2560    3.1580    0.9610 s         1 GHC      0.417000
     15 CAZ         0.1670    1.4460    0.7720 c2        1 GHC     -0.326000
     16 CAJ        -0.7620    0.4650    1.0830 c2        1 GHC     -0.092000
     17 CAL        -0.4140   -0.8730    0.9890 c1        1 GHC     -0.114000
     18 CAI         1.4430    1.0890    0.3670 c1        1 GHC     -0.086000
     19 CAK         1.7910   -0.2500    0.2730 c1        1 GHC     -0.125000
     20 CBA         0.8620   -1.2310    0.5840 c1        1 GHC     -0.049000
     21 CAX         1.2540   -2.6890    0.5190 c2        1 GHC      0.317000
     22 OAE         0.4570   -3.5470    0.8420 o         1 GHC     -0.405000
     23 NAS         2.5600   -3.0550    0.1040 n         1 GHC     -0.277000
     24 CAP         3.0450   -4.3650    0.3590 c3        1 GHC     -0.077000
     25 CAW         3.4220   -4.4890    1.8180 c2        1 GHC      0.321000
     26 OAG         4.0290   -3.5470    2.3930 o         1 GHC     -0.586000
     27 OAD         3.1220   -5.5290    2.4600 o         1 GHC     -0.586000
     28 CBG         4.2620   -4.6280   -0.5000 c3        1 GHC     -0.131000
     29 CAN         4.3630   -6.1090   -0.7910 c3        1 GHC     -0.212000
     30 CAV         5.7700   -6.4400   -1.2410 c2        1 GHC      0.324000
     31 OAF         6.5360   -7.0930   -0.4840 o         1 GHC     -0.608000
     32 OAC         6.1660   -6.0840   -2.3820 o         1 GHC     -0.608000
     33 H13        -3.7600    4.0360    3.2140 hc        1 GHC      0.116500
     34 H13A       -2.7390    2.8150    3.3510 hc        1 GHC      0.116500
     35 HN1        -1.7340    5.0470   -3.9440 hn        1 GHC      0.241000
     36 HN2        -3.8130    5.7370   -5.1160 hn        1 GHC      0.189500
     37 HN2A       -5.1910    5.7760   -4.3370 hn        1 GHC      0.189500
     38 H29        -4.4500    1.5230    3.6830 hc        1 GHC      0.085333
     39 H29A       -4.8570    1.7690    2.1550 hc        1 GHC      0.085333
     40 H29B       -5.4670    2.6990    3.3060 hc        1 GHC      0.085333
     41 HAJ        -1.6610    0.7170    1.3680 ha        1 GHC      0.130000
     42 HAL        -1.0680   -1.5640    1.2080 ha        1 GHC      0.156000
     43 HAI         2.0970    1.7790    0.1480 ha        1 GHC      0.135000
     44 HAK         2.6960   -0.5010    0.0060 ha        1 GHC      0.165000
     45 HNAS        3.0950   -2.4440   -0.3120 hn        1 GHC      0.223000
     46 HAP         2.3490   -5.0170    0.1460 h1        1 GHC      0.110000
     47 HBG         4.1800   -4.1360   -1.3410 hc        1 GHC      0.091500
     48 HBGA        5.0650   -4.3330   -0.0270 hc        1 GHC      0.091500
     49 HAN         4.1520   -6.6160    0.0180 hc        1 GHC      0.059000
     50 HANA        3.7300   -6.3460   -1.4990 hc        1 GHC      0.059000
@<TRIPOS>BOND
     1    1    2 1   
     2    1   10 1   
     3    2   13 1   
     4    3    5 1   
     5    3   12 1   
     6    4    7 1   
     7    4    9 1   
     8    4   33 1   
     9    4   34 1   
    10    5   11 1   
    11    5   35 1   
    12    6   11 1   
    13    6   36 1   
    14    6   37 1   
    15    7   10 1   
    16    7   13 1   
    17    8   11 1   
    18    9   38 1   
    19    9   39 1   
    20    9   40 1   
    21   14   15 1   
    22   15   16 1   
    23   15   18 1   
    24   16   17 1   
    25   16   41 1   
    26   17   42 1   
    27   18   43 1   
    28   19   20 1   
    29   19   44 1   
    30   20   21 1   
    31   21   22 1   
    32   21   23 1   
    33   23   24 1   
    34   23   45 1   
    35   24   25 1   
    36   24   28 1   
    37   24   46 1   
    38   25   26 1   
    39   25   27 1   
    40   28   29 1   
    41   28   47 1   
    42   28   48 1   
    43   29   30 1   
    44   29   49 1   
    45   29   50 1   
    46   30   31 1   
    47   30   32 1   
@<TRIPOS>SUBSTRUCTURE
     1 GHC         1 TEMP              0 ****  ****    0 ROOT
