@<TRIPOS>MOLECULE
GHC
   50    52     1     0     0
SMALL
bcc


@<TRIPOS>ATOM
      1 C4          5.3250    0.8520   -0.2880 cc        1 GHC      0.167300
      2 C5          4.5350   -0.2820   -0.5880 cd        1 GHC     -0.232600
      3 C6          5.1770   -1.4290   -1.2100 c         1 GHC      0.739100
      4 N1          6.5720   -1.2920   -1.4420 n         1 GHC     -0.502400
      5 C3          2.9740    1.1470    0.3490 cc        1 GHC     -0.121400
      6 N3          6.6800    0.9490   -0.5280 nc        1 GHC     -0.646100
      7 C29         1.5060    1.4700    2.3310 c3        1 GHC     -0.089100
      8 S4          4.3970    2.0540    0.4100 ss        1 GHC      0.050200
      9 C2          7.2600   -0.1080   -1.1230 cd        1 GHC      0.628800
     10 O6          4.6750   -2.5130   -1.5520 o         1 GHC     -0.614500
     11 C1          3.1510   -0.1040   -0.2200 cd        1 GHC      0.026900
     12 SAT         2.1010   -1.3630   -0.5530 ss        1 GHC     -0.026800
     13 CAZ         0.5420   -1.0090    0.0230 ca        1 GHC     -0.106100
     14 CAJ         0.1380   -1.5450    1.2530 ca        1 GHC     -0.094000
     15 CAL        -1.1780   -1.4040    1.6830 ca        1 GHC     -0.119000
     16 CAI        -0.3920   -0.3300   -0.7680 ca        1 GHC     -0.094000
     17 CAK        -1.7120   -0.1750   -0.3410 ca        1 GHC     -0.119000
     18 CBA        -2.1000   -0.7150    0.8900 ca        1 GHC     -0.087600
     19 CAX        -3.5050   -0.4900    1.3850 c         1 GHC      0.655700
     20 OAE        -3.6730    0.0540    2.5030 o         1 GHC     -0.656100
     21 NAS        -4.5100   -0.9730    0.5980 n         1 GHC     -0.479900
     22 CAP        -5.8690   -0.4630    0.6330 c3        1 GHC     -0.037300
     23 CAW        -6.9060   -1.6090    0.3730 c         1 GHC      0.917600
     24 OAG        -7.9720   -1.5690    1.0500 o         1 GHC     -0.849800
     25 OAD        -6.6450   -2.4970   -0.4870 o         1 GHC     -0.849800
     26 CBG        -6.1010    0.6380   -0.4180 c3        1 GHC     -0.074400
     27 CAN        -5.3300    1.9130   -0.1500 c3        1 GHC     -0.192400
     28 CAV        -4.6020    2.4460   -1.3880 c         1 GHC      0.909600
     29 OAF        -4.9690    3.5540   -1.8810 o         1 GHC     -0.874800
     30 OAC        -3.6250    1.7880   -1.8680 o         1 GHC     -0.874800
     31 H13         1.8430    2.9020    0.7500 hc        1 GHC      0.069200
     32 H13A        0.8600    1.4660    0.2670 hc        1 GHC      0.069200
     33 HN1         7.0300   -2.0220   -1.9410 hn        1 GHC      0.326500
     34 HN2         9.1610   -0.8280   -1.1980 hn        1 GHC      0.393800
     35 HN2A        9.0650    0.8240   -1.2230 hn        1 GHC      0.393800
     36 H29         1.3290    0.3750    2.4660 hc        1 GHC      0.038033
     37 H29A        2.3770    1.7720    2.9610 hc        1 GHC      0.038033
     38 H29B        0.5990    2.0180    2.6840 hc        1 GHC      0.038033
     39 HAJ         0.8670   -2.0820    1.8770 ha        1 GHC      0.132500
     40 HAL        -1.4980   -1.8160    2.6520 ha        1 GHC      0.193500
     41 HAI        -0.0890    0.0930   -1.7390 ha        1 GHC      0.132500
     42 HAK        -2.4460    0.4010   -0.9590 ha        1 GHC      0.193500
     43 HNAS       -4.2650   -1.3890   -0.2750 hn        1 GHC      0.315500
     44 HAP        -6.0590   -0.0440    1.6610 h1        1 GHC      0.066700
     45 HBG        -5.8350    0.2380   -1.4320 hc        1 GHC      0.046200
     46 HBGA       -7.2020    0.8500   -0.4220 hc        1 GHC      0.046200
     47 HAN        -6.0290    2.7050    0.2220 hc        1 GHC      0.024200
     48 HANA       -4.5610    1.7500    0.6500 hc        1 GHC      0.024200
     49 C13         1.7540    1.7860    0.8740 c3        1 GHC     -0.021100
     50 N2          8.6360   -0.0350   -1.5050 nh        1 GHC     -0.875800
@<TRIPOS>BOND
     1    1    2 2   
     2    1    6 1   
     3    1    8 1   
     4    2    3 1   
     5    2   11 1   
     6    3    4 1   
     7    3   10 2   
     8    4    9 1   
     9    4   33 1   
    10    5    8 1   
    11    5   11 2   
    12    5   49 1   
    13    6    9 2   
    14    7   36 1   
    15    7   37 1   
    16    7   38 1   
    17    7   49 1   
    18    9   50 1   
    19   11   12 1   
    20   12   13 1   
    21   13   14 ar  
    22   13   16 ar  
    23   14   15 ar  
    24   14   39 1   
    25   15   18 ar  
    26   15   40 1   
    27   16   17 ar  
    28   16   41 1   
    29   17   18 ar  
    30   17   42 1   
    31   18   19 1   
    32   19   20 2   
    33   19   21 1   
    34   21   22 1   
    35   21   43 1   
    36   22   23 1   
    37   22   26 1   
    38   22   44 1   
    39   23   24 1   
    40   23   25 1   
    41   26   27 1   
    42   26   45 1   
    43   26   46 1   
    44   27   28 1   
    45   27   47 1   
    46   27   48 1   
    47   28   29 1   
    48   28   30 1   
    49   31   49 1   
    50   32   49 1   
    51   34   50 1   
    52   35   50 1   
@<TRIPOS>SUBSTRUCTURE
     1 GHC         1 TEMP              0 ****  ****    0 ROOT
