@<TRIPOS>MOLECULE
GHE
   46    47     1     0     0
SMALL
bcc


@<TRIPOS>ATOM
      1 N1          0.1230    0.4020   -0.1590 n         1 GHE     -0.399800
      2 C2          1.5180   -0.0550   -0.1460 c3        1 GHE     -0.047300
      3 C3          1.6600   -0.9660    1.0990 c3        1 GHE     -0.083400
      4 C4          0.4880   -0.6090    2.0080 c3        1 GHE     -0.092400
      5 C5         -0.3500    0.4190    1.2180 c3        1 GHE      0.076000
      6 C1          2.5640    1.1060   -0.0040 c         1 GHE      0.924600
      7 O2          2.3480    2.0420    0.8110 o         1 GHE     -0.836300
      8 O1          3.6150    0.9790   -0.6920 o         1 GHE     -0.836300
      9 C6         -0.7220    0.1130   -1.2180 c         1 GHE      0.638100
     10 O6         -0.2810   -0.2960   -2.3160 o         1 GHE     -0.636100
     11 C7         -2.2120    0.3840   -1.0450 c3        1 GHE     -0.147400
     12 C8         -2.9440    0.3630   -2.3700 c3        1 GHE     -0.074400
     13 C9         -4.4450    0.3660   -2.1610 c3        1 GHE     -0.074400
     14 C10        -5.1770    0.3370   -3.4850 c3        1 GHE     -0.147400
     15 C11        -6.6660    0.0710   -3.3020 c         1 GHE      0.638100
     16 O11        -7.1070   -0.2970   -2.1900 o         1 GHE     -0.636100
     17 N2         -7.5120    0.3200   -4.3720 n         1 GHE     -0.399800
     18 C15        -8.9070   -0.1390   -4.3670 c3        1 GHE     -0.047300
     19 C14        -9.0480   -1.0970   -5.5760 c3        1 GHE     -0.083400
     20 C13        -7.8760   -0.7730   -6.4990 c3        1 GHE     -0.092400
     21 C12        -7.0380    0.2840   -5.7480 c3        1 GHE      0.076000
     22 C16        -9.9540    1.0160   -4.5530 c         1 GHE      0.924600
     23 O16        -9.7370    1.9200   -5.4030 o         1 GHE     -0.836300
     24 O17       -11.0040    0.9140   -3.8600 o         1 GHE     -0.836300
     25 H2          1.7440   -0.6140   -1.0950 h1        1 GHE      0.079700
     26 H31C        1.6230   -2.0440    0.8060 hc        1 GHE      0.036200
     27 H32C        2.6390   -0.7710    1.5980 hc        1 GHE      0.036200
     28 H41C       -0.1230   -1.5100    2.2560 hc        1 GHE      0.027200
     29 H42C        0.8430   -0.1540    2.9630 hc        1 GHE      0.027200
     30 H51C       -0.1510    1.4510    1.6220 h1        1 GHE      0.049200
     31 H52C       -1.4450    0.1930    1.3020 h1        1 GHE      0.049200
     32 H71C       -2.3650    1.3760   -0.5460 hc        1 GHE      0.054200
     33 H72C       -2.6350   -0.4100   -0.3740 hc        1 GHE      0.054200
     34 H81C       -2.6390   -0.5490   -2.9480 hc        1 GHE      0.051200
     35 H82C       -2.6360    1.2520   -2.9800 hc        1 GHE      0.051200
     36 H91C       -4.7530    1.2770   -1.5850 hc        1 GHE      0.051200
     37 H92C       -4.7490   -0.5240   -1.5490 hc        1 GHE      0.051200
     38 H101       -5.0250    1.3100   -4.0220 hc        1 GHE      0.054200
     39 H102       -4.7530   -0.4820   -4.1260 hc        1 GHE      0.054200
     40 H15        -9.1320   -0.6610   -3.3980 h1        1 GHE      0.079700
     41 H141       -9.0100   -2.1620   -5.2430 hc        1 GHE      0.036200
     42 H142      -10.0270   -0.9210   -6.0830 hc        1 GHE      0.036200
     43 H131       -8.2310   -0.3550   -7.4710 hc        1 GHE      0.027200
     44 H132       -7.2640   -1.6830   -6.7120 hc        1 GHE      0.027200
     45 H121       -7.2380    1.3000   -6.1910 h1        1 GHE      0.049200
     46 H122       -5.9440    0.0560   -5.8240 h1        1 GHE      0.049200
@<TRIPOS>BOND
     1    1    2 1   
     2    1    5 1   
     3    1    9 1   
     4    2    3 1   
     5    2    6 1   
     6    2   25 1   
     7    3    4 1   
     8    3   26 1   
     9    3   27 1   
    10    4    5 1   
    11    4   28 1   
    12    4   29 1   
    13    5   30 1   
    14    5   31 1   
    15    6    7 1   
    16    6    8 1   
    17    9   10 2   
    18    9   11 1   
    19   11   12 1   
    20   11   32 1   
    21   11   33 1   
    22   12   13 1   
    23   12   34 1   
    24   12   35 1   
    25   13   14 1   
    26   13   36 1   
    27   13   37 1   
    28   14   15 1   
    29   14   38 1   
    30   14   39 1   
    31   15   16 2   
    32   15   17 1   
    33   17   18 1   
    34   17   21 1   
    35   18   19 1   
    36   18   22 1   
    37   18   40 1   
    38   19   20 1   
    39   19   41 1   
    40   19   42 1   
    41   20   21 1   
    42   20   43 1   
    43   20   44 1   
    44   21   45 1   
    45   21   46 1   
    46   22   23 1   
    47   22   24 1   
@<TRIPOS>SUBSTRUCTURE
     1 GHE         1 TEMP              0 ****  ****    0 ROOT
