@<TRIPOS>MOLECULE
GHE
   46    46     1     0     0
SMALL
bcc


@<TRIPOS>ATOM
      1 N1          3.6760    1.2800    1.9070 n         1 GHE     -0.258000
      2 C2          4.9420    1.6590    1.8140 c3        1 GHE     -0.075000
      3 C3          5.4800    1.5190    3.3550 c3        1 GHE     -0.163000
      4 C4          4.5180    1.8830    4.1190 c3        1 GHE     -0.172000
      5 C5          3.2440    1.5850    3.3440 c3        1 GHE     -0.043000
      6 C1          5.0050    3.0440    1.2700 c1        1 GHE      0.344000
      7 O2          3.9650    3.7530    1.2330 o         1 GHE     -0.573000
      8 O1          6.0990    3.5090    0.8570 os        1 GHE     -0.575000
      9 C6          2.8800    0.7070    0.8810 c2        1 GHE      0.279000
     10 O6          3.3540    0.5190   -0.2220 o         1 GHE     -0.390000
     11 C7          1.4490    0.3090    1.1670 c3        1 GHE     -0.176000
     12 C8          0.7610   -0.0630   -0.1270 c3        1 GHE     -0.150000
     13 C9         -0.5490   -0.7550    0.1790 c3        1 GHE     -0.150000
     14 C10        -1.3930   -0.8170   -1.0760 c3        1 GHE     -0.190000
     15 C11        -2.6480   -1.6150   -0.8010 c2        1 GHE      0.311000
     16 O11        -2.7520   -2.2480    0.2310 o         1 GHE     -0.443000
     17 N2         -3.7140   -1.6050   -1.7360 n         1 GHE     -0.296000
     18 C15        -3.7500   -0.9640   -2.9020 c3        1 GHE     -0.053000
     19 C14        -5.3930   -0.7070   -3.1440 c3        1 GHE     -0.168000
     20 C13        -6.0000   -1.7520   -2.7110 c3        1 GHE     -0.165000
     21 C12        -5.0790   -2.3410   -1.6070 c3        1 GHE     -0.020000
     22 C16        -3.0710   -1.7070   -4.0320 c2        1 GHE      0.337000
     23 O16        -2.7810   -1.1020   -5.0980 o         1 GHE     -0.566000
     24 O17        -2.8050   -2.9310   -3.9110 o         1 GHE     -0.566000
     25 H2          5.5240    1.1790    1.1890 h1        1 GHE      0.120000
     26 H31C        5.7220    0.5880    3.5420 hc        1 GHE      0.074500
     27 H32C        6.2560    2.1010    3.4930 hc        1 GHE      0.074500
     28 H41C        4.5810    2.8420    4.3100 hc        1 GHE      0.065000
     29 H42C        4.5340    1.3690    4.9530 hc        1 GHE      0.065000
     30 H51C        2.6520    2.3640    3.3580 h1        1 GHE      0.090000
     31 H52C        2.7890    0.8100    3.7300 h1        1 GHE      0.090000
     32 H71C        1.4400   -0.4580    1.7740 hc        1 GHE      0.092000
     33 H72C        0.9790    1.0590    1.5830 hc        1 GHE      0.092000
     34 H81C        1.3350   -0.6660   -0.6410 hc        1 GHE      0.093000
     35 H82C        0.5880    0.7460   -0.6490 hc        1 GHE      0.093000
     36 H91C       -1.0290   -0.2550    0.8700 hc        1 GHE      0.082500
     37 H92C       -0.3720   -1.6630    0.4970 hc        1 GHE      0.082500
     38 H101       -0.8830   -1.2480   -1.7910 hc        1 GHE      0.133000
     39 H102       -1.6360    0.0900   -1.3490 hc        1 GHE      0.133000
     40 H15        -3.2430   -0.1260   -2.8790 h1        1 GHE      0.076000
     41 H141       -5.5760   -0.5850   -4.0980 hc        1 GHE      0.090500
     42 H142       -5.6870    0.0820   -2.6420 hc        1 GHE      0.090500
     43 H131       -6.8690   -1.5070   -2.3310 hc        1 GHE      0.064000
     44 H132       -6.1170   -2.4010   -3.4360 hc        1 GHE      0.064000
     45 H121       -5.4670   -2.1780   -0.7240 h1        1 GHE      0.076500
     46 H122       -4.9570   -3.3010   -1.7490 h1        1 GHE      0.076500
@<TRIPOS>BOND
     1    1    2 1   
     2    1    5 1   
     3    1    9 1   
     4    2    3 1   
     5    2    6 1   
     6    2   25 1   
     7    3    4 1   
     8    3   26 1   
     9    3   27 1   
    10    4    5 1   
    11    4   28 1   
    12    4   29 1   
    13    5   30 1   
    14    5   31 1   
    15    6    7 1   
    16    9   10 1   
    17    9   11 1   
    18   11   12 1   
    19   11   32 1   
    20   11   33 1   
    21   12   13 1   
    22   12   34 1   
    23   12   35 1   
    24   13   14 1   
    25   13   36 1   
    26   13   37 1   
    27   14   15 1   
    28   14   38 1   
    29   14   39 1   
    30   15   16 1   
    31   15   17 1   
    32   17   18 1   
    33   17   21 1   
    34   18   19 1   
    35   18   22 1   
    36   18   40 1   
    37   19   20 1   
    38   19   41 1   
    39   19   42 1   
    40   20   21 1   
    41   20   43 1   
    42   20   44 1   
    43   21   45 1   
    44   21   46 1   
    45   22   23 1   
    46   22   24 1   
@<TRIPOS>SUBSTRUCTURE
     1 GHE         1 TEMP              0 ****  ****    0 ROOT
