@<TRIPOS>MOLECULE
GHE
   46    47     1     0     0
SMALL
bcc


@<TRIPOS>ATOM
      1 N1          0.1200    0.3980   -0.1550 n         1 GHE     -0.399800
      2 C2          1.5160   -0.0560   -0.1440 c3        1 GHE     -0.047300
      3 C3          1.6590   -0.9740    1.0960 c3        1 GHE     -0.083400
      4 C4          0.4850   -0.6240    2.0070 c3        1 GHE     -0.092400
      5 C5         -0.3540    0.4060    1.2210 c3        1 GHE      0.076000
      6 C1          2.5600    1.1060    0.0050 c         1 GHE      0.924600
      7 O2          2.3410    2.0370    0.8250 o         1 GHE     -0.836300
      8 O1          3.6110    0.9850   -0.6830 o         1 GHE     -0.836300
      9 C6         -0.7240    0.1120   -1.2160 c         1 GHE      0.638100
     10 O6         -0.2810   -0.2900   -2.3160 o         1 GHE     -0.636100
     11 C7         -2.2140    0.3800   -1.0430 c3        1 GHE     -0.147400
     12 C8         -2.9450    0.3650   -2.3690 c3        1 GHE     -0.074400
     13 C9         -4.4460    0.3640   -2.1610 c3        1 GHE     -0.074400
     14 C10        -5.1770    0.3400   -3.4860 c3        1 GHE     -0.147400
     15 C11        -6.6660    0.0700   -3.3050 c         1 GHE      0.638100
     16 O11        -7.1070   -0.3050   -2.1960 o         1 GHE     -0.636100
     17 N2         -7.5110    0.3230   -4.3740 n         1 GHE     -0.399800
     18 C15        -8.9050   -0.1380   -4.3730 c3        1 GHE     -0.047300
     19 C14        -9.0440   -1.0890   -5.5880 c3        1 GHE     -0.083400
     20 C13        -7.8720   -0.7580   -6.5080 c3        1 GHE     -0.092400
     21 C12        -7.0370    0.2970   -5.7500 c3        1 GHE      0.076000
     22 C16        -9.9540    1.0150   -4.5520 c         1 GHE      0.924600
     23 O16        -9.7390    1.9260   -5.3960 o         1 GHE     -0.836300
     24 O17       -11.0050    0.9070   -3.8610 o         1 GHE     -0.836300
     25 H2          1.7440   -0.6100   -1.0950 h1        1 GHE      0.079700
     26 H31C        1.6240   -2.0500    0.7980 hc        1 GHE      0.036200
     27 H32C        2.6370   -0.7800    1.5980 hc        1 GHE      0.036200
     28 H41C        0.8380   -0.1740    2.9650 hc        1 GHE      0.027200
     29 H42C       -0.1240   -1.5280    2.2490 hc        1 GHE      0.027200
     30 H51C       -1.4480    0.1780    1.3040 h1        1 GHE      0.049200
     31 H52C       -0.1580    1.4370    1.6310 h1        1 GHE      0.049200
     32 H71C       -2.6360   -0.4190   -0.3770 hc        1 GHE      0.054200
     33 H72C       -2.3690    1.3690   -0.5390 hc        1 GHE      0.054200
     34 H81C       -2.6380   -0.5440   -2.9510 hc        1 GHE      0.051200
     35 H82C       -2.6390    1.2570   -2.9740 hc        1 GHE      0.051200
     36 H91C       -4.7560    1.2710   -1.5800 hc        1 GHE      0.051200
     37 H92C       -4.7490   -0.5300   -1.5540 hc        1 GHE      0.051200
     38 H101       -4.7510   -0.4750   -4.1310 hc        1 GHE      0.054200
     39 H102       -5.0270    1.3160   -4.0170 hc        1 GHE      0.054200
     40 H15        -9.1300   -0.6670   -3.4080 h1        1 GHE      0.079700
     41 H141       -9.0040   -2.1560   -5.2620 hc        1 GHE      0.036200
     42 H142      -10.0230   -0.9120   -6.0950 hc        1 GHE      0.036200
     43 H131       -7.2580   -1.6650   -6.7270 hc        1 GHE      0.027200
     44 H132       -8.2270   -0.3340   -7.4770 hc        1 GHE      0.027200
     45 H121       -7.2380    1.3150   -6.1870 h1        1 GHE      0.049200
     46 H122       -5.9420    0.0700   -5.8260 h1        1 GHE      0.049200
@<TRIPOS>BOND
     1    1    2 1   
     2    1    5 1   
     3    1    9 1   
     4    2    3 1   
     5    2    6 1   
     6    2   25 1   
     7    3    4 1   
     8    3   26 1   
     9    3   27 1   
    10    4    5 1   
    11    4   28 1   
    12    4   29 1   
    13    5   30 1   
    14    5   31 1   
    15    6    7 1   
    16    6    8 1   
    17    9   10 2   
    18    9   11 1   
    19   11   12 1   
    20   11   32 1   
    21   11   33 1   
    22   12   13 1   
    23   12   34 1   
    24   12   35 1   
    25   13   14 1   
    26   13   36 1   
    27   13   37 1   
    28   14   15 1   
    29   14   38 1   
    30   14   39 1   
    31   15   16 2   
    32   15   17 1   
    33   17   18 1   
    34   17   21 1   
    35   18   19 1   
    36   18   22 1   
    37   18   40 1   
    38   19   20 1   
    39   19   41 1   
    40   19   42 1   
    41   20   21 1   
    42   20   43 1   
    43   20   44 1   
    44   21   45 1   
    45   21   46 1   
    46   22   23 1   
    47   22   24 1   
@<TRIPOS>SUBSTRUCTURE
     1 GHE         1 TEMP              0 ****  ****    0 ROOT
