@<TRIPOS>MOLECULE
GHE
   46    47     1     0     0
SMALL
bcc


@<TRIPOS>ATOM
      1 N1          0.1180    0.3940   -0.1510 n         1 GHE     -0.399800
      2 C2          1.5090   -0.0760   -0.1260 c3        1 GHE     -0.047300
      3 C3          1.6380   -0.9700    1.1330 c3        1 GHE     -0.083400
      4 C4          0.4660   -0.5880    2.0330 c3        1 GHE     -0.092400
      5 C5         -0.3600    0.4350    1.2240 c3        1 GHE      0.076000
      6 C1          2.5650    1.0780    0.0020 c         1 GHE      0.924600
      7 O2          2.3540    2.0280    0.8020 o         1 GHE     -0.836300
      8 O1          3.6170    0.9310   -0.6800 o         1 GHE     -0.836300
      9 C6         -0.7260    0.0960   -1.2080 c         1 GHE      0.638100
     10 O6         -0.2850   -0.3330   -2.2980 o         1 GHE     -0.636100
     11 C7         -2.2130    0.3840   -1.0450 c3        1 GHE     -0.147400
     12 C8         -2.9410    0.3510   -2.3720 c3        1 GHE     -0.074400
     13 C9         -4.4420    0.3710   -2.1690 c3        1 GHE     -0.074400
     14 C10        -5.1710    0.3320   -3.4950 c3        1 GHE     -0.147400
     15 C11        -6.6620    0.0810   -3.3150 c         1 GHE      0.638100
     16 O11        -7.1100   -0.2710   -2.2000 o         1 GHE     -0.636100
     17 N2         -7.5020    0.3260   -4.3900 n         1 GHE     -0.399800
     18 C15        -8.9010   -0.1200   -4.3850 c3        1 GHE     -0.047300
     19 C14        -9.0470   -1.0890   -5.5850 c3        1 GHE     -0.083400
     20 C13        -7.8690   -0.7860   -6.5070 c3        1 GHE     -0.092400
     21 C12        -7.0240    0.2720   -5.7640 c3        1 GHE      0.076000
     22 C16        -9.9370    1.0420   -4.5860 c         1 GHE      0.924600
     23 O16        -9.7100    1.9360   -5.4440 o         1 GHE     -0.836300
     24 O17       -10.9910    0.9570   -3.8960 o         1 GHE     -0.836300
     25 H2          1.7330   -0.6510   -1.0650 h1        1 GHE      0.079700
     26 H31C        1.5930   -2.0510    0.8570 hc        1 GHE      0.036200
     27 H32C        2.6170   -0.7760    1.6330 hc        1 GHE      0.036200
     28 H41C       -0.1540   -1.4800    2.2920 hc        1 GHE      0.027200
     29 H42C        0.8220   -0.1220    2.9820 hc        1 GHE      0.027200
     30 H51C       -0.1530    1.4720    1.6130 h1        1 GHE      0.049200
     31 H52C       -1.4570    0.2200    1.3070 h1        1 GHE      0.049200
     32 H71C       -2.6470   -0.3970   -0.3650 hc        1 GHE      0.054200
     33 H72C       -2.3590    1.3840   -0.5600 hc        1 GHE      0.054200
     34 H81C       -2.6420   -0.5720   -2.9370 hc        1 GHE      0.051200
     35 H82C       -2.6240    1.2290   -2.9930 hc        1 GHE      0.051200
     36 H91C       -4.7580   -0.5090   -1.5470 hc        1 GHE      0.051200
     37 H92C       -4.7450    1.2910   -1.6050 hc        1 GHE      0.051200
     38 H101       -4.7520   -0.4980   -4.1250 hc        1 GHE      0.054200
     39 H102       -5.0080    1.2960   -4.0430 hc        1 GHE      0.054200
     40 H15        -9.1340   -0.6300   -3.4120 h1        1 GHE      0.079700
     41 H141      -10.0230   -0.9100   -6.0970 hc        1 GHE      0.036200
     42 H142       -9.0200   -2.1510   -5.2410 hc        1 GHE      0.036200
     43 H131       -7.2650   -1.7030   -6.7090 hc        1 GHE      0.027200
     44 H132       -8.2170   -0.3740   -7.4840 hc        1 GHE      0.027200
     45 H121       -5.9320    0.0320   -5.8330 h1        1 GHE      0.049200
     46 H122       -7.2130    1.2850   -6.2180 h1        1 GHE      0.049200
@<TRIPOS>BOND
     1    1    2 1   
     2    1    5 1   
     3    1    9 1   
     4    2    3 1   
     5    2    6 1   
     6    2   25 1   
     7    3    4 1   
     8    3   26 1   
     9    3   27 1   
    10    4    5 1   
    11    4   28 1   
    12    4   29 1   
    13    5   30 1   
    14    5   31 1   
    15    6    7 1   
    16    6    8 1   
    17    9   10 2   
    18    9   11 1   
    19   11   12 1   
    20   11   32 1   
    21   11   33 1   
    22   12   13 1   
    23   12   34 1   
    24   12   35 1   
    25   13   14 1   
    26   13   36 1   
    27   13   37 1   
    28   14   15 1   
    29   14   38 1   
    30   14   39 1   
    31   15   16 2   
    32   15   17 1   
    33   17   18 1   
    34   17   21 1   
    35   18   19 1   
    36   18   22 1   
    37   18   40 1   
    38   19   20 1   
    39   19   41 1   
    40   19   42 1   
    41   20   21 1   
    42   20   43 1   
    43   20   44 1   
    44   21   45 1   
    45   21   46 1   
    46   22   23 1   
    47   22   24 1   
@<TRIPOS>SUBSTRUCTURE
     1 GHE         1 TEMP              0 ****  ****    0 ROOT
