@<TRIPOS>MOLECULE
GHE
   46    47     1     0     0
SMALL
bcc


@<TRIPOS>ATOM
      1 N1         -4.3510    0.2810    0.0250 n         1 GHE     -0.399800
      2 C2         -5.6150   -0.3090   -0.4340 c3        1 GHE     -0.047300
      3 C3         -6.2660    0.7420   -1.3680 c3        1 GHE     -0.083400
      4 C4         -5.5950    2.0700   -1.0260 c3        1 GHE     -0.092400
      5 C5         -4.5090    1.7280    0.0170 c3        1 GHE      0.076000
      6 C1         -6.6320   -0.6070    0.7240 c         1 GHE      0.924600
      7 O2         -6.7910    0.2370    1.6450 o         1 GHE     -0.836300
      8 O1         -7.2890   -1.6790    0.6080 o         1 GHE     -0.836300
      9 C6         -3.1330   -0.3220   -0.2450 c         1 GHE      0.638100
     10 O6         -3.0620   -1.5100   -0.6340 o         1 GHE     -0.636100
     11 C7         -1.8620    0.4720    0.0260 c3        1 GHE     -0.147400
     12 C8         -0.6350   -0.4150    0.0290 c3        1 GHE     -0.074400
     13 C9          0.6340    0.4130    0.0300 c3        1 GHE     -0.074400
     14 C10         1.8610   -0.4740    0.0250 c3        1 GHE     -0.147400
     15 C11         3.1330    0.3210   -0.2420 c         1 GHE      0.638100
     16 O11         3.0610    1.5090   -0.6290 o         1 GHE     -0.636100
     17 N2          4.3510   -0.2830    0.0270 n         1 GHE     -0.399800
     18 C15         5.6150    0.3080   -0.4300 c3        1 GHE     -0.047300
     19 C14         6.2660   -0.7410   -1.3660 c3        1 GHE     -0.083400
     20 C13         5.5950   -2.0700   -1.0280 c3        1 GHE     -0.092400
     21 C12         4.5080   -1.7300    0.0150 c3        1 GHE      0.076000
     22 C16         6.6310    0.6040    0.7290 c         1 GHE      0.924600
     23 O16         6.7890   -0.2430    1.6480 o         1 GHE     -0.836300
     24 O17         7.2880    1.6760    0.6160 o         1 GHE     -0.836300
     25 H2         -5.4120   -1.2720   -0.9760 h1        1 GHE      0.079700
     26 H31C       -6.0990    0.4760   -2.4390 hc        1 GHE      0.036200
     27 H32C       -7.3660    0.7810   -1.1820 hc        1 GHE      0.036200
     28 H41C       -5.1400    2.5400   -1.9310 hc        1 GHE      0.027200
     29 H42C       -6.3270    2.7910   -0.5880 hc        1 GHE      0.027200
     30 H51C       -3.5530    2.2660   -0.2090 h1        1 GHE      0.049200
     31 H52C       -4.8700    2.0260    1.0420 h1        1 GHE      0.049200
     32 H71C       -1.7570    1.2470   -0.7800 hc        1 GHE      0.054200
     33 H72C       -1.9440    1.0050    1.0090 hc        1 GHE      0.054200
     34 H81C       -0.6610   -1.0840    0.9280 hc        1 GHE      0.051200
     35 H82C       -0.6570   -1.0820   -0.8730 hc        1 GHE      0.051200
     36 H91C        0.6570    1.0830   -0.8700 hc        1 GHE      0.051200
     37 H92C        0.6600    1.0800    0.9310 hc        1 GHE      0.051200
     38 H101        1.9430   -1.0090    1.0070 hc        1 GHE      0.054200
     39 H102        1.7570   -1.2470   -0.7820 hc        1 GHE      0.054200
     40 H15         5.4110    1.2720   -0.9700 h1        1 GHE      0.079700
     41 H141        7.3660   -0.7800   -1.1800 hc        1 GHE      0.036200
     42 H142        6.0990   -0.4730   -2.4370 hc        1 GHE      0.036200
     43 H131        6.3260   -2.7910   -0.5910 hc        1 GHE      0.027200
     44 H132        5.1400   -2.5370   -1.9340 hc        1 GHE      0.027200
     45 H121        4.8690   -2.0300    1.0400 h1        1 GHE      0.049200
     46 H122        3.5520   -2.2680   -0.2130 h1        1 GHE      0.049200
@<TRIPOS>BOND
     1    1    2 1   
     2    1    5 1   
     3    1    9 1   
     4    2    3 1   
     5    2    6 1   
     6    2   25 1   
     7    3    4 1   
     8    3   26 1   
     9    3   27 1   
    10    4    5 1   
    11    4   28 1   
    12    4   29 1   
    13    5   30 1   
    14    5   31 1   
    15    6    7 1   
    16    6    8 1   
    17    9   10 2   
    18    9   11 1   
    19   11   12 1   
    20   11   32 1   
    21   11   33 1   
    22   12   13 1   
    23   12   34 1   
    24   12   35 1   
    25   13   14 1   
    26   13   36 1   
    27   13   37 1   
    28   14   15 1   
    29   14   38 1   
    30   14   39 1   
    31   15   16 2   
    32   15   17 1   
    33   17   18 1   
    34   17   21 1   
    35   18   19 1   
    36   18   22 1   
    37   18   40 1   
    38   19   20 1   
    39   19   41 1   
    40   19   42 1   
    41   20   21 1   
    42   20   43 1   
    43   20   44 1   
    44   21   45 1   
    45   21   46 1   
    46   22   23 1   
    47   22   24 1   
@<TRIPOS>SUBSTRUCTURE
     1 GHE         1 TEMP              0 ****  ****    0 ROOT
