@<TRIPOS>MOLECULE
GHG
   20    19     1     0     0
SMALL
bcc


@<TRIPOS>ATOM
      1 N           0.6690    1.7570    0.1240 n3        1 GHG     -0.915800
      2 CA          0.9850    0.3700    0.4450 c3        1 GHG      0.007500
      3 C           2.4960   -0.0040    0.2270 c         1 GHG      0.893600
      4 O           3.2970    0.9350   -0.0400 o         1 GHG     -0.833800
      5 CB          0.1160   -0.6410   -0.2990 c3        1 GHG     -0.099400
      6 CG         -1.2810   -0.7890    0.2930 c3        1 GHG      0.080100
      7 OG1        -1.9300   -1.9410   -0.2200 oh        1 GHG     -0.601800
      8 CD         -2.1450    0.4370   -0.0220 c         1 GHG      0.624100
      9 OE1        -2.8580    0.4530   -1.0510 o         1 GHG     -0.652100
     10 NE2        -2.1870    1.4740    0.8870 n         1 GHG     -0.616000
     11 H           1.4380    2.3200    0.4540 hn        1 GHG      0.340800
     12 H2          0.6530    1.8620   -0.8750 hn        1 GHG      0.340800
     13 HA          0.8020    0.2510    1.5540 h1        1 GHG      0.037700
     14 HB2         0.0350   -0.3830   -1.3860 hc        1 GHG      0.071200
     15 HB3         0.6290   -1.6410   -0.2240 hc        1 GHG      0.071200
     16 HG         -1.2240   -0.9760    1.4020 h1        1 GHG      0.083700
     17 HG1        -2.0990   -1.7770   -1.1580 ho        1 GHG      0.412000
     18 HE21       -1.4060    1.5610    1.4990 hn        1 GHG      0.295500
     19 HE22       -2.5560    2.3350    0.5550 hn        1 GHG      0.295500
     20 OXT         2.8210   -1.2140    0.3620 o         1 GHG     -0.833800
@<TRIPOS>BOND
     1    1    2 1   
     2    1   11 1   
     3    1   12 1   
     4    2    3 1   
     5    2    5 1   
     6    2   13 1   
     7    3    4 1   
     8    3   20 1   
     9    5    6 1   
    10    5   14 1   
    11    5   15 1   
    12    6    7 1   
    13    6    8 1   
    14    6   16 1   
    15    7   17 1   
    16    8    9 2   
    17    8   10 1   
    18   10   18 1   
    19   10   19 1   
@<TRIPOS>SUBSTRUCTURE
     1 GHG         1 TEMP              0 ****  ****    0 ROOT
