@<TRIPOS>MOLECULE
GHP
   20    20     1     0     0
SMALL
bcc


@<TRIPOS>ATOM
      1 N          -1.8500    1.3410    1.4540 n3        1 GHP     -0.883800
      2 CA         -1.5280    0.0920    0.7670 c3        1 GHP      0.050800
      3 C          -2.3660   -0.1030   -0.5490 c         1 GHP      0.892600
      4 O          -2.5150    0.9090   -1.2930 o         1 GHP     -0.834300
      5 OXT        -2.8630   -1.2400   -0.7590 o         1 GHP     -0.834300
      6 C1         -0.0630    0.0060    0.4400 ca        1 GHP     -0.045300
      7 C2          0.7900   -0.8110    1.1870 ca        1 GHP     -0.092500
      8 C3          2.1480   -0.8950    0.8840 ca        1 GHP     -0.195000
      9 C4          2.6520   -0.1420   -0.1830 ca        1 GHP      0.085100
     10 O4          4.0090   -0.2490   -0.4380 oh        1 GHP     -0.521100
     11 C5          1.8100    0.6800   -0.9460 ca        1 GHP     -0.195000
     12 C6          0.4570    0.7480   -0.6300 ca        1 GHP     -0.092500
     13 H          -1.5780    2.1040    0.8570 hn        1 GHP      0.331300
     14 H2         -2.8500    1.3870    1.5370 hn        1 GHP      0.331300
     15 HA         -1.7980   -0.7500    1.4680 h1        1 GHP      0.052700
     16 HC2         0.3850   -1.4000    2.0240 ha        1 GHP      0.152500
     17 H3          2.8220   -1.5370    1.4650 ha        1 GHP      0.120500
     18 HO4         4.1920    0.2730   -1.2310 ho        1 GHP      0.403000
     19 H5          2.2150    1.2560   -1.7880 ha        1 GHP      0.120500
     20 H6         -0.2400    1.3590   -1.2340 ha        1 GHP      0.152500
@<TRIPOS>BOND
     1    1    2 1   
     2    1   13 1   
     3    1   14 1   
     4    2    3 1   
     5    2    6 1   
     6    2   15 1   
     7    3    4 1   
     8    3    5 1   
     9    6    7 ar  
    10    6   12 ar  
    11    7    8 ar  
    12    7   16 1   
    13    8    9 ar  
    14    8   17 1   
    15    9   10 1   
    16    9   11 ar  
    17   10   18 1   
    18   11   12 ar  
    19   11   19 1   
    20   12   20 1   
@<TRIPOS>SUBSTRUCTURE
     1 GHP         1 TEMP              0 ****  ****    0 ROOT
