@<TRIPOS>MOLECULE
GHP
   20    18     1     0     0
SMALL
bcc


@<TRIPOS>ATOM
      1 N          -1.8750    1.7670    0.5920 n3        1 GHP     -0.316000
      2 CA         -0.4820    1.6150    0.7600 c3        1 GHP     -0.105000
      3 C          -0.1610    1.5180    2.2710 c2        1 GHP      0.312000
      4 O          -0.9160    0.9030    3.0190 o         1 GHP     -0.568500
      5 OXT         0.8710    2.0870    2.7400 o         1 GHP     -0.568500
      6 C1         -0.0070    0.3430    0.0490 c2        1 GHP     -0.037000
      7 C2          1.0470    0.4060   -0.8360 c2        1 GHP     -0.097000
      8 C3          1.4910   -0.7650   -1.4900 c1        1 GHP     -0.225000
      9 C4          0.8660   -1.9780   -1.2410 c1        1 GHP      0.040000
     10 O4          1.3970   -3.2170   -1.8370 oh        1 GHP     -0.273000
     11 C5         -0.1790   -2.0390   -0.3620 c1        1 GHP     -0.164000
     12 C6         -0.6270   -0.8580    0.2970 c1        1 GHP     -0.089000
     13 H          -2.0780    1.8390   -0.3200 hn        1 GHP      0.127000
     14 H2         -2.1510    2.5240    1.0270 hn        1 GHP      0.127000
     15 HA          0.0000    2.4230    0.3610 h1        1 GHP      0.092000
     16 HC2         1.4670    1.2250   -1.0050 ha        1 GHP      0.126000
     17 H3          2.2040   -0.7230   -2.0880 ha        1 GHP      0.110000
     18 HO4         1.0820   -3.3090   -2.6520 ho        1 GHP      0.200000
     19 H5         -0.6030   -2.8620   -0.1930 ha        1 GHP      0.131000
     20 H6         -1.3470   -0.9000    0.9050 ha        1 GHP      0.178000
@<TRIPOS>BOND
     1    1    2 1   
     2    1   13 1   
     3    1   14 1   
     4    2    3 1   
     5    2    6 1   
     6    2   15 1   
     7    3    4 1   
     8    3    5 1   
     9    6    7 1   
    10    6   12 1   
    11    7    8 1   
    12    7   16 1   
    13    8   17 1   
    14    9   10 1   
    15    9   11 1   
    16   10   18 1   
    17   11   19 1   
    18   12   20 1   
@<TRIPOS>SUBSTRUCTURE
     1 GHP         1 TEMP              0 ****  ****    0 ROOT
