@<TRIPOS>MOLECULE
GHR
   39    40     1     0     0
SMALL
bcc


@<TRIPOS>ATOM
      1 C1          2.3880   -0.5750   -1.0780 c2        1 GHR      0.574200
      2 N5          2.4870    0.6160   -0.3740 nh        1 GHR     -0.817200
      3 C5          3.4500    0.8230    0.6890 c3        1 GHR      0.211500
      4 C6          3.7320    2.3270    0.9030 c3        1 GHR      0.124400
      5 O6          2.5240    2.9170    1.3510 oh        1 GHR     -0.604800
      6 C4          4.7980    0.1200    0.4190 c3        1 GHR      0.141100
      7 O4          5.5560    0.2270    1.6120 oh        1 GHR     -0.597800
      8 C3          4.5240   -1.3490    0.0780 c3        1 GHR      0.108100
      9 O3          5.7860   -1.9540   -0.1470 oh        1 GHR     -0.608800
     10 C2          3.6610   -1.4400   -1.1910 c3        1 GHR      0.085800
     11 O2          3.4060   -2.8220   -1.3430 oh        1 GHR     -0.596800
     12 N1          1.3450   -1.0000   -1.7960 n2        1 GHR     -0.515200
     13 C12        -5.3940    0.9440    0.8760 ca        1 GHR     -0.009600
     14 C11        -4.1940    0.7100    1.5530 ca        1 GHR     -0.096500
     15 C10        -3.0400    0.3890    0.8460 ca        1 GHR     -0.160500
     16 C13        -5.4410    0.8580   -0.5190 ca        1 GHR     -0.096500
     17 C14        -4.2940    0.5410   -1.2350 ca        1 GHR     -0.160500
     18 C9         -3.0720    0.2990   -0.5620 ca        1 GHR      0.072600
     19 N9         -1.9450   -0.0410   -1.3290 n         1 GHR     -0.439100
     20 C8         -0.6590   -0.1490   -0.8490 c         1 GHR      0.729100
     21 O8         -0.2270   -0.1180    0.3110 o         1 GHR     -0.565000
     22 O7          0.2570   -0.2710   -1.9210 os        1 GHR     -0.189600
     23 H5          3.0340    0.4190    1.6640 h1        1 GHR      0.078700
     24 H6          4.5340    2.4200    1.6840 h1        1 GHR      0.046200
     25 H6A         4.0700    2.8170   -0.0480 h1        1 GHR      0.046200
     26 HO6         2.7340    3.8260    1.5930 ho        1 GHR      0.408000
     27 H4          5.3550    0.6150   -0.4230 h1        1 GHR      0.060700
     28 HO4         6.3190   -0.3580    1.5050 ho        1 GHR      0.429000
     29 H3          4.0040   -1.8640    0.9340 h1        1 GHR      0.076700
     30 HO3         5.6130   -2.8750   -0.3850 ho        1 GHR      0.432000
     31 H2          4.2400   -1.0560   -2.0800 h1        1 GHR      0.072700
     32 HO2         2.8810   -2.9510   -2.1430 ho        1 GHR      0.436000
     33 H10        -2.1030    0.2070    1.4000 ha        1 GHR      0.158000
     34 H13        -6.3850    1.0420   -1.0550 ha        1 GHR      0.150500
     35 H14        -4.3520    0.4780   -2.3330 ha        1 GHR      0.158000
     36 HN9        -2.0620   -0.0850   -2.3190 hn        1 GHR      0.342500
     37 H16         1.6290    1.1110   -0.2050 hn        1 GHR      0.454800
     38 H11        -4.1540    0.7760    2.6510 ha        1 GHR      0.150500
     39 CL12       -6.7990    1.3350    1.7470 cl        1 GHR     -0.092400
@<TRIPOS>BOND
     1    1    2 1   
     2    1   10 1   
     3    1   12 2   
     4    2    3 1   
     5    2   37 1   
     6    3    4 1   
     7    3    6 1   
     8    3   23 1   
     9    4    5 1   
    10    4   24 1   
    11    4   25 1   
    12    5   26 1   
    13    6    7 1   
    14    6    8 1   
    15    6   27 1   
    16    7   28 1   
    17    8    9 1   
    18    8   10 1   
    19    8   29 1   
    20    9   30 1   
    21   10   11 1   
    22   10   31 1   
    23   11   32 1   
    24   12   22 1   
    25   13   14 ar  
    26   13   16 ar  
    27   13   39 1   
    28   14   15 ar  
    29   14   38 1   
    30   15   18 ar  
    31   15   33 1   
    32   16   17 ar  
    33   16   34 1   
    34   17   18 ar  
    35   17   35 1   
    36   18   19 1   
    37   19   20 1   
    38   19   36 1   
    39   20   21 2   
    40   20   22 1   
@<TRIPOS>SUBSTRUCTURE
     1 GHR         1 TEMP              0 ****  ****    0 ROOT
