@<TRIPOS>MOLECULE
GHR
   39    39     1     0     0
SMALL
bcc


@<TRIPOS>ATOM
      1 C1          0.2410   -0.1770   -0.5320 c2        1 GHR      0.078000
      2 N5          1.2570    0.6920   -0.1840 n3        1 GHR     -0.318000
      3 C5          1.8380    0.7710    1.1440 c3        1 GHR      0.019000
      4 C6          3.3570    0.4520    1.1230 c3        1 GHR     -0.025000
      5 O6          4.0710    1.4090    0.3730 oh        1 GHR     -0.318000
      6 C4          1.1910   -0.0970    2.1710 c2        1 GHR     -0.222000
      7 O4          0.8560   -1.1080    5.1210 oh        1 GHR     -0.400000
      8 C3          0.3160   -1.0570    1.8330 c2        1 GHR      0.030000
      9 O3         -0.2330   -1.8460    2.8200 oh        1 GHR     -0.280000
     10 C2         -0.0460   -1.3720    0.4080 c3        1 GHR      0.094000
     11 O2         -1.4080   -1.7580    0.4250 oh        1 GHR     -0.325000
     12 N1         -0.4720   -0.1730   -1.6650 n2        1 GHR     -0.142000
     13 C12        -2.1870    6.5070   -4.5020 c2        1 GHR     -0.181000
     14 C11        -1.7630    6.1960   -3.1920 c1        1 GHR     -0.075000
     15 C10        -1.3730    4.8340   -2.8820 c3        1 GHR     -0.195000
     16 C13        -2.2350    5.5610   -5.4980 c2        1 GHR      0.014000
     17 C14        -1.8590    4.2120   -5.2430 c2        1 GHR     -0.270000
     18 C9         -1.4380    3.8220   -3.9890 c2        1 GHR      0.098000
     19 N9         -1.0840    2.4960   -3.7490 n         1 GHR     -0.291000
     20 C8         -0.6160    2.0230   -2.5370 c2        1 GHR      0.381000
     21 O8         -0.4650    2.6290   -1.4680 o         1 GHR     -0.370000
     22 O7         -0.2080    0.6760   -2.6350 os        1 GHR     -0.190000
     23 H5          1.7360    1.8490    1.4920 h1        1 GHR      0.124000
     24 H6          3.7540    0.5500    2.1700 h1        1 GHR      0.099500
     25 H6A         3.5420   -0.5840    0.7410 h1        1 GHR      0.099500
     26 HO6         3.9070    1.2310   -0.5600 ho        1 GHR      0.202000
     27 H4          1.4720    0.0880    3.2210 ha        1 GHR      0.184000
     28 HO4         1.0580   -1.9170    4.6410 ho        1 GHR      0.200000
     29 H3         -0.0350   -0.8920    4.8260 ho        1 GHR      0.200000
     30 HO3        -1.0720   -2.2080    2.4910 ho        1 GHR      0.250000
     31 H2          0.5920   -2.2320    0.0440 h1        1 GHR      0.118000
     32 HO2        -1.6570   -2.0350   -0.4670 ho        1 GHR      0.243000
     33 H10        -0.3220    4.8740   -2.4570 hc        1 GHR      0.189000
     34 H13        -1.9200    3.5020   -6.0820 ha        1 GHR      0.141000
     35 H14        -2.5630    5.8120   -6.5220 ha        1 GHR      0.147000
     36 HN9        -1.1350    1.8430   -4.5030 hn        1 GHR      0.261000
     37 H16         1.3080    1.5500   -0.6990 hn        1 GHR      0.246000
     38 H11        -2.0160    4.4910   -2.0110 hc        1 GHR      0.189000
     39 CL12       -2.6440    8.1110   -4.8360 cl        1 GHR     -0.004000
@<TRIPOS>BOND
     1    1    2 1   
     2    1   10 1   
     3    1   12 1   
     4    2    3 1   
     5    2   37 1   
     6    3    4 1   
     7    3    6 1   
     8    3   23 1   
     9    4    5 1   
    10    4   24 1   
    11    4   25 1   
    12    5   26 1   
    13    6    8 1   
    14    6   27 1   
    15    7   28 1   
    16    7   29 1   
    17    8    9 1   
    18    8   10 1   
    19    9   30 1   
    20   10   11 1   
    21   10   31 1   
    22   11   32 1   
    23   12   22 1   
    24   13   14 1   
    25   13   16 1   
    26   13   39 1   
    27   14   15 1   
    28   15   18 1   
    29   15   33 1   
    30   15   38 1   
    31   16   17 1   
    32   16   35 1   
    33   17   18 1   
    34   17   34 1   
    35   18   19 1   
    36   19   20 1   
    37   19   36 1   
    38   20   21 1   
    39   20   22 1   
@<TRIPOS>SUBSTRUCTURE
     1 GHR         1 TEMP              0 ****  ****    0 ROOT
