@<TRIPOS>MOLECULE
GHR
   39    37     1     0     0
SMALL
bcc


@<TRIPOS>ATOM
      1 C1         -0.0400   -0.5580   -0.4870 c2        1 GHR      0.094000
      2 N5          1.1580    0.1450   -0.3280 n7        1 GHR     -0.317000
      3 C5          2.1330   -0.2250    0.7120 c3        1 GHR     -0.032000
      4 C6          3.5370    0.3030    0.3640 c3        1 GHR     -0.015000
      5 O6          3.5540    1.7120    0.3030 oh        1 GHR     -0.321000
      6 C4          2.1750   -1.7450    0.8340 c2        1 GHR     -0.069000
      7 O4          0.9200    0.6370    3.6460 oh        1 GHR     -0.420000
      8 C3          0.9470   -2.2370    0.8690 c1        1 GHR     -0.209000
      9 O3         -0.8640   -1.1830    3.6530 oh        1 GHR     -0.420000
     10 C2         -0.2210   -1.6900    0.5160 c2        1 GHR      0.107000
     11 O2         -1.4240   -1.9440    1.0930 oh        1 GHR     -0.241000
     12 N1         -1.0180   -0.3700   -1.3670 n2        1 GHR     -0.103000
     13 C12        -2.0170    6.2560   -6.2160 c2        1 GHR     -0.363000
     14 C11        -3.2510    6.0510   -6.6840 c1        1 GHR      0.270000
     15 C10        -1.1600    4.8770   -2.1410 c2        1 GHR     -0.242000
     16 C13        -1.5060    5.6870   -4.9820 c2        1 GHR     -0.077000
     17 C14        -2.0150    4.5770   -4.4240 c2        1 GHR     -0.146000
     18 C9         -1.5200    4.0460   -3.1420 c2        1 GHR      0.044000
     19 N9         -1.4990    2.6360   -3.0600 ns        1 GHR     -0.292000
     20 C8         -1.0250    1.9280   -1.9820 c2        1 GHR      0.384000
     21 O8         -0.6710    2.3120   -0.8580 o         1 GHR     -0.388000
     22 O7         -0.9380    0.5510   -2.3000 os        1 GHR     -0.193000
     23 H5          1.8180    0.2340    1.7040 h1        1 GHR      0.141000
     24 H6          4.2530   -0.0720    1.1440 h1        1 GHR      0.101500
     25 H6A         3.8690   -0.0330   -0.6540 h1        1 GHR      0.101500
     26 HO6         3.3130    2.0460    1.1770 ho        1 GHR      0.208000
     27 H4          3.1220   -2.2850    0.7950 ha        1 GHR      0.167000
     28 HO4         0.8910   -0.0360    4.3330 ho        1 GHR      0.210000
     29 H3         -0.0080    0.7760    3.4300 ho        1 GHR      0.210000
     30 HO3        -1.7220   -1.2390    3.2240 ho        1 GHR      0.210000
     31 H2         -0.3010   -1.7430    3.1060 ho        1 GHR      0.210000
     32 HO2        -2.1170   -1.8340    0.4210 ho        1 GHR      0.254000
     33 H10        -0.7990    4.5310   -1.1620 ha        1 GHR      0.144500
     34 H13        -2.8430    4.0220   -4.9010 ha        1 GHR      0.138000
     35 H14        -0.6600    6.2280   -4.5210 ha        1 GHR      0.156000
     36 HN9        -1.7000    2.1230   -3.8910 hn        1 GHR      0.257000
     37 H16         1.1540    1.1190   -0.5590 hn        1 GHR      0.262000
     38 H11        -1.2280    5.9640   -2.2700 ha        1 GHR      0.144500
     39 Cl12       -0.9610    7.2660   -7.0980 cl        1 GHR      0.035000
@<TRIPOS>BOND
     1    1    2 1   
     2    1   10 1   
     3    1   12 1   
     4    2    3 1   
     5    2   37 1   
     6    3    4 1   
     7    3    6 1   
     8    3   23 1   
     9    4    5 1   
    10    4   24 1   
    11    4   25 1   
    12    5   26 1   
    13    6    8 1   
    14    6   27 1   
    15    7   28 1   
    16    7   29 1   
    17    8   10 1   
    18    9   30 1   
    19    9   31 1   
    20   10   11 1   
    21   11   32 1   
    22   12   22 1   
    23   13   14 1   
    24   13   16 1   
    25   13   39 1   
    26   15   18 1   
    27   15   33 1   
    28   15   38 1   
    29   16   17 1   
    30   16   35 1   
    31   17   18 1   
    32   17   34 1   
    33   18   19 1   
    34   19   20 1   
    35   19   36 1   
    36   20   21 1   
    37   20   22 1   
@<TRIPOS>SUBSTRUCTURE
     1 GHR         1 TEMP              0 ****  ****    0 ROOT
