@<TRIPOS>MOLECULE
GHR
   39    36     1     0     0
SMALL
bcc


@<TRIPOS>ATOM
      1 C1          0.7020    1.1540    0.8030 c1        1 GHR      0.388700
      2 N5          2.1430    1.1170    0.8000 n2        1 GHR     -0.634000
      3 C5          2.7340    1.0980    2.1820 c3        1 GHR      0.130500
      4 C6          2.4420   -0.2680    2.8170 c3        1 GHR      0.092400
      5 O6          3.1660   -0.3890    4.0290 oh        1 GHR     -0.590800
      6 C4          2.2180    2.1340    3.0550 c3        1 GHR      0.153100
      7 O4          2.6990    3.4200    2.5900 oh        1 GHR     -0.588800
      8 C3          0.6660    2.1630    3.0910 c3        1 GHR      0.106100
      9 O3          0.1990    0.9730    3.7060 oh        1 GHR     -0.589800
     10 C2          0.0710    2.2700    1.7550 c3        1 GHR      0.129200
     11 O2          0.2000    3.6210    1.1940 oh        1 GHR     -0.595800
     12 N1         -0.0300    0.3420    0.0790 n1        1 GHR     -0.435800
     13 CL12       -5.2880   -3.5350   -5.6250 cl        1 GHR     -0.095400
     14 C12        -3.9320   -2.9110   -4.7190 ce        1 GHR     -0.063700
     15 C11        -4.1180   -1.8670   -3.8270 ce        1 GHR     -0.159100
     16 C10        -3.0290   -1.2920   -3.2010 c1        1 GHR     -0.022800
     17 C13        -2.6550   -3.3760   -4.9830 c1        1 GHR      0.029200
     18 C14        -1.5690   -2.8020   -4.3580 ce        1 GHR     -0.230100
     19 C9         -1.7540   -1.7570   -3.4650 ce        1 GHR      0.014500
     20 N9         -0.6090   -1.1540   -2.8080 n         1 GHR     -0.445100
     21 C8         -0.4100   -1.3450   -1.3990 c         1 GHR      0.984600
     22 O8         -1.0100   -2.2370   -0.8130 o         1 GHR     -0.560800
     23 O7          0.5710   -0.5920   -0.7200 o         1 GHR     -0.560800
     24 H5          3.6960    1.2060    2.1100 h1        1 GHR      0.095700
     25 H6          1.4810   -0.3460    3.0000 h1        1 GHR      0.076200
     26 H6A         2.7190   -0.9870    2.1930 h1        1 GHR      0.076200
     27 HO6         3.2090   -1.2500    4.2650 ho        1 GHR      0.398000
     28 H4          2.5550    1.9780    3.9690 h1        1 GHR      0.090700
     29 HO4         3.1500    3.8280    3.2510 ho        1 GHR      0.426000
     30 H3          0.3770    2.9310    3.6280 h1        1 GHR      0.076700
     31 HO3        -0.3630    1.1810    4.3610 ho        1 GHR      0.412000
     32 H2         -0.9020    2.1750    1.8010 h1        1 GHR      0.069700
     33 HO2        -0.5820    3.8650    0.8120 ho        1 GHR      0.429000
     34 H11        -5.0160   -1.5390   -3.6410 ha        1 GHR      0.154000
     35 H10        -3.1600   -0.5570   -2.5730 DU        1 GHR      0.163000
     36 H13        -2.5240   -4.1130   -5.6120 DU        1 GHR      0.163000
     37 H14        -0.6700   -3.1300   -4.5440 ha        1 GHR      0.139000
     38 HN9         0.0300   -0.7230   -3.3060 hn        1 GHR      0.344500
     39 H16         2.5930    0.7140    0.1010 hn        1 GHR      0.429800
@<TRIPOS>BOND
     1    1   10 1   
     2    1   12 3   
     3    2    3 1   
     4    2   39 1   
     5    3    4 1   
     6    3    6 1   
     7    3   24 1   
     8    4    5 1   
     9    4   25 1   
    10    4   26 1   
    11    5   27 1   
    12    6    7 1   
    13    6    8 1   
    14    6   28 1   
    15    7   29 1   
    16    8    9 1   
    17    8   10 1   
    18    8   30 1   
    19    9   31 1   
    20   10   11 1   
    21   10   32 1   
    22   11   33 1   
    23   13   14 1   
    24   14   15 1   
    25   14   17 2   
    26   15   16 2   
    27   15   34 1   
    28   16   19 2   
    29   17   18 2   
    30   18   19 1   
    31   18   37 1   
    32   19   20 1   
    33   20   21 1   
    34   20   38 1   
    35   21   22 1   
    36   21   23 1   
@<TRIPOS>SUBSTRUCTURE
     1 GHR         1 TEMP              0 ****  ****    0 ROOT
