@<TRIPOS>MOLECULE
GHR
   40    39     1     0     0
SMALL
bcc


@<TRIPOS>ATOM
      1 C1         -0.0160    0.3170   -0.3970 c2        1 GHR      0.161000
      2 N5          1.2020    0.7240    0.0690 n3        1 GHR     -0.298000
      3 C5          1.7320    0.3390    1.3630 c3        1 GHR     -0.022000
      4 C6          3.2770    0.3800    1.3710 c3        1 GHR     -0.033000
      5 O6          3.7380    1.6690    1.0280 oh        1 GHR     -0.333000
      6 C4          1.2720   -1.0730    1.8080 c3        1 GHR      0.060000
      7 O4          1.5140   -1.1100    3.2040 oh        1 GHR     -0.328000
      8 C3         -0.1610   -1.3110    1.4700 c2        1 GHR     -0.158000
      9 O3         -0.4180   -3.3230    3.9070 oh        1 GHR     -0.421000
     10 C2         -0.7690   -0.6640    0.4570 c2        1 GHR      0.030000
     11 O2         -2.1190   -0.8260    0.2620 oh        1 GHR     -0.234000
     12 N1         -0.6100    0.6950   -1.5540 n2        1 GHR     -0.169000
     13 C12        -3.2550    5.8710   -5.4140 c2        1 GHR     -0.404000
     14 C11        -3.0570    6.5290   -4.2820 c1        1 GHR      0.192000
     15 C10        -0.9770    5.3660   -2.8610 c2        1 GHR     -0.004000
     16 C13        -2.4540    4.6760   -5.8280 c3        1 GHR     -0.069000
     17 C14        -1.4050    4.1870   -5.0220 c1        1 GHR     -0.183000
     18 C9         -0.7590    4.4260   -3.8120 c2        1 GHR     -0.131000
     19 N9          0.3430    3.4210   -3.6300 n4        1 GHR     -0.043000
     20 C8          0.2840    2.7310   -2.3100 c2        1 GHR      0.291000
     21 O8          0.4930    3.3120   -1.2520 o         1 GHR     -0.267000
     22 O7          0.0530    1.3810   -2.4610 os        1 GHR     -0.117000
     23 H5          1.3580    1.0830    2.1330 h1        1 GHR      0.124000
     24 H6          3.6220    0.0630    2.3900 h1        1 GHR      0.119000
     25 H6A         3.7080   -0.3040    0.5910 h1        1 GHR      0.119000
     26 HO6         3.6840    2.2200    1.8190 ho        1 GHR      0.214000
     27 H4          1.9010   -1.8650    1.3030 h1        1 GHR      0.106000
     28 HO4         1.1020   -1.9150    3.5520 ho        1 GHR      0.246000
     29 H3         -0.7070   -2.0420    2.0960 ha        1 GHR      0.197000
     30 HO3        -0.2710   -4.2660    4.0200 ho        1 GHR      0.214000
     31 H2         -1.0100   -3.0920    4.6290 ho        1 GHR      0.214000
     32 HO2        -2.2710   -1.0350   -0.6740 ho        1 GHR      0.238000
     33 H13        -3.1620    3.7950   -5.9890 hc        1 GHR      0.201000
     34 H14        -2.0060    4.8720   -6.8590 hc        1 GHR      0.201000
     35 HN9         1.2490    3.8930   -3.7180 hn        1 GHR      0.273500
     36 H16         1.7180    1.4360   -0.4040 hn        1 GHR      0.255000
     37 H11        -1.7870    6.1330   -2.9860 ha        1 GHR      0.201500
     38 CL12       -4.4650    6.3500   -6.5000 cl        1 GHR      0.083000
     39 H92         0.2420    2.7200   -4.3920 hn        1 GHR      0.273500
     40 H10        -0.4040    5.4470   -1.9190 ha        1 GHR      0.201500
@<TRIPOS>BOND
     1    1    2 1   
     2    1   10 1   
     3    1   12 1   
     4    2    3 1   
     5    2   36 1   
     6    3    4 1   
     7    3    6 1   
     8    3   23 1   
     9    4    5 1   
    10    4   24 1   
    11    4   25 1   
    12    5   26 1   
    13    6    7 1   
    14    6    8 1   
    15    6   27 1   
    16    7   28 1   
    17    8   10 1   
    18    8   29 1   
    19    9   30 1   
    20    9   31 1   
    21   10   11 1   
    22   11   32 1   
    23   12   22 1   
    24   13   14 1   
    25   13   16 1   
    26   13   38 1   
    27   15   18 1   
    28   15   37 1   
    29   15   40 1   
    30   16   17 1   
    31   16   33 1   
    32   16   34 1   
    33   17   18 1   
    34   18   19 1   
    35   19   20 1   
    36   19   35 1   
    37   19   39 1   
    38   20   21 1   
    39   20   22 1   
@<TRIPOS>SUBSTRUCTURE
     1 GHR         1 TEMP              0 ****  ****    0 ROOT
