@<TRIPOS>MOLECULE
GHS
   26    25     1     0     0
SMALL
bcc


@<TRIPOS>ATOM
      1 C10         4.3590    0.0540    0.2110 c         1 GHS      0.908600
      2 O11         4.3770    1.0500    0.9900 o         1 GHS     -0.851300
      3 C9          3.0410   -0.7250    0.0450 c3        1 GHS     -0.195400
      4 C8          1.8670    0.2130   -0.0900 c3        1 GHS     -0.065400
      5 C7          0.5460   -0.5270   -0.0480 c3        1 GHS     -0.078400
      6 C6         -0.6190    0.4310   -0.1870 c3        1 GHS     -0.087400
      7 C5         -1.9400   -0.3340   -0.1290 c3        1 GHS      0.174800
      8 N4         -3.0980    0.5220   -0.2890 nh        1 GHS     -0.843200
      9 C3         -4.3740   -0.0300    0.0610 c2        1 GHS      0.745100
     10 N2         -4.6970   -1.3010    0.0780 n2        1 GHS     -0.895100
     11 N1         -5.3840    0.9450    0.3880 nh        1 GHS     -0.882800
     12 O12         5.3680   -0.3560   -0.4320 o         1 GHS     -0.851300
     13 H2          3.1150   -1.3920   -0.8490 hc        1 GHS      0.020200
     14 H3          2.9130   -1.3730    0.9490 hc        1 GHS      0.020200
     15 H4          1.9150    0.9680    0.7400 hc        1 GHS      0.045700
     16 H5          1.9490    0.7770   -1.0550 hc        1 GHS      0.045700
     17 H6          0.5110   -1.2850   -0.8740 hc        1 GHS      0.030200
     18 H7          0.4600   -1.0870    0.9200 hc        1 GHS      0.030200
     19 H8         -0.5760    1.1910    0.6360 hc        1 GHS      0.046200
     20 H9         -0.5360    0.9830   -1.1590 hc        1 GHS      0.046200
     21 H10        -1.9590   -1.0910   -0.9650 h1        1 GHS      0.037700
     22 H11        -1.9780   -0.9050    0.8460 h1        1 GHS      0.037700
     23 H12        -2.9420    1.4480    0.0530 hn        1 GHS      0.400800
     24 H13        -3.9440   -1.9400   -0.0520 hn        1 GHS      0.394400
     25 H14        -5.4100    1.6940   -0.2730 hn        1 GHS      0.384300
     26 H15        -6.2880    0.5280    0.4910 hn        1 GHS      0.384300
@<TRIPOS>BOND
     1    1    2 1   
     2    1    3 1   
     3    1   12 1   
     4    3    4 1   
     5    3   13 1   
     6    3   14 1   
     7    4    5 1   
     8    4   15 1   
     9    4   16 1   
    10    5    6 1   
    11    5   17 1   
    12    5   18 1   
    13    6    7 1   
    14    6   19 1   
    15    6   20 1   
    16    7    8 1   
    17    7   21 1   
    18    7   22 1   
    19    8    9 1   
    20    8   23 1   
    21    9   10 2   
    22    9   11 1   
    23   10   24 1   
    24   11   25 1   
    25   11   26 1   
@<TRIPOS>SUBSTRUCTURE
     1 GHS         1 TEMP              0 ****  ****    0 ROOT
