@<TRIPOS>MOLECULE
GHS
   26    25     1     0     0
SMALL
bcc


@<TRIPOS>ATOM
      1 C10        -0.0150   -0.2110   -0.0370 c         1 GHS      0.908600
      2 O11         0.9800   -0.9910   -0.0830 o         1 GHS     -0.851300
      3 C9         -0.7550   -0.0440    1.3030 c3        1 GHS     -0.195400
      4 C8          0.2160    0.0920    2.4490 c3        1 GHS     -0.065400
      5 C7         -0.4850    0.0510    3.7920 c3        1 GHS     -0.078400
      6 C6          0.5060    0.1910    4.9280 c3        1 GHS     -0.087400
      7 C5         -0.2200    0.1340    6.2710 c3        1 GHS      0.174800
      8 N4          0.6690    0.2940    7.4030 nh        1 GHS     -0.843200
      9 C3          0.1550   -0.0550    8.6940 c2        1 GHS      0.745100
     10 N2         -1.1060   -0.0700    9.0540 n2        1 GHS     -0.895100
     11 N1          1.1580   -0.3810    9.6760 nh        1 GHS     -0.882800
     12 O12        -0.4540    0.4320   -1.0340 o         1 GHS     -0.851300
     13 H2         -1.4230    0.8510    1.2480 hc        1 GHS      0.020200
     14 H3         -1.4000   -0.9470    1.4510 hc        1 GHS      0.020200
     15 H4          0.9690   -0.7390    2.3810 hc        1 GHS      0.045700
     16 H5          0.7790    1.0560    2.3500 hc        1 GHS      0.045700
     17 H6         -1.0420   -0.9160    3.8940 hc        1 GHS      0.030200
     18 H7         -1.2410    0.8770    3.8480 hc        1 GHS      0.030200
     19 H8          1.2650   -0.6340    4.8630 hc        1 GHS      0.046200
     20 H9          1.0570    1.1620    4.8280 hc        1 GHS      0.046200
     21 H10        -0.9750    0.9710    6.3110 h1        1 GHS      0.037700
     22 H11        -0.7900   -0.8400    6.3260 h1        1 GHS      0.037700
     23 H12         1.5910   -0.0490    7.2200 hn        1 GHS      0.400800
     24 H13        -1.7670    0.0590    8.3210 hn        1 GHS      0.394400
     25 H14         0.7680   -0.4840   10.5920 hn        1 GHS      0.384300
     26 H15         1.9080    0.2790    9.6810 hn        1 GHS      0.384300
@<TRIPOS>BOND
     1    1    2 1   
     2    1    3 1   
     3    1   12 1   
     4    3    4 1   
     5    3   13 1   
     6    3   14 1   
     7    4    5 1   
     8    4   15 1   
     9    4   16 1   
    10    5    6 1   
    11    5   17 1   
    12    5   18 1   
    13    6    7 1   
    14    6   19 1   
    15    6   20 1   
    16    7    8 1   
    17    7   21 1   
    18    7   22 1   
    19    8    9 1   
    20    8   23 1   
    21    9   10 2   
    22    9   11 1   
    23   10   24 1   
    24   11   25 1   
    25   11   26 1   
@<TRIPOS>SUBSTRUCTURE
     1 GHS         1 TEMP              0 ****  ****    0 ROOT
