@<TRIPOS>MOLECULE
GHS
   26    22     1     0     0
SMALL
bcc


@<TRIPOS>ATOM
      1 C10         2.2260   -2.3110   -3.6280 c1        1 GHS      0.328000
      2 O11         3.4790   -2.2840   -3.6830 o         1 GHS     -0.582000
      3 C9          1.5280   -2.3350   -2.2850 c3        1 GHS     -0.224000
      4 C8          1.2020   -0.9250   -1.8660 c3        1 GHS     -0.145000
      5 C7          0.5290   -0.9400   -0.4720 c3        1 GHS     -0.157000
      6 C6          0.0000    0.4630   -0.1460 c3        1 GHS     -0.171000
      7 C5         -0.5480    0.4850    1.2910 c3        1 GHS     -0.057000
      8 N4         -1.1150    1.7820    1.5690 n3        1 GHS     -0.333000
      9 C3         -1.7390    2.0290    2.8150 c1        1 GHS      0.157000
     10 N2         -1.1240    1.7150    3.9320 n1        1 GHS     -0.360000
     11 N1         -3.0390    2.6210    2.8580 n2        1 GHS     -0.326000
     12 O12         1.5470   -2.3250   -4.6940 os        1 GHS     -0.589000
     13 H2          2.1150   -2.7460   -1.6210 hc        1 GHS      0.059500
     14 H3          0.7030   -2.8530   -2.3570 hc        1 GHS      0.059500
     15 H4          0.5930   -0.5250   -2.5160 hc        1 GHS      0.085500
     16 H5          2.0280   -0.3970   -1.8240 hc        1 GHS      0.085500
     17 H6         -0.2170   -1.5780   -0.4760 hc        1 GHS      0.070000
     18 H7          1.1800   -1.2070    0.2010 hc        1 GHS      0.070000
     19 H8          0.7280    1.1120   -0.2270 hc        1 GHS      0.084500
     20 H9         -0.7140    0.6940   -0.7700 hc        1 GHS      0.084500
     21 H10         0.1850    0.3040    1.9250 h1        1 GHS      0.078000
     22 H11        -1.2420   -0.2040    1.3870 h1        1 GHS      0.078000
     23 H12        -1.1130    2.4230    0.9300 hn        1 GHS      0.198000
     24 H13        -0.2970    1.3380    3.9060 DU        1 GHS      0.151000
     25 H14        -3.4410    2.7920    3.6710 hn        1 GHS      0.178000
     26 H15        -3.4540    2.8730    2.0810 hn        1 GHS      0.178000
@<TRIPOS>BOND
     1    1    2 1   
     2    1    3 1   
     3    3    4 1   
     4    3   13 1   
     5    3   14 1   
     6    4    5 1   
     7    4   15 1   
     8    4   16 1   
     9    5    6 1   
    10    5   17 1   
    11    5   18 1   
    12    6    7 1   
    13    6   19 1   
    14    6   20 1   
    15    7    8 1   
    16    7   21 1   
    17    7   22 1   
    18    8    9 1   
    19    8   23 1   
    20    9   10 1   
    21   11   25 1   
    22   11   26 1   
@<TRIPOS>SUBSTRUCTURE
     1 GHS         1 TEMP              0 ****  ****    0 ROOT
