@<TRIPOS>MOLECULE
GHW
   47    49     1     0     0
SMALL
bcc


@<TRIPOS>ATOM
      1 C4          5.2930    0.8390   -0.0850 cc        1 GHW      0.161300
      2 C5          4.5610   -0.2760   -0.5580 cd        1 GHW     -0.226600
      3 C6          5.2700   -1.3110   -1.2930 c         1 GHW      0.739100
      4 N1          6.6650   -1.0960   -1.4490 n         1 GHW     -0.502400
      5 C3          2.9130    0.9700    0.4860 cc        1 GHW     -0.123400
      6 N3          6.6500    1.0130   -0.2570 nc        1 GHW     -0.644100
      7 S4          4.2910    1.9080    0.7210 ss        1 GHW      0.059200
      8 C2          7.2930    0.0620   -0.9550 cd        1 GHW      0.625800
      9 O6          4.8220   -2.3570   -1.7920 o         1 GHW     -0.617500
     10 C1          3.1620   -0.1970   -0.2220 cd        1 GHW      0.016900
     11 SAT         2.1380   -1.4260   -0.7090 ss        1 GHW     -0.028800
     12 CAZ         0.5870   -1.1300   -0.0730 ca        1 GHW     -0.104100
     13 CAJ        -0.3460   -0.3430   -0.7560 ca        1 GHW     -0.094500
     14 CAL        -1.6520   -0.2110   -0.2820 ca        1 GHW     -0.118500
     15 CAI         0.1970   -1.7970    1.0960 ca        1 GHW     -0.094500
     16 CAK        -1.1050   -1.6770    1.5730 ca        1 GHW     -0.118500
     17 CBA        -2.0270   -0.8800    0.8870 ca        1 GHW     -0.088600
     18 CAX        -3.4140   -0.6820    1.4390 c         1 GHW      0.655700
     19 OAE        -3.5440   -0.2760    2.6190 o         1 GHW     -0.656100
     20 NAS        -4.4490   -1.0360    0.6220 n         1 GHW     -0.479900
     21 CAP        -5.7890   -0.4930    0.7480 c3        1 GHW     -0.037300
     22 CAW        -6.8680   -1.5650    0.3690 c         1 GHW      0.917600
     23 OAG        -6.6510   -2.3450   -0.6000 o         1 GHW     -0.849800
     24 OAD        -7.9200   -1.5780    1.0680 o         1 GHW     -0.849800
     25 CBG        -6.0020    0.7370   -0.1550 c3        1 GHW     -0.074400
     26 CAN        -5.1860    1.9440    0.2530 c3        1 GHW     -0.191400
     27 CAV        -4.4660    2.6090   -0.9240 c         1 GHW      0.909600
     28 OXT        -4.8060    3.7820   -1.2640 o         1 GHW     -0.875300
     29 OAC        -3.5210    1.9880   -1.5080 o         1 GHW     -0.875300
     30 H13         1.7840    2.4080    1.5920 hc        1 GHW      0.063700
     31 H13A        0.9090    1.6550    0.1890 hc        1 GHW      0.063700
     32 H13B        1.1750    0.6990    1.7010 hc        1 GHW      0.063700
     33 HN1         7.1700   -1.7390   -2.0170 hn        1 GHW      0.326500
     34 HN2         9.2230   -0.5720   -1.0270 hn        1 GHW      0.392800
     35 HN2A        9.0590    1.0660   -0.8700 hn        1 GHW      0.392800
     36 HAJ        -0.0530    0.1840   -1.6780 ha        1 GHW      0.133000
     37 HAL        -2.3840    0.4510   -0.8110 ha        1 GHW      0.193500
     38 HAI         0.9260   -2.4190    1.6360 ha        1 GHW      0.133000
     39 HAK        -1.4140   -2.1890    2.4960 ha        1 GHW      0.193500
     40 HNAS       -4.2330   -1.3490   -0.3010 hn        1 GHW      0.314500
     41 HAP        -5.9490   -0.1980    1.8230 h1        1 GHW      0.066700
     42 HBG        -5.7650    0.4580   -1.2160 hc        1 GHW      0.046200
     43 HBGA       -7.0960    0.9810   -0.1120 hc        1 GHW      0.046200
     44 HAN        -5.8530    2.7030    0.7380 hc        1 GHW      0.024200
     45 HANA       -4.4070    1.6590    1.0070 hc        1 GHW      0.024200
     46 C13         1.6390    1.4580    1.0190 c3        1 GHW     -0.038800
     47 N2          8.6790    0.2300   -1.2680 nh        1 GHW     -0.874800
@<TRIPOS>BOND
     1    1    2 2   
     2    1    6 1   
     3    1    7 1   
     4    2    3 1   
     5    2   10 1   
     6    3    4 1   
     7    3    9 2   
     8    4    8 1   
     9    4   33 1   
    10    5    7 1   
    11    5   10 2   
    12    5   46 1   
    13    6    8 2   
    14    8   47 1   
    15   10   11 1   
    16   11   12 1   
    17   12   13 ar  
    18   12   15 ar  
    19   13   14 ar  
    20   13   36 1   
    21   14   17 ar  
    22   14   37 1   
    23   15   16 ar  
    24   15   38 1   
    25   16   17 ar  
    26   16   39 1   
    27   17   18 1   
    28   18   19 2   
    29   18   20 1   
    30   20   21 1   
    31   20   40 1   
    32   21   22 1   
    33   21   25 1   
    34   21   41 1   
    35   22   23 1   
    36   22   24 1   
    37   25   26 1   
    38   25   42 1   
    39   25   43 1   
    40   26   27 1   
    41   26   44 1   
    42   26   45 1   
    43   27   28 1   
    44   27   29 1   
    45   30   46 1   
    46   31   46 1   
    47   32   46 1   
    48   34   47 1   
    49   35   47 1   
@<TRIPOS>SUBSTRUCTURE
     1 GHW         1 TEMP              0 ****  ****    0 ROOT
