@<TRIPOS>MOLECULE
GHW
   47    44     1     0     0
SMALL
bcc


@<TRIPOS>ATOM
      1 C4         -1.9850    4.8850    0.1750 c1        1 GHW     -0.022000
      2 C5         -0.6050    4.5320    0.3350 c1        1 GHW     -0.064000
      3 C6          0.0060    4.5260    1.6920 c1        1 GHW      0.325000
      4 C13        -0.7380    4.3870   -3.5950 c3        1 GHW     -0.119000
      5 N1         -0.7770    4.8680    2.8230 n3        1 GHW     -0.366000
      6 N2         -2.9780    5.5230    3.8030 n3        1 GHW     -0.334000
      7 C3         -1.0430    4.3660   -2.0990 c2        1 GHW     -0.061000
      8 N3         -2.7760    5.2320    1.3270 n1        1 GHW     -0.289000
      9 S4         -2.3300    4.7990   -1.3530 ss        1 GHW     -0.017000
     10 C2         -2.1760    5.2250    2.6570 c2        1 GHW      0.263000
     11 O6          1.1970    4.3010    1.8230 o         1 GHW     -0.289000
     12 C1          0.0040    4.1990   -1.1150 c1        1 GHW     -0.187000
     13 SAT        -1.3470    3.3330   -0.3510 s         1 GHW      0.193000
     14 CAZ        -1.0870    1.5760   -0.4990 c2        1 GHW     -0.283000
     15 CAJ         0.2070    1.0650   -0.5260 c2        1 GHW     -0.081000
     16 CAL         0.4120   -0.3100   -0.5410 c1        1 GHW     -0.120000
     17 CAI        -2.1750    0.7110   -0.4870 c1        1 GHW     -0.084000
     18 CAK        -1.9710   -0.6640   -0.5010 c1        1 GHW     -0.115000
     19 CBA        -0.6770   -1.1750   -0.5280 c1        1 GHW     -0.044000
     20 CAX        -0.4520   -2.6840   -0.4590 c2        1 GHW      0.317000
     21 OAE        -1.4060   -3.4440   -0.4620 o         1 GHW     -0.413000
     22 NAS         0.8780   -3.2060   -0.4080 n         1 GHW     -0.282000
     23 CAP         1.0940   -4.5700   -0.0700 c3        1 GHW     -0.073000
     24 CAW         0.8100   -4.7750    1.4010 c2        1 GHW      0.324000
     25 OAG        -0.2090   -5.4270    1.7630 o         1 GHW     -0.584500
     26 OAD         1.5620   -4.2470    2.2680 o         1 GHW     -0.584500
     27 CBG         2.5400   -4.9450   -0.3660 c3        1 GHW     -0.133000
     28 CAN         2.6360   -6.4540   -0.6100 c3        1 GHW     -0.212000
     29 CAV         4.0570   -6.9270   -0.3170 c2        1 GHW      0.324000
     30 OXT         4.3320   -7.4420    0.8020 o         1 GHW     -0.608000
     31 OAC         4.9590   -6.7940   -1.1890 o         1 GHW     -0.608000
     32 H13        -0.4650    5.2930   -3.8600 hc        1 GHW      0.102667
     33 H13A       -0.0110    3.7560   -3.7890 hc        1 GHW      0.102667
     34 H13B       -1.5410    4.1270   -4.0970 hc        1 GHW      0.102667
     35 HN1        -0.3990    4.8720    3.6590 hn        1 GHW      0.249000
     36 HN2        -2.5780    5.7750    4.5890 hn        1 GHW      0.214000
     37 HN2A       -3.8900    5.4450    3.7570 hn        1 GHW      0.214000
     38 HAJ         0.9740    1.6760   -0.5760 ha        1 GHW      0.140000
     39 HAL         1.3230   -0.6690   -0.5600 ha        1 GHW      0.170000
     40 HAI        -3.0880    1.0710   -0.4680 ha        1 GHW      0.134000
     41 HAK        -2.7390   -1.2750   -0.5130 ha        1 GHW      0.156000
     42 HNAS        1.5900   -2.6640   -0.5970 hn        1 GHW      0.231000
     43 HAP         0.4930   -5.1380   -0.6010 h1        1 GHW      0.110000
     44 HBG         3.1050   -4.7000    0.3990 hc        1 GHW      0.091000
     45 HBGA        2.8460   -4.4630   -1.1670 hc        1 GHW      0.091000
     46 HAN         2.4130   -6.6500   -1.5480 hc        1 GHW      0.058000
     47 HANA        2.0070   -6.9220   -0.0200 hc        1 GHW      0.058000
@<TRIPOS>BOND
     1    1    2 1   
     2    1    9 1   
     3    2   12 1   
     4    3    5 1   
     5    3   11 1   
     6    4    7 1   
     7    4   32 1   
     8    4   33 1   
     9    4   34 1   
    10    5   10 1   
    11    5   35 1   
    12    6   10 1   
    13    6   36 1   
    14    6   37 1   
    15    7    9 1   
    16    7   12 1   
    17    8   10 1   
    18   13   14 1   
    19   14   15 1   
    20   14   17 1   
    21   15   16 1   
    22   15   38 1   
    23   16   39 1   
    24   17   40 1   
    25   18   19 1   
    26   18   41 1   
    27   19   20 1   
    28   20   21 1   
    29   20   22 1   
    30   22   23 1   
    31   22   42 1   
    32   23   24 1   
    33   23   27 1   
    34   23   43 1   
    35   24   25 1   
    36   24   26 1   
    37   27   28 1   
    38   27   44 1   
    39   27   45 1   
    40   28   29 1   
    41   28   46 1   
    42   28   47 1   
    43   29   30 1   
    44   29   31 1   
@<TRIPOS>SUBSTRUCTURE
     1 GHW         1 TEMP              0 ****  ****    0 ROOT
