@<TRIPOS>MOLECULE
GI1
   35    31     1     0     0
SMALL
bcc


@<TRIPOS>ATOM
      1 C1          0.6990    0.0100   -0.6990 c1        1 GI1      0.072000
      2 C2          2.3100   -0.0060   -0.6840 c2        1 GI1      0.054000
      3 O2          2.7920    1.2170   -1.3990 oh        1 GI1     -0.318000
      4 C3          2.9220   -0.0370    0.5780 c3        1 GI1      0.013000
      5 O3          3.0680    1.4100    1.0740 oh        1 GI1     -0.320000
      6 C4          2.2210   -0.8150    1.6460 c3        1 GI1      0.021000
      7 C80        -1.3220   -0.0470    0.3910 c1        1 GI1     -0.073000
      8 N10        -0.0250   -0.1280    0.6280 n2        1 GI1     -0.084000
      9 O4          2.3080   -2.2390    1.2960 oh        1 GI1     -0.326000
     10 C5          0.8170   -0.4970    1.8760 c2        1 GI1     -0.005000
     11 C6          0.7460    0.6870    2.8790 c3        1 GI1     -0.032000
     12 O6         -0.0680    0.3240    3.9910 oh        1 GI1     -0.348000
     13 N1         -0.2400    0.1710   -1.6760 n2        1 GI1     -0.084000
     14 C7         -1.5110    0.1450   -1.0700 c1        1 GI1     -0.073000
     15 C8         -2.8390    0.3240   -1.7790 c2        1 GI1      0.220000
     16 O8         -2.8510    1.5720   -2.4690 oh        1 GI1     -0.322000
     17 C9         -4.3670   -0.9480   -3.0250 c3        1 GI1     -0.072000
     18 O9         -3.0310   -0.7250   -2.7020 os        1 GI1     -0.331000
     19 H2          2.6270   -0.8310   -1.2110 h4        1 GI1      0.155000
     20 H1         -0.0720    0.2770   -2.5710 DU        1 GI1      0.285000
     21 HA          3.2330    0.9790   -2.1290 ho        1 GI1      0.244000
     22 H3          3.8180   -0.4120    0.4670 h1        1 GI1      0.128000
     23 HB          3.8890    1.6080    1.1310 ho        1 GI1      0.242000
     24 H4          2.6760   -0.6870    2.4380 h1        1 GI1      0.138000
     25 HC          2.7540   -2.6910    1.9650 ho        1 GI1      0.236000
     26 H5          0.4240   -1.2270    2.2750 ha        1 GI1      0.152000
     27 H80        -2.0370   -0.1030    1.0630 DU        1 GI1      0.285000
     28 H6C1        1.6730    0.9090    3.2020 h1        1 GI1      0.108500
     29 H6C2        0.3690    1.4470    2.4460 h1        1 GI1      0.108500
     30 H6          0.0330    0.9090    4.6280 ho        1 GI1      0.237000
     31 H8         -3.5440    0.3110   -1.1370 h5        1 GI1      0.155000
     32 HD         -3.4730    2.0940   -2.1230 ho        1 GI1      0.235000
     33 H9C1       -4.6370   -0.3330   -3.6830 h1        1 GI1      0.098667
     34 H9C2       -4.8930   -0.8380   -2.2620 h1        1 GI1      0.098667
     35 H9C3       -4.4710   -1.8320   -3.3560 h1        1 GI1      0.098667
@<TRIPOS>BOND
     1    1    8 1   
     2    1   13 1   
     3    2    3 1   
     4    2    4 1   
     5    2   19 1   
     6    3   21 1   
     7    4    5 1   
     8    4    6 1   
     9    4   22 1   
    10    5   23 1   
    11    6    9 1   
    12    6   10 1   
    13    6   24 1   
    14    7    8 1   
    15    7   14 1   
    16    9   25 1   
    17   10   11 1   
    18   10   26 1   
    19   11   12 1   
    20   11   28 1   
    21   11   29 1   
    22   12   30 1   
    23   13   14 1   
    24   15   16 1   
    25   15   18 1   
    26   15   31 1   
    27   16   32 1   
    28   17   18 1   
    29   17   33 1   
    30   17   34 1   
    31   17   35 1   
@<TRIPOS>SUBSTRUCTURE
     1 GI1         1 TEMP              0 ****  ****    0 ROOT
