@<TRIPOS>MOLECULE
GI1
   35    36     1     0     0
SMALL
bcc


@<TRIPOS>ATOM
      1 C1         -1.2150    1.8350    0.6090 cc        1 GI1      0.024100
      2 C2         -1.3110    0.3640    0.2900 c3        1 GI1      0.215400
      3 O2         -2.1680    0.2330   -0.8240 oh        1 GI1     -0.594800
      4 C3         -1.8660   -0.3580    1.5340 c3        1 GI1      0.107100
      5 O3         -1.7590   -1.7350    1.2420 oh        1 GI1     -0.589800
      6 C4         -1.0170    0.0020    2.7670 c3        1 GI1      0.098100
      7 C80        -1.0190    3.7400    1.8080 cc        1 GI1     -0.094300
      8 N10        -1.0920    2.3430    1.8900 na        1 GI1     -0.012100
      9 O4         -1.6070   -0.6900    3.8500 oh        1 GI1     -0.582800
     10 C5         -1.0650    1.5250    3.0940 c3        1 GI1      0.004000
     11 C6          0.1080    1.8710    4.0350 c3        1 GI1      0.117400
     12 O6          1.3090    1.5290    3.3720 oh        1 GI1     -0.609800
     13 N1         -1.2340    2.8850   -0.2750 na        1 GI1     -0.089100
     14 C7         -1.1140    4.0820    0.4490 cd        1 GI1     -0.114600
     15 C8         -1.1180    5.4650   -0.1490 c3        1 GI1      0.409200
     16 O8         -0.0530    6.2350    0.3310 oh        1 GI1     -0.597800
     17 O9         -0.9320    5.3430   -1.5460 os        1 GI1     -0.470600
     18 H2         -0.2810   -0.0260    0.0350 h1        1 GI1      0.111700
     19 H1         -1.3410    2.8120   -1.2660 hn        1 GI1      0.376700
     20 HA         -2.3620   -0.7150   -0.9170 ho        1 GI1      0.466000
     21 H3         -2.9440   -0.0810    1.7070 h1        1 GI1      0.084700
     22 HB         -2.1030   -2.2160    2.0100 ho        1 GI1      0.450000
     23 H4          0.0510   -0.3160    2.6030 h1        1 GI1      0.101700
     24 HC         -0.9050   -0.9140    4.4750 ho        1 GI1      0.433000
     25 H5         -2.0270    1.7360    3.6560 h1        1 GI1      0.115700
     26 H80        -0.9030    4.3850    2.6850 h4        1 GI1      0.233000
     27 H6C1       -0.0180    1.2570    4.9690 h1        1 GI1      0.058200
     28 H6C2        0.1000    2.9620    4.3020 h1        1 GI1      0.058200
     29 H6          2.0380    1.7520    3.9670 ho        1 GI1      0.438000
     30 H8         -2.0660    6.0080    0.1360 h2        1 GI1      0.116700
     31 HD          0.7560    5.9770   -0.1360 ho        1 GI1      0.439000
     32 H9C1       -2.4560    6.6120   -2.2090 h1        1 GI1      0.060700
     33 H9C2       -1.0370    6.2630   -3.3320 h1        1 GI1      0.060700
     34 H9C3       -0.8250    7.4040   -1.8990 h1        1 GI1      0.060700
     35 C9         -1.3480    6.4930   -2.2820 c3        1 GI1      0.116700
@<TRIPOS>BOND
     1    1    2 1   
     2    1    8 2   
     3    1   13 1   
     4    2    3 1   
     5    2    4 1   
     6    2   18 1   
     7    3   20 1   
     8    4    5 1   
     9    4    6 1   
    10    4   21 1   
    11    5   22 1   
    12    6    9 1   
    13    6   10 1   
    14    6   23 1   
    15    7    8 1   
    16    7   14 2   
    17    7   26 1   
    18    8   10 1   
    19    9   24 1   
    20   10   11 1   
    21   10   25 1   
    22   11   12 1   
    23   11   27 1   
    24   11   28 1   
    25   12   29 1   
    26   13   14 1   
    27   13   19 1   
    28   14   15 1   
    29   15   16 1   
    30   15   17 1   
    31   15   30 1   
    32   16   31 1   
    33   17   35 1   
    34   32   35 1   
    35   33   35 1   
    36   34   35 1   
@<TRIPOS>SUBSTRUCTURE
     1 GI1         1 TEMP              0 ****  ****    0 ROOT
