@<TRIPOS>MOLECULE
GI2
   36    37     1     0     0
SMALL
bcc


@<TRIPOS>ATOM
      1 C1         -0.4600    5.6290    0.3480 c3        1 GI2     -0.082100
      2 C2          0.4840    5.7950   -0.8080 c         1 GI2      0.638100
      3 C4          1.7900    7.3540   -2.0440 c3        1 GI2      0.123700
      4 C1B        -0.6050    1.9770    0.8170 cc        1 GI2      0.021100
      5 C2B        -0.4280    0.5310    0.4290 c3        1 GI2      0.216400
      6 C3B        -1.3720   -0.3240    1.2980 c3        1 GI2      0.108100
      7 C4B        -1.1810    0.0180    2.7890 c3        1 GI2      0.096100
      8 C5B        -1.5220    1.5020    3.1030 c3        1 GI2     -0.034000
      9 C6B        -0.9500    1.8870    4.4890 c3        1 GI2      0.117400
     10 O2B        -0.7460    0.4250   -0.9430 oh        1 GI2     -0.587800
     11 O3B        -0.9920   -1.6620    1.0490 oh        1 GI2     -0.589800
     12 O4B        -2.1060   -0.8010    3.4780 oh        1 GI2     -0.577800
     13 N1B        -1.0880    2.3980    2.0430 na        1 GI2     -0.006100
     14 O6B         0.4540    1.9590    4.4710 oh        1 GI2     -0.581800
     15 N2B        -0.3220    3.0830    0.0580 na        1 GI2     -0.095100
     16 C7B        -0.6070    4.2340    0.8120 cc        1 GI2     -0.068600
     17 C8B        -1.0850    3.7980    2.0630 cd        1 GI2     -0.108300
     18 O1          0.9150    7.0740   -0.9410 os        1 GI2     -0.411900
     19 O5          0.8660    4.9370   -1.6120 o         1 GI2     -0.560000
     20 H1C1       -0.1070    6.2690    1.2060 hc        1 GI2      0.125700
     21 H1C2       -1.4670    6.0250    0.0230 hc        1 GI2      0.125700
     22 H4C1        1.9870    8.4500   -1.9370 h1        1 GI2      0.069033
     23 H4C2        1.2720    7.1170   -3.0040 h1        1 GI2      0.069033
     24 H4C3        2.7240    6.7520   -1.9450 h1        1 GI2      0.069033
     25 H2B         0.6470    0.2310    0.6040 h1        1 GI2      0.108700
     26 HA          0.0430    3.0790   -0.8820 hn        1 GI2      0.392700
     27 H3B        -2.4450   -0.1600    0.9990 h1        1 GI2      0.088700
     28 HB         -0.7420   -0.5230   -1.1570 ho        1 GI2      0.464000
     29 H4B        -0.1220   -0.2050    3.0970 h1        1 GI2      0.075700
     30 HC         -1.6050   -2.2280    1.5430 ho        1 GI2      0.449000
     31 H5B        -2.6520    1.5900    3.1660 h1        1 GI2      0.117700
     32 HD         -1.7470   -0.9860    4.3550 ho        1 GI2      0.429000
     33 H6B1       -1.3370    1.1410    5.2320 h1        1 GI2      0.076700
     34 H6B2       -1.3020    2.9170    4.7770 h1        1 GI2      0.076700
     35 H6B         0.8080    1.1160    4.7830 ho        1 GI2      0.419000
     36 H8B        -1.3990    4.3750    2.9370 h4        1 GI2      0.228000
@<TRIPOS>BOND
     1    1    2 1   
     2    1   16 1   
     3    1   20 1   
     4    1   21 1   
     5    2   18 1   
     6    2   19 2   
     7    3   18 1   
     8    3   22 1   
     9    3   23 1   
    10    3   24 1   
    11    4    5 1   
    12    4   13 2   
    13    4   15 1   
    14    5    6 1   
    15    5   10 1   
    16    5   25 1   
    17    6    7 1   
    18    6   11 1   
    19    6   27 1   
    20    7    8 1   
    21    7   12 1   
    22    7   29 1   
    23    8    9 1   
    24    8   13 1   
    25    8   31 1   
    26    9   14 1   
    27    9   33 1   
    28    9   34 1   
    29   10   28 1   
    30   11   30 1   
    31   12   32 1   
    32   13   17 1   
    33   14   35 1   
    34   15   16 1   
    35   15   26 1   
    36   16   17 2   
    37   17   36 1   
@<TRIPOS>SUBSTRUCTURE
     1 GI2         1 TEMP              0 ****  ****    0 ROOT
