@<TRIPOS>MOLECULE
GI2
   36    37     1     0     0
SMALL
bcc


@<TRIPOS>ATOM
      1 C1          0.2700    0.6100   -0.0460 c3        1 GI2     -0.082100
      2 C2          1.3270   -0.4510   -0.1580 c         1 GI2      0.637100
      3 C4          3.1400   -1.2600   -1.4700 c3        1 GI2      0.123700
      4 C1B        -0.9420    0.2470    3.4140 cc        1 GI2      0.031100
      5 C2B        -1.1670   -0.4570    4.7290 c3        1 GI2      0.215400
      6 C3B        -2.4000    0.1740    5.4070 c3        1 GI2      0.106100
      7 C4B        -2.2320    1.7020    5.4810 c3        1 GI2      0.098100
      8 C5B        -2.1390    2.3530    4.0690 c3        1 GI2      0.004000
      9 C6B        -1.5780    3.7830    4.2130 c3        1 GI2      0.117400
     10 O2B        -1.3680   -1.8240    4.4420 oh        1 GI2     -0.590800
     11 O3B        -2.4350   -0.3850    6.7040 oh        1 GI2     -0.589800
     12 O4B        -3.4070    2.1850    6.1020 oh        1 GI2     -0.582800
     13 N1B        -1.3800    1.5300    3.1380 na        1 GI2     -0.010100
     14 O6B        -0.2990    3.6870    4.8070 oh        1 GI2     -0.608800
     15 N2B        -0.2950   -0.2400    2.3080 na        1 GI2     -0.098100
     16 C7B        -0.3020    0.7500    1.3090 cc        1 GI2     -0.067600
     17 C8B        -0.9830    1.8630    1.8370 cd        1 GI2     -0.117300
     18 O1          2.1230   -0.2720   -1.2410 os        1 GI2     -0.411900
     19 O5          1.5160   -1.4220    0.5840 o         1 GI2     -0.559000
     20 H1C1        0.7040    1.5990   -0.3700 hc        1 GI2      0.124700
     21 H1C2       -0.5510    0.3460   -0.7750 hc        1 GI2      0.124700
     22 H4C1        3.8450   -1.2810   -0.6050 h1        1 GI2      0.068700
     23 H4C2        2.6680   -2.2610   -1.6130 h1        1 GI2      0.068700
     24 H4C3        3.6380   -0.8970   -2.4040 h1        1 GI2      0.068700
     25 H2B        -0.2500   -0.3250    5.3780 h1        1 GI2      0.111700
     26 HA          0.1280   -1.1500    2.2220 hn        1 GI2      0.392700
     27 H3B        -3.3400   -0.0890    4.8460 h1        1 GI2      0.084700
     28 HB         -1.6480   -2.2450    5.2720 ho        1 GI2      0.465000
     29 H4B        -1.3110    1.9600    6.0760 h1        1 GI2      0.101700
     30 HC         -3.2100   -0.0130    7.1520 ho        1 GI2      0.449000
     31 H5B        -3.1900    2.4400    3.6490 h1        1 GI2      0.115700
     32 HD         -3.1690    2.9680    6.6170 ho        1 GI2      0.433000
     33 H6B1       -2.2840    4.3540    4.8770 h1        1 GI2      0.057200
     34 H6B2       -1.5120    4.2920    3.2140 h1        1 GI2      0.057200
     35 H6B         0.0340    4.5880    4.9180 ho        1 GI2      0.437000
     36 H8B        -1.1990    2.8340    1.3840 h4        1 GI2      0.225000
@<TRIPOS>BOND
     1    1    2 1   
     2    1   16 1   
     3    1   20 1   
     4    1   21 1   
     5    2   18 1   
     6    2   19 2   
     7    3   18 1   
     8    3   22 1   
     9    3   23 1   
    10    3   24 1   
    11    4    5 1   
    12    4   13 2   
    13    4   15 1   
    14    5    6 1   
    15    5   10 1   
    16    5   25 1   
    17    6    7 1   
    18    6   11 1   
    19    6   27 1   
    20    7    8 1   
    21    7   12 1   
    22    7   29 1   
    23    8    9 1   
    24    8   13 1   
    25    8   31 1   
    26    9   14 1   
    27    9   33 1   
    28    9   34 1   
    29   10   28 1   
    30   11   30 1   
    31   12   32 1   
    32   13   17 1   
    33   14   35 1   
    34   15   16 1   
    35   15   26 1   
    36   16   17 2   
    37   17   36 1   
@<TRIPOS>SUBSTRUCTURE
     1 GI2         1 TEMP              0 ****  ****    0 ROOT
