@<TRIPOS>MOLECULE
GI2
   36    37     1     0     0
SMALL
bcc


@<TRIPOS>ATOM
      1 C1          0.3140    0.6650   -0.0500 c3        1 GI2     -0.082100
      2 C2          1.3610   -0.4060   -0.1670 c         1 GI2      0.638100
      3 C4          3.1760   -1.2180   -1.4740 c3        1 GI2      0.123700
      4 C1B        -0.9450    0.2600    3.3890 cc        1 GI2      0.022100
      5 C2B        -1.1820   -0.4540    4.6970 c3        1 GI2      0.185400
      6 C3B        -2.4140    0.1860    5.3730 c3        1 GI2      0.068100
      7 C4B        -2.2120    1.7030    5.4700 c3        1 GI2      0.099100
      8 C5B        -2.1380    2.3610    4.0600 c3        1 GI2      0.001000
      9 C6B        -1.5710    3.7890    4.2250 c3        1 GI2      0.122400
     10 O2B        -1.3790   -1.8200    4.4040 oh        1 GI2     -0.586800
     11 O3B        -2.6330   -0.4180    6.6240 oh        1 GI2     -0.564800
     12 O4B        -3.2290    2.3250    6.2140 oh        1 GI2     -0.558800
     13 N1B        -1.3870    1.5440    3.1180 na        1 GI2     -0.011100
     14 O6B        -0.2410    3.6790    4.6930 oh        1 GI2     -0.610800
     15 N2B        -0.2830   -0.2130    2.2860 na        1 GI2     -0.095100
     16 C7B        -0.2790    0.7870    1.2980 cc        1 GI2     -0.069600
     17 C8B        -0.9700    1.8930    1.8290 cd        1 GI2     -0.109300
     18 O1          2.1660   -0.2230   -1.2420 os        1 GI2     -0.411900
     19 O5          1.5340   -1.3860    0.5660 o         1 GI2     -0.560000
     20 H1C1       -0.4980    0.4270   -0.7980 hc        1 GI2      0.124700
     21 H1C2        0.7650    1.6550   -0.3460 hc        1 GI2      0.124700
     22 H4C1        2.6950   -2.2130   -1.6310 h1        1 GI2      0.069367
     23 H4C2        3.8740   -1.2530   -0.6040 h1        1 GI2      0.069367
     24 H4C3        3.6830   -0.8490   -2.4010 h1        1 GI2      0.069367
     25 H2B        -0.2620   -0.3370    5.3430 h1        1 GI2      0.101700
     26 HA          0.1460   -1.1220    2.1960 hn        1 GI2      0.392700
     27 H3B        -3.3420   -0.0640    4.7770 h1        1 GI2      0.105700
     28 HB         -1.8620   -2.2070    5.1540 ho        1 GI2      0.463000
     29 H4B        -1.2600    1.9450    6.0330 h1        1 GI2      0.121700
     30 HC         -2.0920    0.0340    7.2880 ho        1 GI2      0.433000
     31 H5B        -3.1880    2.4610    3.6450 h1        1 GI2      0.100700
     32 HD         -4.0750    1.9060    5.9960 ho        1 GI2      0.427000
     33 H6B1       -2.2280    4.3200    4.9670 h1        1 GI2      0.067200
     34 H6B2       -1.5810    4.3340    3.2430 h1        1 GI2      0.067200
     35 H6B        -0.0090    4.5260    5.0980 ho        1 GI2      0.439000
     36 H8B        -1.1750    2.8720    1.3880 h4        1 GI2      0.227000
@<TRIPOS>BOND
     1    1    2 1   
     2    1   16 1   
     3    1   20 1   
     4    1   21 1   
     5    2   18 1   
     6    2   19 2   
     7    3   18 1   
     8    3   22 1   
     9    3   23 1   
    10    3   24 1   
    11    4    5 1   
    12    4   13 2   
    13    4   15 1   
    14    5    6 1   
    15    5   10 1   
    16    5   25 1   
    17    6    7 1   
    18    6   11 1   
    19    6   27 1   
    20    7    8 1   
    21    7   12 1   
    22    7   29 1   
    23    8    9 1   
    24    8   13 1   
    25    8   31 1   
    26    9   14 1   
    27    9   33 1   
    28    9   34 1   
    29   10   28 1   
    30   11   30 1   
    31   12   32 1   
    32   13   17 1   
    33   14   35 1   
    34   15   16 1   
    35   15   26 1   
    36   16   17 2   
    37   17   36 1   
@<TRIPOS>SUBSTRUCTURE
     1 GI2         1 TEMP              0 ****  ****    0 ROOT
