@<TRIPOS>MOLECULE
GI2
   36    34     1     0     0
SMALL
bcc


@<TRIPOS>ATOM
      1 C1          1.5520   -0.5070   -2.8320 c3        1 GI2     -0.121000
      2 C2          0.6290   -1.3880   -3.6430 c2        1 GI2      0.309000
      3 C4          0.6290   -2.8020   -5.5230 c3        1 GI2     -0.066000
      4 C1B         0.4990   -0.5490    0.7730 c1        1 GI2      0.077000
      5 C2B         0.2470   -0.9970    2.3040 c2        1 GI2      0.101000
      6 C3B        -0.7510   -0.2770    3.0180 c3        1 GI2     -0.033000
      7 C4B        -0.8750    1.1560    2.7140 c3        1 GI2     -0.025000
      8 C5B        -1.0270    1.5170    1.3140 c3        1 GI2     -0.068000
      9 C6B        -0.6080    2.9550    1.1550 c3        1 GI2     -0.012000
     10 O2B         1.5070   -0.8620    3.0250 oh        1 GI2     -0.316000
     11 O3B        -0.4510   -0.4140    4.5050 oh        1 GI2     -0.317000
     12 O4B        -2.0830    1.6890    3.4660 oh        1 GI2     -0.299000
     13 N1B        -0.2200    0.6590    0.2740 n3        1 GI2     -0.076000
     14 O6B        -1.5950    3.7910    1.6940 oh        1 GI2     -0.301000
     15 N2B         1.1820   -1.0830   -0.2620 n2        1 GI2     -0.099000
     16 C7B         0.9420   -0.2820   -1.4070 c2        1 GI2     -0.034000
     17 C8B         0.0600    0.7950   -1.0240 c1        1 GI2     -0.092000
     18 O1          1.1190   -2.5630   -4.2270 os        1 GI2     -0.248000
     19 O5         -0.5130   -1.0330   -3.8600 o         1 GI2     -0.375000
     20 H1C1        2.4260   -0.9410   -2.7470 hc        1 GI2      0.167000
     21 H1C2        1.6610    0.3730   -3.2900 hc        1 GI2      0.167000
     22 H4C1       -0.3330   -2.9660   -5.4830 h1        1 GI2      0.109333
     23 H4C2        0.8030   -2.0230   -6.0850 h1        1 GI2      0.109333
     24 H4C3        1.0770   -3.5830   -5.9020 h1        1 GI2      0.109333
     25 H2B        -0.0080   -1.9510    2.3050 h4        1 GI2      0.143000
     26 HA          1.6410   -1.8640   -0.2480 DU        1 GI2      0.285500
     27 H3B        -1.6110   -0.6970    2.8420 h1        1 GI2      0.110000
     28 HB          1.8990   -1.6600    3.0900 ho        1 GI2      0.267000
     29 H4B        -0.0870    1.6040    3.0540 h1        1 GI2      0.164000
     30 HC         -0.9980   -1.0090    4.8610 ho        1 GI2      0.251000
     31 H5B        -1.9720    1.4510    1.0880 h1        1 GI2      0.147000
     32 HD         -2.7520    1.0990    3.4140 ho        1 GI2      0.226000
     33 H6B1        0.2380    3.1030    1.6250 h1        1 GI2      0.110500
     34 H6B2       -0.4930    3.1590    0.2040 h1        1 GI2      0.110500
     35 H6B        -1.4740    4.6160    1.4020 ho        1 GI2      0.233000
     36 H8B        -0.2590    1.4820   -1.5930 DU        1 GI2      0.285500
@<TRIPOS>BOND
     1    1    2 1   
     2    1   16 1   
     3    1   20 1   
     4    1   21 1   
     5    2   18 1   
     6    2   19 1   
     7    3   18 1   
     8    3   22 1   
     9    3   23 1   
    10    3   24 1   
    11    4   13 1   
    12    4   15 1   
    13    5    6 1   
    14    5   10 1   
    15    5   25 1   
    16    6    7 1   
    17    6   11 1   
    18    6   27 1   
    19    7    8 1   
    20    7   12 1   
    21    7   29 1   
    22    8    9 1   
    23    8   13 1   
    24    8   31 1   
    25    9   14 1   
    26    9   33 1   
    27    9   34 1   
    28   10   28 1   
    29   11   30 1   
    30   12   32 1   
    31   13   17 1   
    32   14   35 1   
    33   15   16 1   
    34   16   17 1   
@<TRIPOS>SUBSTRUCTURE
     1 GI2         1 TEMP              0 ****  ****    0 ROOT
