@<TRIPOS>MOLECULE
GI3
   29    30     1     0     0
SMALL
bcc


@<TRIPOS>ATOM
      1 C1          0.0150    0.1070   -0.0120 cc        1 GI3     -0.086900
      2 C2          1.5050    0.2760    0.0820 c3        1 GI3      0.176400
      3 O2          2.1450   -0.2090   -1.0800 oh        1 GI3     -0.574800
      4 C3          2.0440   -0.5700    1.2590 c3        1 GI3      0.149100
      5 C80        -2.1190   -0.2750    0.6370 cc        1 GI3     -0.159300
      6 O3          3.3740   -0.1600    1.5110 oh        1 GI3     -0.577800
      7 C4          1.2560   -0.2960    2.5530 c3        1 GI3      0.153100
      8 N10        -0.7850   -0.2040    1.0710 na        1 GI3     -0.016100
      9 O4          1.6880   -1.2810    3.4710 oh        1 GI3     -0.576800
     10 C5         -0.2880   -0.4440    2.4060 c3        1 GI3     -0.010000
     11 C6         -0.9750    0.4830    3.4420 c3        1 GI3      0.118400
     12 O6         -0.4300    0.1120    4.6970 oh        1 GI3     -0.615800
     13 N1         -0.7960    0.2210   -1.1150 na        1 GI3     -0.101100
     14 C7         -2.1260   -0.0070   -0.7440 cd        1 GI3     -0.101900
     15 C8         -3.3030    0.0750   -1.7640 c         1 GI3      0.956200
     16 O8         -4.4270   -0.1350   -1.2710 o         1 GI3     -0.746800
     17 O9         -2.9500    0.3480   -2.9310 o         1 GI3     -0.746800
     18 H2          1.7400    1.3650    0.2540 h1        1 GI3      0.087700
     19 H1         -0.5120    0.3980   -2.0540 hn        1 GI3      0.357700
     20 HA          2.1380    0.4990   -1.7380 ho        1 GI3      0.422000
     21 H3          1.9980   -1.6630    0.9990 h1        1 GI3      0.089700
     22 HB          3.9290   -0.5990    0.8530 ho        1 GI3      0.426000
     23 H4          1.5020    0.7370    2.9260 h1        1 GI3      0.073700
     24 H80        -2.9560   -0.5120    1.2970 h4        1 GI3      0.222000
     25 H5         -0.5500   -1.5160    2.6740 h1        1 GI3      0.114700
     26 HC          1.4440   -0.9730    4.3560 ho        1 GI3      0.435000
     27 H6C1       -0.7420    1.5620    3.2360 h1        1 GI3      0.050700
     28 H6C2       -2.0870    0.3280    3.4270 h1        1 GI3      0.050700
     29 H6         -1.0020    0.4910    5.3750 ho        1 GI3      0.430000
@<TRIPOS>BOND
     1    1    2 1   
     2    1    8 2   
     3    1   13 1   
     4    2    3 1   
     5    2    4 1   
     6    2   18 1   
     7    3   20 1   
     8    4    6 1   
     9    4    7 1   
    10    4   21 1   
    11    5    8 1   
    12    5   14 2   
    13    5   24 1   
    14    6   22 1   
    15    7    9 1   
    16    7   10 1   
    17    7   23 1   
    18    8   10 1   
    19    9   26 1   
    20   10   11 1   
    21   10   25 1   
    22   11   12 1   
    23   11   27 1   
    24   11   28 1   
    25   12   29 1   
    26   13   14 1   
    27   13   19 1   
    28   14   15 1   
    29   15   16 1   
    30   15   17 1   
@<TRIPOS>SUBSTRUCTURE
     1 GI3         1 TEMP              0 ****  ****    0 ROOT
