@<TRIPOS>MOLECULE
GI3
   29    30     1     0     0
SMALL
bcc


@<TRIPOS>ATOM
      1 C1          2.9530    2.4380   -2.2010 cc        1 GI3     -0.111900
      2 C2          3.6340    3.4730   -3.0530 c3        1 GI3      0.210400
      3 O2          3.2630    3.3190   -4.4030 oh        1 GI3     -0.563800
      4 C3          5.1660    3.4510   -2.8730 c3        1 GI3      0.080100
      5 C80         2.6200    0.7610   -0.7170 cc        1 GI3     -0.156300
      6 O3          5.4480    4.4640   -1.9230 oh        1 GI3     -0.586800
      7 C4          5.7550    2.1040   -2.4150 c3        1 GI3      0.092100
      8 N10         3.5890    1.5480   -1.3530 na        1 GI3     -0.020100
      9 O4          5.8210    1.2010   -3.4980 oh        1 GI3     -0.572800
     10 C5          5.0240    1.4770   -1.2030 c3        1 GI3     -0.031000
     11 C6          5.5240    2.1430    0.1050 c3        1 GI3      0.114400
     12 O6          6.9080    1.9180    0.2410 oh        1 GI3     -0.585800
     13 N1          1.6000    2.2080   -2.1070 na        1 GI3     -0.086100
     14 C7          1.3620    1.1750   -1.1970 cd        1 GI3     -0.103900
     15 C8         -0.0710    0.6540   -0.8610 c         1 GI3      0.956200
     16 O8         -0.0950   -0.2660   -0.0230 o         1 GI3     -0.743800
     17 O9         -0.9860    1.2340   -1.4840 o         1 GI3     -0.743800
     18 H2          3.2430    4.4990   -2.7670 h1        1 GI3      0.139700
     19 H1          0.8800    2.6800   -2.6140 hn        1 GI3      0.365700
     20 HA          3.6860    2.5220   -4.7510 ho        1 GI3      0.413000
     21 H3          5.6330    3.7090   -3.8690 h1        1 GI3      0.083700
     22 HB          6.4030    4.6100   -1.9340 ho        1 GI3      0.426000
     23 H4          6.8360    2.2540   -2.1130 h1        1 GI3      0.125700
     24 H80         2.8560   -0.0220    0.0070 h4        1 GI3      0.223000
     25 H5          5.3010    0.3780   -1.1690 h1        1 GI3      0.097700
     26 HC          4.9200    0.9420   -3.7320 ho        1 GI3      0.402000
     27 H6C1        4.9550    1.7450    0.9860 h1        1 GI3      0.081200
     28 H6C2        5.4130    3.2610    0.0450 h1        1 GI3      0.081200
     29 H6          7.0340    1.0050    0.5310 ho        1 GI3      0.411000
@<TRIPOS>BOND
     1    1    2 1   
     2    1    8 2   
     3    1   13 1   
     4    2    3 1   
     5    2    4 1   
     6    2   18 1   
     7    3   20 1   
     8    4    6 1   
     9    4    7 1   
    10    4   21 1   
    11    5    8 1   
    12    5   14 2   
    13    5   24 1   
    14    6   22 1   
    15    7    9 1   
    16    7   10 1   
    17    7   23 1   
    18    8   10 1   
    19    9   26 1   
    20   10   11 1   
    21   10   25 1   
    22   11   12 1   
    23   11   27 1   
    24   11   28 1   
    25   12   29 1   
    26   13   14 1   
    27   13   19 1   
    28   14   15 1   
    29   15   16 1   
    30   15   17 1   
@<TRIPOS>SUBSTRUCTURE
     1 GI3         1 TEMP              0 ****  ****    0 ROOT
