@<TRIPOS>MOLECULE
GI3
   29    25     1     0     0
SMALL
bcc


@<TRIPOS>ATOM
      1 C1         -0.1600    0.0060   -1.2740 c1        1 GI3     -0.025000
      2 C2          1.4320   -0.0480   -1.2830 c2        1 GI3      0.063000
      3 O2          1.9210    1.1240   -2.0090 oh        1 GI3     -0.313000
      4 C3          2.0730   -0.0720   -0.0120 c3        1 GI3      0.046000
      5 C80        -2.1670   -0.1090   -0.1640 c1        1 GI3     -0.099500
      6 O3          2.2350    1.3600    0.4510 oh        1 GI3     -0.324000
      7 C4          1.3800   -0.8370    1.0770 c3        1 GI3      0.021000
      8 N10        -0.8590   -0.1120    0.0580 n2        1 GI3     -0.091000
      9 O4          1.4550   -2.3010    0.7320 oh        1 GI3     -0.322000
     10 C5          0.0090   -0.5110    1.3200 c2        1 GI3     -0.046000
     11 C6         -0.0310    0.6480    2.3100 c3        1 GI3     -0.030000
     12 O6         -1.0740    0.4180    3.2790 oh        1 GI3     -0.315000
     13 N1         -1.1110    0.0750   -2.2390 n2        1 GI3     -0.091000
     14 C7         -2.3820    0.0090   -1.6090 c1        1 GI3     -0.099500
     15 C8         -3.6810    0.1720   -2.2720 c1        1 GI3      0.404000
     16 O8         -4.2340   -0.8130   -2.8260 o         1 GI3     -0.483000
     17 O9         -4.2420    1.2810   -2.2750 o         1 GI3     -0.483000
     18 H2          1.6940   -0.8200   -1.7580 h4        1 GI3      0.138000
     19 H1         -0.9530    0.1550   -3.1870 DU        1 GI3      0.266500
     20 HA          2.4260    0.8700   -2.6570 ho        1 GI3      0.226000
     21 H3          2.9660   -0.4570   -0.1310 h1        1 GI3      0.120000
     22 HB          3.1070    1.5550    0.5180 ho        1 GI3      0.240000
     23 H4          1.8850   -0.6920    1.9260 h1        1 GI3      0.121000
     24 H80        -2.9110   -0.1760    0.5650 DU        1 GI3      0.266500
     25 H5         -0.4180   -1.2940    1.7480 ha        1 GI3      0.137000
     26 HC          2.0910   -2.6960    1.2360 ho        1 GI3      0.222000
     27 H6C1       -0.2040    1.4550    1.8450 h1        1 GI3      0.117500
     28 H6C2        0.8470    0.7140    2.7750 h1        1 GI3      0.117500
     29 H6         -1.0960    1.0980    3.8570 ho        1 GI3      0.217000
@<TRIPOS>BOND
     1    1    8 1   
     2    1   13 1   
     3    2    3 1   
     4    2    4 1   
     5    2   18 1   
     6    3   20 1   
     7    4    6 1   
     8    4    7 1   
     9    4   21 1   
    10    5    8 1   
    11    5   14 1   
    12    6   22 1   
    13    7    9 1   
    14    7   10 1   
    15    7   23 1   
    16    9   26 1   
    17   10   11 1   
    18   10   25 1   
    19   11   12 1   
    20   11   27 1   
    21   11   28 1   
    22   12   29 1   
    23   13   14 1   
    24   15   16 1   
    25   15   17 1   
@<TRIPOS>SUBSTRUCTURE
     1 GI3         1 TEMP              0 ****  ****    0 ROOT
