@<TRIPOS>MOLECULE
GI4
   32    33     1     0     0
SMALL
bcc


@<TRIPOS>ATOM
      1 C1         -0.6900    5.4090   -0.1930 c3        1 GI4     -0.201100
      2 C1B        -0.9660    1.8500    0.6070 cc        1 GI4     -0.018900
      3 C2B        -0.9600    0.3800    0.2860 c3        1 GI4      0.220400
      4 C3B        -1.6010   -0.3990    1.4530 c3        1 GI4      0.106100
      5 C4B        -0.9970    0.0560    2.7920 c3        1 GI4      0.099100
      6 C5B        -1.3060    1.5540    3.0700 c3        1 GI4     -0.031000
      7 C6B        -0.4800    2.0160    4.2920 c3        1 GI4      0.118400
      8 O2B        -1.7070    0.2010   -0.9000 oh        1 GI4     -0.577800
      9 O3B        -1.3030   -1.7600    1.2080 oh        1 GI4     -0.596800
     10 O4B        -1.6230   -0.7290    3.7890 oh        1 GI4     -0.591800
     11 N1B        -1.0930    2.3640    1.8890 na        1 GI4     -0.034100
     12 O6B         0.8760    1.6610    4.1770 oh        1 GI4     -0.589800
     13 N2B        -0.8440    2.8950   -0.2660 na        1 GI4     -0.089100
     14 C7B        -0.8670    4.1020    0.4540 cc        1 GI4      0.024400
     15 C8B        -1.0370    3.7640    1.8120 cd        1 GI4     -0.206300
     16 C2          0.3490    5.3470   -1.3590 c         1 GI4      0.926600
     17 O1          0.2750    4.3560   -2.1500 o         1 GI4     -0.793800
     18 O5          1.1680    6.2850   -1.4320 o         1 GI4     -0.793800
     19 H1C1       -0.3600    6.1660    0.5610 hc        1 GI4      0.083700
     20 H1C2       -1.6590    5.7460   -0.6460 hc        1 GI4      0.083700
     21 H2B         0.1070    0.0410    0.1330 h1        1 GI4      0.096700
     22 HA         -0.6060    2.8850   -1.2680 hn        1 GI4      0.414700
     23 H3B        -2.7160   -0.2460    1.4590 h1        1 GI4      0.079700
     24 HB         -1.6810   -0.7480   -1.0960 ho        1 GI4      0.445000
     25 H4B         0.1170   -0.1070    2.7920 h1        1 GI4      0.090700
     26 HC         -1.6610   -2.2630    1.9530 ho        1 GI4      0.438000
     27 H5B        -2.4020    1.6430    3.3490 h1        1 GI4      0.100700
     28 HD         -1.0270   -0.7510    4.5500 ho        1 GI4      0.428000
     29 H6B1       -0.8550    1.4460    5.1880 h1        1 GI4      0.071200
     30 H6B2       -0.6070    3.1150    4.4690 h1        1 GI4      0.071200
     31 H6B         1.3090    2.3090    3.6060 ho        1 GI4      0.420000
     32 H8B        -1.1160    4.4080    2.6870 h4        1 GI4      0.207000
@<TRIPOS>BOND
     1    1   14 1   
     2    1   16 1   
     3    1   19 1   
     4    1   20 1   
     5    2    3 1   
     6    2   11 2   
     7    2   13 1   
     8    3    4 1   
     9    3    8 1   
    10    3   21 1   
    11    4    5 1   
    12    4    9 1   
    13    4   23 1   
    14    5    6 1   
    15    5   10 1   
    16    5   25 1   
    17    6    7 1   
    18    6   11 1   
    19    6   27 1   
    20    7   12 1   
    21    7   29 1   
    22    7   30 1   
    23    8   24 1   
    24    9   26 1   
    25   10   28 1   
    26   11   15 1   
    27   12   31 1   
    28   13   14 1   
    29   13   22 1   
    30   14   15 2   
    31   15   32 1   
    32   16   17 1   
    33   16   18 1   
@<TRIPOS>SUBSTRUCTURE
     1 GI4         1 TEMP              0 ****  ****    0 ROOT
