@<TRIPOS>MOLECULE
GI4
   32    33     1     0     0
SMALL
bcc


@<TRIPOS>ATOM
      1 C1         -0.0140   -0.0450    0.0210 c3        1 GI4     -0.190100
      2 C1B         3.6040    0.1170    0.5480 cc        1 GI4     -0.055900
      3 C2B         5.0410    0.2710    0.1220 c3        1 GI4      0.181400
      4 C3B         5.9350   -0.4080    1.1810 c3        1 GI4      0.109100
      5 C4B         5.5930    0.1240    2.5840 c3        1 GI4      0.139100
      6 C5B         4.1190   -0.1600    2.9870 c3        1 GI4      0.042000
      7 C6B         3.7490    0.7770    4.1560 c3        1 GI4      0.121400
      8 O2B         5.3010   -0.3890   -1.0960 oh        1 GI4     -0.579800
      9 O3B         7.2900   -0.0700    0.9580 oh        1 GI4     -0.595800
     10 O4B         6.3690   -0.5530    3.5570 oh        1 GI4     -0.595800
     11 N1B         3.2100   -0.0690    1.8630 na        1 GI4     -0.016100
     12 O6B         3.8830    2.1130    3.7090 oh        1 GI4     -0.602800
     13 N2B         2.4870    0.1150   -0.2390 na        1 GI4     -0.112100
     14 C7B         1.3500   -0.0390    0.5720 cc        1 GI4      0.013400
     15 C8B         1.8110   -0.1620    1.8980 cd        1 GI4     -0.186300
     16 C2         -0.1590    0.7920   -1.2830 c         1 GI4      0.925600
     17 O1          0.8010    0.7710   -2.1210 o         1 GI4     -0.796300
     18 O5         -1.2280    1.4160   -1.4350 o         1 GI4     -0.796300
     19 H1C1       -0.3080   -1.0970   -0.2380 hc        1 GI4      0.083200
     20 H1C2       -0.7300    0.3460    0.7880 hc        1 GI4      0.083200
     21 H2B         5.2810    1.3710    0.0500 h1        1 GI4      0.097700
     22 HA          2.3710    0.3170   -1.2460 hn        1 GI4      0.406700
     23 H3B         5.8020   -1.5240    1.1330 h1        1 GI4      0.079700
     24 HB          4.9240    0.1430   -1.8120 ho        1 GI4      0.434000
     25 H4B         5.7970    1.2310    2.6270 h1        1 GI4      0.092700
     26 HC          7.5320   -0.4370    0.0960 ho        1 GI4      0.436000
     27 H5B         4.0590   -1.2230    3.3810 h1        1 GI4      0.103700
     28 HD          7.2960   -0.4130    3.3170 ho        1 GI4      0.439000
     29 H6B1        4.4740    0.5700    4.9900 h1        1 GI4      0.054700
     30 H6B2        2.7000    0.5810    4.5030 h1        1 GI4      0.054700
     31 H6B         3.5990    2.6820    4.4350 ho        1 GI4      0.423000
     32 H8B         1.2550   -0.2900    2.8260 h4        1 GI4      0.206000
@<TRIPOS>BOND
     1    1   14 1   
     2    1   16 1   
     3    1   19 1   
     4    1   20 1   
     5    2    3 1   
     6    2   11 2   
     7    2   13 1   
     8    3    4 1   
     9    3    8 1   
    10    3   21 1   
    11    4    5 1   
    12    4    9 1   
    13    4   23 1   
    14    5    6 1   
    15    5   10 1   
    16    5   25 1   
    17    6    7 1   
    18    6   11 1   
    19    6   27 1   
    20    7   12 1   
    21    7   29 1   
    22    7   30 1   
    23    8   24 1   
    24    9   26 1   
    25   10   28 1   
    26   11   15 1   
    27   12   31 1   
    28   13   14 1   
    29   13   22 1   
    30   14   15 2   
    31   15   32 1   
    32   16   17 1   
    33   16   18 1   
@<TRIPOS>SUBSTRUCTURE
     1 GI4         1 TEMP              0 ****  ****    0 ROOT
