@<TRIPOS>MOLECULE
GIA
   40    36     1     0     0
SMALL
bcc


@<TRIPOS>ATOM
      1 F1          0.7530    5.1340    5.3530 f         1 GIA     -0.131000
      2 C1          1.3520    4.6010    4.2110 c2        1 GIA      0.063000
      3 C2          2.7010    4.7240    4.0250 c2        1 GIA     -0.186000
      4 C3          3.3050    4.1520    2.9050 c1        1 GIA     -0.119000
      5 C4          2.5410    3.4620    1.9840 c1        1 GIA     -0.132000
      6 C5          1.1840    3.3390    2.1710 c1        1 GIA     -0.026000
      7 C6          0.5840    3.9090    3.2860 c1        1 GIA     -0.170000
      8 C7          0.3270    2.6390    1.1100 c3        1 GIA     -0.111000
      9 C8          0.5910    1.1560    1.1440 c3        1 GIA     -0.093000
     10 C9          1.8590    0.8450    0.3600 c2        1 GIA      0.323000
     11 O10         2.8760    0.3910    0.9570 o         1 GIA     -0.567500
     12 O11         1.9030    1.0670   -0.9040 o         1 GIA     -0.567500
     13 N12        -0.5100    0.4680    0.5550 n         1 GIA     -0.301000
     14 C13        -0.6020   -0.9910    0.6520 c2        1 GIA      0.326000
     15 O14        -0.1950   -1.5610    1.6480 o         1 GIA     -0.369000
     16 C15        -1.2680   -1.7820   -0.4510 c2        1 GIA     -0.129000
     17 C16        -0.4240   -2.2570   -1.4750 c2        1 GIA     -0.079000
     18 C17        -0.9480   -3.1040   -2.4920 c1        1 GIA     -0.051000
     19 C18        -2.2840   -3.4580   -2.4740 c1        1 GIA     -0.026000
     20 C19        -3.1380   -2.9720   -1.4300 c1        1 GIA     -0.142500
     21 C20        -2.6210   -2.1410   -0.4330 c1        1 GIA     -0.079000
     22 C21        -0.1140   -3.5470   -3.5390 c1        1 GIA     -0.094000
     23 C22        -0.6400   -4.3490   -4.5640 c1        1 GIA     -0.141500
     24 C23        -1.9830   -4.7060   -4.5460 c1        1 GIA     -0.141500
     25 C24        -2.8130   -4.2630   -3.5020 c1        1 GIA     -0.142500
     26 H2          3.2420    5.2850    4.6550 ha        1 GIA      0.127000
     27 H3          4.2930    4.2420    2.7700 ha        1 GIA      0.125000
     28 H4          2.9820    3.0240    1.1890 ha        1 GIA      0.206000
     29 H6         -0.3870    3.8220    3.4210 ha        1 GIA      0.138000
     30 H7         -0.6030    2.8040    1.2890 hc        1 GIA      0.093000
     31 H7A         0.5570    2.9900    0.2210 hc        1 GIA      0.093000
     32 H8          0.7040    0.8590    2.0960 h1        1 GIA      0.119000
     33 HN12       -1.1330    0.9340    0.0790 hn        1 GIA      0.207000
     34 H16         0.4920   -1.9530   -1.5250 ha        1 GIA      0.203000
     35 H19        -4.0690   -3.2190   -1.4150 ha        1 GIA      0.122000
     36 H20        -3.2140   -1.8080    0.2920 ha        1 GIA      0.144000
     37 H21         0.8440   -3.2860   -3.5530 ha        1 GIA      0.149000
     38 H22        -0.0470   -4.6660   -5.3080 ha        1 GIA      0.120500
     39 H23        -2.3580   -5.2760   -5.2750 ha        1 GIA      0.120500
     40 H24        -3.7390   -4.5090   -3.4880 ha        1 GIA      0.122000
@<TRIPOS>BOND
     1    1    2 1   
     2    2    3 1   
     3    2    7 1   
     4    3    4 1   
     5    3   26 1   
     6    4   27 1   
     7    5    6 1   
     8    5   28 1   
     9    6    8 1   
    10    7   29 1   
    11    8    9 1   
    12    8   30 1   
    13    8   31 1   
    14    9   10 1   
    15    9   13 1   
    16    9   32 1   
    17   10   11 1   
    18   10   12 1   
    19   13   14 1   
    20   13   33 1   
    21   14   15 1   
    22   14   16 1   
    23   16   17 1   
    24   16   21 1   
    25   17   18 1   
    26   17   34 1   
    27   18   22 1   
    28   19   20 1   
    29   19   25 1   
    30   20   35 1   
    31   21   36 1   
    32   22   37 1   
    33   23   24 1   
    34   23   38 1   
    35   24   39 1   
    36   25   40 1   
@<TRIPOS>SUBSTRUCTURE
     1 GIA         1 TEMP              0 ****  ****    0 ROOT
