@<TRIPOS>MOLECULE
GIA
   40    42     1     0     0
SMALL
bcc


@<TRIPOS>ATOM
      1 F1         -5.1150   -3.8120   -1.1260 f         1 GIA     -0.164900
      2 C1         -4.4250   -2.9050   -0.3870 ca        1 GIA      0.103900
      3 C2         -3.9700   -3.2540    0.8960 ca        1 GIA     -0.192000
      4 C3         -3.2610   -2.3120    1.6360 ca        1 GIA     -0.111000
      5 C4         -3.0070   -1.0420    1.1230 ca        1 GIA     -0.135000
      6 C5         -3.4610   -0.6850   -0.1530 ca        1 GIA     -0.021300
      7 C6         -4.1710   -1.6270   -0.9100 ca        1 GIA     -0.181000
      8 C7         -3.2590    0.6710   -0.7260 c3        1 GIA     -0.042100
      9 C8         -2.0760    1.4890   -0.1980 c3        1 GIA     -0.063300
     10 C9         -2.2000    2.9080   -0.8870 c         1 GIA      0.909600
     11 O10        -3.1240    3.6450   -0.4610 o         1 GIA     -0.822800
     12 O11        -1.3890    3.1930   -1.8100 o         1 GIA     -0.822800
     13 N12        -0.7910    0.8710   -0.4660 n         1 GIA     -0.497900
     14 C13         0.0780    0.5260    0.5410 c         1 GIA      0.651700
     15 O14        -0.2690    0.4060    1.7410 o         1 GIA     -0.648100
     16 C15         1.4920    0.2080    0.1520 ca        1 GIA     -0.118600
     17 C16         2.5060    0.5440    1.0220 ca        1 GIA     -0.072000
     18 C17         3.8600    0.2550    0.7000 ca        1 GIA     -0.047000
     19 C18         4.1570   -0.3930   -0.5260 ca        1 GIA     -0.028000
     20 C19         3.0920   -0.7380   -1.4010 ca        1 GIA     -0.139000
     21 C20         1.7910   -0.4440   -1.0720 ca        1 GIA     -0.091000
     22 C21         4.9240    0.6000    1.5780 ca        1 GIA     -0.105000
     23 C22         6.2240    0.3100    1.2450 ca        1 GIA     -0.144000
     24 C23         6.5220   -0.3370    0.0210 ca        1 GIA     -0.133000
     25 C24         5.5130   -0.6810   -0.8450 ca        1 GIA     -0.122000
     26 H2         -4.1730   -4.2560    1.2960 ha        1 GIA      0.128000
     27 H3         -2.8920   -2.5760    2.6380 ha        1 GIA      0.126000
     28 H4         -2.4210   -0.3190    1.7180 ha        1 GIA      0.176000
     29 H6         -4.5340   -1.3710   -1.9160 ha        1 GIA      0.140000
     30 H7         -3.1730    0.5920   -1.8440 hc        1 GIA      0.068200
     31 H7A        -4.1770    1.2890   -0.5060 hc        1 GIA      0.068200
     32 H8         -2.1930    1.6420    0.9120 h1        1 GIA      0.072700
     33 HN12       -0.3830    1.1990   -1.3230 hn        1 GIA      0.323500
     34 H16         2.2690    1.0350    1.9800 ha        1 GIA      0.154000
     35 H19         3.3300   -1.2440   -2.3480 ha        1 GIA      0.128000
     36 H20         0.9720   -0.7200   -1.7550 ha        1 GIA      0.149000
     37 H21         4.6810    1.1040    2.5250 ha        1 GIA      0.133000
     38 H22         7.0490    0.5760    1.9210 ha        1 GIA      0.123000
     39 H23         7.5700   -0.5570   -0.2250 ha        1 GIA      0.121000
     40 H24         5.7340   -1.1810   -1.7990 ha        1 GIA      0.126000
@<TRIPOS>BOND
     1    1    2 1   
     2    2    3 ar  
     3    2    7 ar  
     4    3    4 ar  
     5    3   26 1   
     6    4    5 ar  
     7    4   27 1   
     8    5    6 ar  
     9    5   28 1   
    10    6    7 ar  
    11    6    8 1   
    12    7   29 1   
    13    8    9 1   
    14    8   30 1   
    15    8   31 1   
    16    9   10 1   
    17    9   13 1   
    18    9   32 1   
    19   10   11 1   
    20   10   12 1   
    21   13   14 1   
    22   13   33 1   
    23   14   15 2   
    24   14   16 1   
    25   16   17 ar  
    26   16   21 ar  
    27   17   18 ar  
    28   17   34 1   
    29   18   19 ar  
    30   18   22 ar  
    31   19   20 ar  
    32   19   25 ar  
    33   20   21 ar  
    34   20   35 1   
    35   21   36 1   
    36   22   23 ar  
    37   22   37 1   
    38   23   24 ar  
    39   23   38 1   
    40   24   25 ar  
    41   24   39 1   
    42   25   40 1   
@<TRIPOS>SUBSTRUCTURE
     1 GIA         1 TEMP              0 ****  ****    0 ROOT
