@<TRIPOS>MOLECULE
GIA
   41    43     1     0     0
SMALL
bcc


@<TRIPOS>ATOM
      1 F1          2.4740    1.0900    1.9360 f         1 GIA     -0.137900
      2 C1          3.1260    0.2940    1.0560 ca        1 GIA      0.134900
      3 C2          3.9150   -0.7720    1.5250 ca        1 GIA     -0.161000
      4 C3          4.5820   -1.5780    0.6060 ca        1 GIA     -0.099000
      5 C4          4.4700   -1.3380   -0.7620 ca        1 GIA     -0.139000
      6 C5          3.6810   -0.2810   -1.2320 ca        1 GIA     -0.082300
      7 C6          3.0100    0.5410   -0.3240 ca        1 GIA     -0.179000
      8 C7          3.5760   -0.0200   -2.6920 c3        1 GIA     -0.054100
      9 C8          2.6710   -1.0060   -3.4160 c3        1 GIA     -0.049500
     10 C9          2.7410   -0.6880   -4.9860 c         1 GIA      0.929600
     11 O10         3.8800   -0.7080   -5.4780 o         1 GIA     -0.759800
     12 O11         1.6270   -0.4740   -5.5380 o         1 GIA     -0.759800
     13 N12         1.2440   -0.9370   -2.9500 n4        1 GIA     -0.657800
     14 C13         0.7310   -2.1910   -2.3300 c         1 GIA      0.568700
     15 O14         0.3730   -2.0820   -1.1550 o         1 GIA     -0.489100
     16 C15         0.6680   -3.4190   -3.1290 ca        1 GIA     -0.184600
     17 C16         0.4490   -4.6040   -2.4400 ca        1 GIA     -0.022000
     18 C17         0.3600   -5.8350   -3.1340 ca        1 GIA     -0.068000
     19 C18         0.4880   -5.8450   -4.5480 ca        1 GIA      0.002000
     20 C19         0.7030   -4.6170   -5.2300 ca        1 GIA     -0.111000
     21 C20         0.7920   -3.4300   -4.5450 ca        1 GIA     -0.105000
     22 C21         0.1420   -7.0620   -2.4450 ca        1 GIA     -0.103000
     23 C22         0.0590   -8.2410   -3.1410 ca        1 GIA     -0.127000
     24 C23         0.1890   -8.2520   -4.5520 ca        1 GIA     -0.100000
     25 C24         0.3980   -7.0820   -5.2420 ca        1 GIA     -0.126000
     26 H2          4.0000   -0.9540    2.6060 ha        1 GIA      0.152000
     27 H3          5.2080   -2.4090    0.9670 ha        1 GIA      0.142000
     28 H4          5.0100   -1.9740   -1.4800 ha        1 GIA      0.146000
     29 H6          2.4070    1.3930   -0.6710 ha        1 GIA      0.144000
     30 H7          4.5880   -0.1200   -3.1830 hc        1 GIA      0.095200
     31 H7A         3.2300    1.0320   -2.8810 hc        1 GIA      0.095200
     32 H8          3.0400   -2.0580   -3.2700 hx        1 GIA      0.096700
     33 HN12        0.6820   -0.7170   -3.8100 hn        1 GIA      0.466800
     34 H16         0.3430   -4.5970   -1.3410 ha        1 GIA      0.156000
     35 H19         0.8010   -4.6290   -6.3270 ha        1 GIA      0.157000
     36 H20         0.9640   -2.4940   -5.1120 ha        1 GIA      0.194000
     37 H21         0.0430   -7.0420   -1.3490 ha        1 GIA      0.140000
     38 H22        -0.1080   -9.1930   -2.6140 ha        1 GIA      0.142000
     39 H23         0.1200   -9.2120   -5.0870 ha        1 GIA      0.142000
     40 H24         0.5010   -7.0810   -6.3380 ha        1 GIA      0.146000
     41 H122        1.1420   -0.1700   -2.2760 hn        1 GIA      0.466800
@<TRIPOS>BOND
     1    1    2 1   
     2    2    3 ar  
     3    2    7 ar  
     4    3    4 ar  
     5    3   26 1   
     6    4    5 ar  
     7    4   27 1   
     8    5    6 ar  
     9    5   28 1   
    10    6    7 ar  
    11    6    8 1   
    12    7   29 1   
    13    8    9 1   
    14    8   30 1   
    15    8   31 1   
    16    9   10 1   
    17    9   13 1   
    18    9   32 1   
    19   10   11 1   
    20   10   12 1   
    21   13   14 1   
    22   13   33 1   
    23   13   41 1   
    24   14   15 2   
    25   14   16 1   
    26   16   17 ar  
    27   16   21 ar  
    28   17   18 ar  
    29   17   34 1   
    30   18   19 ar  
    31   18   22 ar  
    32   19   20 ar  
    33   19   25 ar  
    34   20   21 ar  
    35   20   35 1   
    36   21   36 1   
    37   22   23 ar  
    38   22   37 1   
    39   23   24 ar  
    40   23   38 1   
    41   24   25 ar  
    42   24   39 1   
    43   25   40 1   
@<TRIPOS>SUBSTRUCTURE
     1 GIA         1 TEMP              0 ****  ****    0 ROOT
