@<TRIPOS>MOLECULE
GIA
   41    43     1     0     0
SMALL
bcc


@<TRIPOS>ATOM
      1 F1          2.3750    1.2280    1.8230 f         1 GIA     -0.137900
      2 C1          3.0420    0.3660    1.0190 ca        1 GIA      0.134900
      3 C2          3.7370   -0.7210    1.5790 ca        1 GIA     -0.161000
      4 C3          4.4210   -1.5950    0.7390 ca        1 GIA     -0.099000
      5 C4          4.4160   -1.4030   -0.6420 ca        1 GIA     -0.139000
      6 C5          3.7210   -0.3250   -1.2030 ca        1 GIA     -0.082300
      7 C6          3.0340    0.5650   -0.3740 ca        1 GIA     -0.179000
      8 C7          3.7300   -0.1150   -2.6750 c3        1 GIA     -0.054100
      9 C8          2.8250   -1.0810   -3.4260 c3        1 GIA     -0.049500
     10 C9          3.0200   -0.8270   -4.9970 c         1 GIA      0.929600
     11 O10         4.1880   -0.9240   -5.4070 o         1 GIA     -0.759800
     12 O11         1.9590   -0.5780   -5.6340 o         1 GIA     -0.759800
     13 N12         1.3750   -0.9210   -3.0640 n4        1 GIA     -0.657800
     14 C13         0.7540   -2.1220   -2.4390 c         1 GIA      0.568700
     15 O14         0.3230   -1.9490   -1.2970 o         1 GIA     -0.489100
     16 C15         0.6810   -3.3750   -3.1970 ca        1 GIA     -0.184600
     17 C16         0.3530   -4.5200   -2.4840 ca        1 GIA     -0.022000
     18 C17         0.2460   -5.7710   -3.1380 ca        1 GIA     -0.068000
     19 C18         0.4710   -5.8420   -4.5380 ca        1 GIA      0.002000
     20 C19         0.7970   -4.6540   -5.2460 ca        1 GIA     -0.111000
     21 C20         0.9020   -3.4470   -4.5990 ca        1 GIA     -0.105000
     22 C21        -0.0820   -6.9570   -2.4240 ca        1 GIA     -0.103000
     23 C22        -0.1800   -8.1580   -3.0820 ca        1 GIA     -0.127000
     24 C23         0.0460   -8.2290   -4.4790 ca        1 GIA     -0.100000
     25 C24         0.3640   -7.1000   -5.1930 ca        1 GIA     -0.126000
     26 H2          3.7370   -0.8650    2.6690 ha        1 GIA      0.152000
     27 H3          4.9740   -2.4430    1.1710 ha        1 GIA      0.142000
     28 H4          4.9690   -2.0930   -1.2980 ha        1 GIA      0.146000
     29 H6          2.5030    1.4330   -0.7920 ha        1 GIA      0.144000
     30 H7          4.7670   -0.2860   -3.0890 hc        1 GIA      0.095200
     31 H7A         3.4550    0.9450   -2.9240 hc        1 GIA      0.095200
     32 H8          3.1270   -2.1440   -3.2180 hx        1 GIA      0.096700
     33 HN12        1.2690   -0.1240   -2.4270 hn        1 GIA      0.466800
     34 H16         0.1720   -4.4650   -1.3960 ha        1 GIA      0.156000
     35 H19         0.9700   -4.7130   -6.3330 ha        1 GIA      0.157000
     36 H20         1.1630   -2.5440   -5.1860 ha        1 GIA      0.194000
     37 H21        -0.2560   -6.8900   -1.3390 ha        1 GIA      0.140000
     38 H22        -0.4330   -9.0780   -2.5350 ha        1 GIA      0.142000
     39 H23        -0.0370   -9.2040   -4.9830 ha        1 GIA      0.142000
     40 H24         0.5420   -7.1460   -6.2780 ha        1 GIA      0.146000
     41 H122        0.8860   -0.7060   -3.9690 hn        1 GIA      0.466800
@<TRIPOS>BOND
     1    1    2 1   
     2    2    3 ar  
     3    2    7 ar  
     4    3    4 ar  
     5    3   26 1   
     6    4    5 ar  
     7    4   27 1   
     8    5    6 ar  
     9    5   28 1   
    10    6    7 ar  
    11    6    8 1   
    12    7   29 1   
    13    8    9 1   
    14    8   30 1   
    15    8   31 1   
    16    9   10 1   
    17    9   13 1   
    18    9   32 1   
    19   10   11 1   
    20   10   12 1   
    21   13   14 1   
    22   13   33 1   
    23   13   41 1   
    24   14   15 2   
    25   14   16 1   
    26   16   17 ar  
    27   16   21 ar  
    28   17   18 ar  
    29   17   34 1   
    30   18   19 ar  
    31   18   22 ar  
    32   19   20 ar  
    33   19   25 ar  
    34   20   21 ar  
    35   20   35 1   
    36   21   36 1   
    37   22   23 ar  
    38   22   37 1   
    39   23   24 ar  
    40   23   38 1   
    41   24   25 ar  
    42   24   39 1   
    43   25   40 1   
@<TRIPOS>SUBSTRUCTURE
     1 GIA         1 TEMP              0 ****  ****    0 ROOT
