@<TRIPOS>MOLECULE
GIC
   36    37     1     0     0
SMALL
bcc


@<TRIPOS>ATOM
      1 C          -2.1860    0.9580   -1.7440 c         1 GIC      0.898600
      2 N          -2.0700   -1.3010   -0.5400 n         1 GIC     -0.439800
      3 O          -1.1070    1.4810   -2.1450 o         1 GIC     -0.831300
      4 C1         -3.2380   -1.6020    0.2570 c3        1 GIC      0.101000
      5 N1         -5.0310   -0.7190    1.7250 n3        1 GIC     -0.910800
      6 O1         -0.6740   -1.9550    1.1550 o         1 GIC     -0.679100
      7 C2         -3.8790   -0.3640    0.9250 c3        1 GIC      0.098800
      8 N2          3.4200   -1.3700    1.3500 na        1 GIC     -0.198400
      9 C3         -0.8120   -1.3980    0.0370 c         1 GIC      0.670100
     10 C4          0.3800   -0.9070   -0.7650 c3        1 GIC     -0.111200
     11 C5          1.6400   -0.8580   -0.0160 cc        1 GIC     -0.100400
     12 C6          2.1020   -1.7080    0.9810 cd        1 GIC     -0.104100
     13 C7          3.7660   -0.2000    0.6520 ca        1 GIC     -0.062200
     14 C8          4.9340    0.5720    0.6820 ca        1 GIC     -0.160000
     15 C9          5.0090    1.6640   -0.1740 ca        1 GIC     -0.127000
     16 CA         -2.2790   -0.5970   -1.7860 c3        1 GIC     -0.049000
     17 C10         3.9570    1.9940   -1.0420 ca        1 GIC     -0.169000
     18 C11         2.7910    1.2360   -1.0860 ca        1 GIC     -0.070000
     19 C12         2.6830    0.1300   -0.2470 ca        1 GIC     -0.081800
     20 OXT        -3.2000    1.6020   -1.3650 o         1 GIC     -0.831300
     21 H1         -3.9990   -2.0860   -0.4180 h1        1 GIC      0.046200
     22 H1A        -2.9460   -2.3470    1.0510 h1        1 GIC      0.046200
     23 HN1        -4.7510   -1.2640    2.5170 hn        1 GIC      0.330800
     24 H2         -3.0840    0.1590    1.5340 h1        1 GIC      0.068700
     25 H4          0.5010   -1.5890   -1.6530 hc        1 GIC      0.106700
     26 H4A         0.1510    0.1300   -1.1690 hc        1 GIC      0.106700
     27 H6          1.5780   -2.5420    1.4560 h4        1 GIC      0.187000
     28 H8          5.7600    0.3260    1.3600 ha        1 GIC      0.117000
     29 H9          5.9130    2.2910   -0.1670 ha        1 GIC      0.112000
     30 HA         -3.3080   -0.8590   -2.1620 h1        1 GIC      0.035700
     31 HAA        -1.5240   -0.9740   -2.5310 h1        1 GIC      0.035700
     32 H10         4.0550    2.8740   -1.6930 ha        1 GIC      0.122000
     33 H11         1.9550    1.5050   -1.7540 ha        1 GIC      0.171000
     34 HN2         3.7880   -1.5770    2.2420 hn        1 GIC      0.271700
     35 H15        -5.4740    0.1160    2.0570 hn        1 GIC      0.330800
     36 H16        -4.2010    0.3570    0.1140 h1        1 GIC      0.068700
@<TRIPOS>BOND
     1    1    3 1   
     2    1   16 1   
     3    1   20 1   
     4    2    4 1   
     5    2    9 1   
     6    2   16 1   
     7    4    7 1   
     8    4   21 1   
     9    4   22 1   
    10    5    7 1   
    11    5   23 1   
    12    5   35 1   
    13    6    9 2   
    14    7   24 1   
    15    7   36 1   
    16    8   12 1   
    17    8   13 1   
    18    8   34 1   
    19    9   10 1   
    20   10   11 1   
    21   10   25 1   
    22   10   26 1   
    23   11   12 2   
    24   11   19 1   
    25   12   27 1   
    26   13   14 ar  
    27   13   19 ar  
    28   14   15 ar  
    29   14   28 1   
    30   15   17 ar  
    31   15   29 1   
    32   16   30 1   
    33   16   31 1   
    34   17   18 ar  
    35   17   32 1   
    36   18   19 ar  
    37   18   33 1   
@<TRIPOS>SUBSTRUCTURE
     1 GIC         1 TEMP              0 ****  ****    0 ROOT
