@<TRIPOS>MOLECULE
GIC
   36    31     1     0     0
SMALL
bcc


@<TRIPOS>ATOM
      1 C           3.9170    1.0450   -0.2830 c1        1 GIC      0.783000
      2 N           2.0790   -0.5070   -0.6660 n         1 GIC     -0.390400
      3 O           5.0140    0.9780   -0.9370 o         1 GIC     -0.806500
      4 C1          2.2750   -0.9090   -1.9850 c3        1 GIC      0.049000
      5 N1          2.4900   -2.8160   -3.4230 n3        1 GIC     -0.905800
      6 O1          0.0150   -1.4080   -0.2030 o         1 GIC     -0.672100
      7 C2          2.2400   -2.4040   -2.0650 c3        1 GIC      0.126800
      8 N2         -2.0490    0.6300    3.1790 ne        1 GIC     -0.496400
      9 C3          0.7660   -0.4310   -0.1340 c         1 GIC      0.669100
     10 C4          0.2610    0.8790    0.4640 c3        1 GIC     -0.083200
     11 C5         -1.0160    0.6360    1.1990 cf        1 GIC     -0.187000
     12 C6         -0.8330    0.4530    2.5570 c1        1 GIC      0.232500
     13 C7         -2.9950    0.9260    2.2000 cg        1 GIC      0.036000
     14 C8         -4.3660    1.1680    2.2650 c1        1 GIC     -0.077000
     15 C9         -5.0840    1.4110    1.0960 c1        1 GIC     -0.077000
     16 CA          3.2170   -0.2470    0.1810 c2        1 GIC      0.144400
     17 C10        -4.4330    1.4120   -0.1300 c1        1 GIC     -0.077000
     18 C11        -3.0700    1.1710   -0.1880 c1        1 GIC     -0.077000
     19 C12        -2.3530    0.9280    0.9800 ch        1 GIC     -0.094300
     20 OXT         3.4030    2.1940   -0.0050 o         1 GIC     -0.806500
     21 H1          1.5610   -0.5310   -2.5550 h1        1 GIC      0.061200
     22 H1A         3.1400   -0.5890   -2.2930 h1        1 GIC      0.061200
     23 HN1         2.7010   -3.7120   -3.4380 hn        1 GIC      0.335800
     24 H2          1.3180   -2.7410   -1.7710 h1        1 GIC      0.053700
     25 H4          0.1010    1.5440   -0.2740 hc        1 GIC      0.088200
     26 H4A         0.9260    1.2320    1.0810 hc        1 GIC      0.088200
     27 H6          0.0180    0.2200    3.0020 DU        1 GIC      0.237000
     28 H8         -4.8450    1.1660    3.1720 ha        1 GIC      0.065750
     29 H9         -6.0490    1.5810    1.1390 ha        1 GIC      0.065750
     30 HA          2.9190   -0.1450    1.1130 h4        1 GIC     -0.051700
     31 HAA         3.8600   -1.0120    0.1190 h4        1 GIC     -0.051700
     32 H10        -4.9640    1.5900   -0.9990 ha        1 GIC      0.065750
     33 H11        -2.6210    1.1710   -1.0300 ha        1 GIC      0.065750
     34 HN2        -2.2010    0.5670    4.0480 DU        1 GIC      0.237000
     35 H15         1.7170   -2.6650   -3.9470 hn        1 GIC      0.335800
     36 H16         2.9400   -2.7850   -1.4690 h1        1 GIC      0.053700
@<TRIPOS>BOND
     1    1    3 2   
     2    1   20 2   
     3    2    4 1   
     4    2    9 1   
     5    2   16 2   
     6    4    7 1   
     7    4   21 1   
     8    4   22 1   
     9    5    7 1   
    10    5   23 1   
    11    5   35 1   
    12    6    9 2   
    13    7   24 1   
    14    7   36 1   
    15    8   12 2   
    16    8   13 1   
    17    9   10 1   
    18   10   11 1   
    19   10   25 1   
    20   10   26 1   
    21   11   12 2   
    22   11   19 1   
    23   13   19 3   
    24   14   15 3   
    25   14   28 1   
    26   15   29 1   
    27   16   30 1   
    28   16   31 1   
    29   17   18 3   
    30   17   32 1   
    31   18   33 1   
@<TRIPOS>SUBSTRUCTURE
     1 GIC         1 TEMP              0 ****  ****    0 ROOT
