@<TRIPOS>MOLECULE
GIF
   23    23     1     0     0
SMALL
bcc


@<TRIPOS>ATOM
      1 C          -0.0130    0.1060    0.0090 c3        1 GIF      0.130800
      2 N           1.4300   -0.0070    0.0250 n3        1 GIF     -0.815200
      3 O           3.5410    1.3540    3.4690 oh        1 GIF     -0.606800
      4 C1         -0.5030    1.3670    0.7460 c3        1 GIF      0.104100
      5 O1         -0.4650    0.3530    2.9710 oh        1 GIF     -0.606800
      6 C2          0.0500    1.4150    2.1820 c3        1 GIF      0.152100
      7 O2         -1.9190    1.3420    0.8720 oh        1 GIF     -0.612800
      8 C3          1.5740    1.2890    2.1410 c3        1 GIF     -0.061700
      9 C4          1.9990    0.0400    1.3600 c3        1 GIF      0.162800
     10 C5          2.1290    1.2320    3.5600 c3        1 GIF      0.137400
     11 H          -0.3420    0.1610   -1.0660 h1        1 GIF      0.036200
     12 HA         -0.5290   -0.7790    0.4870 h1        1 GIF      0.036200
     13 HN          1.7070   -0.8570   -0.4310 hn        1 GIF      0.366800
     14 HO          3.8790    1.2710    4.3680 ho        1 GIF      0.401000
     15 H1         -0.1900    2.2930    0.1920 h1        1 GIF      0.057700
     16 HO1        -1.4230    0.3550    2.8470 ho        1 GIF      0.421000
     17 H2         -0.2480    2.3940    2.6550 h1        1 GIF      0.045700
     18 HO2        -2.2800    1.2150   -0.0120 ho        1 GIF      0.410000
     19 H3          1.9850    2.2020    1.6280 hc        1 GIF      0.078700
     20 H4          3.1210    0.0540    1.2540 h1        1 GIF      0.047700
     21 H4A         1.7140   -0.8650    1.9740 h1        1 GIF      0.047700
     22 H5          1.8490    0.2620    4.0510 h1        1 GIF      0.034200
     23 H5A         1.7130    2.0820    4.1660 h1        1 GIF      0.034200
@<TRIPOS>BOND
     1    1    2 1   
     2    1    4 1   
     3    1   11 1   
     4    1   12 1   
     5    2    9 1   
     6    2   13 1   
     7    3   10 1   
     8    3   14 1   
     9    4    6 1   
    10    4    7 1   
    11    4   15 1   
    12    5    6 1   
    13    5   16 1   
    14    6    8 1   
    15    6   17 1   
    16    7   18 1   
    17    8    9 1   
    18    8   10 1   
    19    8   19 1   
    20    9   20 1   
    21    9   21 1   
    22   10   22 1   
    23   10   23 1   
@<TRIPOS>SUBSTRUCTURE
     1 GIF         1 TEMP              0 ****  ****    0 ROOT
