@<TRIPOS>MOLECULE
GIF
   23    23     1     0     0
SMALL
bcc


@<TRIPOS>ATOM
      1 C          -0.0290    0.0900    0.0290 c3        1 GIF      0.130800
      2 N           1.4140   -0.0290    0.0350 n3        1 GIF     -0.815200
      3 O           3.5570    1.3740    3.4420 oh        1 GIF     -0.606800
      4 C1         -0.5090    1.3630    0.7500 c3        1 GIF      0.104100
      5 O1         -0.4560    0.3820    2.9900 oh        1 GIF     -0.606800
      6 C2          0.0560    1.4300    2.1810 c3        1 GIF      0.152100
      7 O2         -1.9230    1.3460    0.8880 oh        1 GIF     -0.612800
      8 C3          1.5800    1.2980    2.1300 c3        1 GIF     -0.061700
      9 C4          1.9940    0.0360    1.3640 c3        1 GIF      0.162800
     10 C5          2.1450    1.2600    3.5450 c3        1 GIF      0.137400
     11 H          -0.3660    0.1290   -1.0450 h1        1 GIF      0.036200
     12 HA         -0.5440   -0.7870    0.5230 h1        1 GIF      0.036200
     13 HN          1.6840   -0.8860   -0.4110 hn        1 GIF      0.366800
     14 HO          3.9020    1.3030    4.3390 ho        1 GIF      0.401000
     15 H1         -0.1960    2.2800    0.1800 h1        1 GIF      0.057700
     16 HO1        -1.4160    0.3860    2.8730 ho        1 GIF      0.421000
     17 H2         -0.2340    2.4170    2.6420 h1        1 GIF      0.045700
     18 HO2        -2.2920    1.2060    0.0080 ho        1 GIF      0.410000
     19 H3          1.9900    2.2020    1.6000 hc        1 GIF      0.078700
     20 H4          1.7100   -0.8590    1.9940 h1        1 GIF      0.047700
     21 H4A         3.1150    0.0440    1.2490 h1        1 GIF      0.047700
     22 H5          1.7380    2.1210    4.1410 h1        1 GIF      0.034200
     23 H5A         1.8650    0.2990    4.0530 h1        1 GIF      0.034200
@<TRIPOS>BOND
     1    1    2 1   
     2    1    4 1   
     3    1   11 1   
     4    1   12 1   
     5    2    9 1   
     6    2   13 1   
     7    3   10 1   
     8    3   14 1   
     9    4    6 1   
    10    4    7 1   
    11    4   15 1   
    12    5    6 1   
    13    5   16 1   
    14    6    8 1   
    15    6   17 1   
    16    7   18 1   
    17    8    9 1   
    18    8   10 1   
    19    8   19 1   
    20    9   20 1   
    21    9   21 1   
    22   10   22 1   
    23   10   23 1   
@<TRIPOS>SUBSTRUCTURE
     1 GIF         1 TEMP              0 ****  ****    0 ROOT
