@<TRIPOS>MOLECULE
GIF
   23    23     1     0     0
SMALL
bcc


@<TRIPOS>ATOM
      1 C          -0.0220    0.0920    0.0190 c3        1 GIF      0.130800
      2 N           1.4210   -0.0250    0.0310 n7        1 GIF     -0.815200
      3 O           3.5490    1.3630    3.4530 oh        1 GIF     -0.606800
      4 C1         -0.5060    1.3610    0.7460 c3        1 GIF      0.104100
      5 O1         -0.4610    0.3680    2.9800 oh        1 GIF     -0.606800
      6 C2          0.0530    1.4220    2.1790 c3        1 GIF      0.152100
      7 O2         -1.9210    1.3420    0.8780 oh        1 GIF     -0.612800
      8 C3          1.5770    1.2910    2.1340 c3        1 GIF     -0.061700
      9 C4          1.9960    0.0330    1.3630 c3        1 GIF      0.162800
     10 C5          2.1370    1.2460    3.5510 c3        1 GIF      0.137400
     11 H          -0.5380   -0.7870    0.5070 h1        1 GIF      0.036200
     12 HA         -0.3540    0.1370   -1.0560 h1        1 GIF      0.036200
     13 HN          1.6940   -0.8790   -0.4190 hn        1 GIF      0.366800
     14 HO          3.8910    1.2880    4.3510 ho        1 GIF      0.401000
     15 H1         -0.1920    2.2820    0.1810 h1        1 GIF      0.057700
     16 HO1        -1.4200    0.3720    2.8600 ho        1 GIF      0.421000
     17 H2         -0.2400    2.4050    2.6430 h1        1 GIF      0.045700
     18 HO2        -2.2850    1.2070   -0.0050 ho        1 GIF      0.410000
     19 H3          1.9880    2.1980    1.6100 hc        1 GIF      0.078700
     20 H4          3.1170    0.0430    1.2520 h1        1 GIF      0.047700
     21 H4A         1.7100   -0.8650    1.9860 h1        1 GIF      0.047700
     22 H5          1.8560    0.2820    4.0530 h1        1 GIF      0.034200
     23 H5A         1.7260    2.1030    4.1500 h1        1 GIF      0.034200
@<TRIPOS>BOND
     1    1    2 1   
     2    1    4 1   
     3    1   11 1   
     4    1   12 1   
     5    2    9 1   
     6    2   13 1   
     7    3   10 1   
     8    3   14 1   
     9    4    6 1   
    10    4    7 1   
    11    4   15 1   
    12    5    6 1   
    13    5   16 1   
    14    6    8 1   
    15    6   17 1   
    16    7   18 1   
    17    8    9 1   
    18    8   10 1   
    19    8   19 1   
    20    9   20 1   
    21    9   21 1   
    22   10   22 1   
    23   10   23 1   
@<TRIPOS>SUBSTRUCTURE
     1 GIF         1 TEMP              0 ****  ****    0 ROOT
