@<TRIPOS>MOLECULE
GIG
   53    54     1     0     0
SMALL
bcc


@<TRIPOS>ATOM
      1 C5          0.6020   -1.2430    0.6010 c3        1 GIG     -0.186000
      2 C6          1.8850   -0.6750    0.1290 c2        1 GIG     -0.129000
      3 C7          2.1400    0.6640    0.1830 c2        1 GIG     -0.007000
      4 C8          1.1080    1.5460    0.7770 c2        1 GIG      0.191000
      5 C10        -0.3160   -0.3590    1.3270 c1        1 GIG     -0.040000
      6 N12         3.2990    1.2650   -0.3450 ns        1 GIG     -0.311000
      7 C13         4.5620    0.6240   -0.3190 c2        1 GIG      0.383000
      8 C17         8.0970    1.4480   -1.4440 cx        1 GIG     -0.127000
      9 C20         6.3060   -1.7370   -2.8160 c2        1 GIG     -0.471000
     10 C21         6.0100   -2.6960   -3.6680 c1        1 GIG      0.260000
     11 C24         8.2810    1.4800   -4.6590 c2        1 GIG     -0.118000
     12 C36        12.0880   10.2830   -8.0060 c1        1 GIG     -0.011000
     13 O35        11.6230    9.1700   -7.5710 oh        1 GIG     -0.173000
     14 C33        10.3130    6.9520   -6.3130 c2        1 GIG      0.277000
     15 O34        11.0940    6.5270   -7.1860 o         1 GIG     -0.397000
     16 C27         9.4760    4.7350   -5.5970 c2        1 GIG      0.069000
     17 N28        10.2610    3.9580   -6.4800 na        1 GIG     -0.191000
     18 C29         9.9300    2.6310   -6.2440 c2        1 GIG     -0.150000
     19 C30        10.7480   -1.2930   -4.8960 c1        1 GIG      0.257000
     20 C31        10.2250   -0.0930   -4.7340 c2        1 GIG     -0.465000
     21 C23         8.8490    0.2710   -4.4630 c2        1 GIG      0.109000
     22 C19         7.2960   -0.6780   -2.9090 c2        1 GIG      0.225000
     23 C16         6.9580    0.7720   -0.6850 cx        1 GIG      0.019000
     24 N15         5.7050    1.4330   -0.5040 ns        1 GIG     -0.313000
     25 O14         4.6620   -0.6100   -0.1270 o         1 GIG     -0.382000
     26 C9         -0.0590    1.0250    1.2930 c2        1 GIG     -0.264000
     27 F11         1.3520    2.8710    0.8220 f         1 GIG     -0.088000
     28 C2          0.8240   -2.5750    1.3930 c3        1 GIG      0.463000
     29 F3         -0.3260   -3.2820    1.6190 f         1 GIG     -0.157333
     30 F4          1.6370   -3.4630    0.7300 f         1 GIG     -0.157333
     31 F1          1.4060   -2.4230    2.6220 f         1 GIG     -0.157333
     32 C18         7.4390    0.2650   -1.9910 cu        1 GIG     -0.335000
     33 C25         8.9540    2.6250   -5.2190 c2        1 GIG     -0.076000
     34 N26         8.6710    3.9390   -4.8180 n2        1 GIG     -0.163000
     35 H6          2.6210   -1.3920   -0.2830 ha        1 GIG      0.193000
     36 H10         0.0010   -1.5400   -0.3260 hc        1 GIG      0.201000
     37 HN12        3.2920    2.2640   -0.3220 hn        1 GIG      0.232000
     38 H17         7.9360    2.4260   -1.9390 hc        1 GIG      0.126500
     39 H20         5.7250   -1.7200   -1.8560 ha        1 GIG      0.237000
     40 H21         7.1970    0.1620    0.2190 h1        1 GIG      0.157000
     41 H24         7.2290    1.6370   -4.3570 ha        1 GIG      0.157000
     42 H361       11.9500    8.3380   -7.9880 ho        1 GIG      0.180000
     43 H362       10.1910    8.0420   -6.0950 h5        1 GIG      0.170000
     44 H363       12.8370   10.2480   -8.8340 ha        1 GIG     -0.001000
     45 HN32        8.9200    6.5520   -4.8490 hn        1 GIG      0.266000
     46 HN28       10.8990    4.3150   -7.1500 hn        1 GIG      0.284000
     47 H30        10.3650    1.8130   -6.8160 h4        1 GIG      0.189000
     48 H31        10.9170    0.7790   -4.8030 ha        1 GIG      0.205000
     49 HN15        5.5900    2.2710   -1.0340 hn        1 GIG      0.213000
     50 H9         -0.8080    1.7000    1.7420 ha        1 GIG      0.174000
     51 H18         9.1180    1.3610   -1.0260 hc        1 GIG      0.126500
     52 O22         8.0810   -0.8250   -4.0500 os        1 GIG     -0.187000
     53 N32         9.5270    6.1420   -5.5260 ns        1 GIG     -0.308000
@<TRIPOS>BOND
     1    1    2 1   
     2    1    5 1   
     3    1   28 1   
     4    1   36 1   
     5    2    3 1   
     6    2   35 1   
     7    3    4 1   
     8    3    6 1   
     9    4   26 1   
    10    4   27 1   
    11    5   26 1   
    12    6    7 1   
    13    6   37 1   
    14    7   24 1   
    15    7   25 1   
    16    8   23 1   
    17    8   32 1   
    18    8   38 1   
    19    8   51 1   
    20    9   10 1   
    21    9   22 1   
    22    9   39 1   
    23   11   21 1   
    24   11   33 1   
    25   11   41 1   
    26   12   13 1   
    27   12   44 1   
    28   13   42 1   
    29   14   15 1   
    30   14   43 1   
    31   14   53 1   
    32   16   17 1   
    33   16   34 1   
    34   16   53 1   
    35   17   18 1   
    36   17   46 1   
    37   18   33 1   
    38   18   47 1   
    39   19   20 1   
    40   20   21 1   
    41   20   48 1   
    42   21   52 1   
    43   22   32 1   
    44   22   52 1   
    45   23   24 1   
    46   23   32 1   
    47   23   40 1   
    48   24   49 1   
    49   26   50 1   
    50   28   29 1   
    51   28   30 1   
    52   28   31 1   
    53   33   34 1   
    54   45   53 1   
@<TRIPOS>SUBSTRUCTURE
     1 GIG         1 TEMP              0 ****  ****    0 ROOT
