@<TRIPOS>MOLECULE
GIG
   53    56     1     0     0
SMALL
bcc


@<TRIPOS>ATOM
      1 C5         12.9810   -1.8260    1.3100 ca        1 GIG     -0.157300
      2 C6         11.8220   -1.2020    0.8550 ca        1 GIG     -0.078000
      3 C7         11.7180   -0.7880   -0.4890 ca        1 GIG      0.046600
      4 C8         12.8360   -1.0270   -1.3490 ca        1 GIG      0.092900
      5 C10        14.0680   -2.0510    0.4660 ca        1 GIG     -0.085000
      6 N12        10.5980   -0.1120   -0.9930 n         1 GIG     -0.474100
      7 C13         9.2810   -0.3090   -0.5120 c         1 GIG      0.786100
      8 C17         5.9630    0.4070   -1.9900 ca        1 GIG     -0.134000
      9 C20         5.0220   -0.2420    0.5650 ca        1 GIG     -0.137000
     10 C21         6.3920   -0.1330    0.3450 ca        1 GIG     -0.134000
     11 C24         2.5430    1.2040    1.6100 ca        1 GIG     -0.121000
     12 C36        -0.8640    3.1640    9.0110 c3        1 GIG      0.137700
     13 O35        -0.0050    3.4850    7.9100 os        1 GIG     -0.429900
     14 C33        -0.0500    2.6000    6.8570 c         1 GIG      0.750100
     15 O34        -0.7850    1.6000    6.9330 o         1 GIG     -0.585000
     16 C27         0.9950    2.2010    4.6780 cc        1 GIG      0.481400
     17 N28         0.2190    1.0530    4.3630 na        1 GIG     -0.273300
     18 C29         0.7500    0.5470    3.1730 ca        1 GIG     -0.088200
     19 C30         0.4090   -0.5650    2.3940 ca        1 GIG     -0.107000
     20 C31         1.1380   -0.7910    1.2380 ca        1 GIG     -0.126000
     21 C23         2.1810    0.0870    0.8620 ca        1 GIG      0.085100
     22 C19         4.1290   -0.0180   -0.4860 ca        1 GIG      0.090100
     23 C16         6.8840    0.1900   -0.9360 ca        1 GIG      0.044600
     24 N15         8.2580    0.3550   -1.2060 n         1 GIG     -0.469100
     25 O14         9.0630   -0.9910    0.5120 o         1 GIG     -0.609100
     26 C9         13.9970   -1.6480   -0.8620 ca        1 GIG     -0.143000
     27 F11        12.7920   -0.6430   -2.6500 f         1 GIG     -0.141900
     28 C2         13.0550   -2.2820    2.7640 c3        1 GIG      0.690200
     29 F3         14.3270   -2.3110    3.2840 f         1 GIG     -0.234633
     30 F4         12.3510   -1.5010    3.6470 f         1 GIG     -0.234633
     31 F1         12.5780   -3.5520    2.9790 f         1 GIG     -0.234633
     32 C18         4.5970    0.3140   -1.7660 ca        1 GIG     -0.137000
     33 C25         1.8280    1.4450    2.7910 ca        1 GIG      0.102400
     34 N26         1.9650    2.4670    3.7450 nd        1 GIG     -0.596100
     35 H6         10.9810   -1.0400    1.5550 ha        1 GIG      0.195000
     36 H10        14.9770   -2.5410    0.8500 ha        1 GIG      0.159000
     37 HN12       10.7260    0.3000   -1.8920 hn        1 GIG      0.322500
     38 H17         6.3170    0.6620   -3.0010 ha        1 GIG      0.153500
     39 H20         4.6440   -0.4970    1.5670 ha        1 GIG      0.154000
     40 H21         7.0850   -0.3180    1.1840 ha        1 GIG      0.153500
     41 H24         3.3600    1.8670    1.2930 ha        1 GIG      0.164000
     42 H361       -1.9270    3.1480    8.6710 h1        1 GIG      0.059367
     43 H362       -0.6700    3.9970    9.7310 h1        1 GIG      0.059367
     44 H363       -0.5790    2.1720    9.4380 h1        1 GIG      0.059367
     45 HN32        1.3270    3.8150    5.9200 hn        1 GIG      0.370500
     46 HN28       -0.4650    0.6360    4.9460 hn        1 GIG      0.336700
     47 H30        -0.4070   -1.2380    2.6890 ha        1 GIG      0.144000
     48 H31         0.9100   -1.6500    0.5900 ha        1 GIG      0.154000
     49 HN15        8.4680    0.7990   -2.0710 hn        1 GIG      0.316500
     50 H9         14.8430   -1.8140   -1.5460 ha        1 GIG      0.159000
     51 H18         3.8800    0.4830   -2.5830 ha        1 GIG      0.154000
     52 O22         2.7530   -0.1900   -0.3800 os        1 GIG     -0.248200
     53 N32         0.7590    3.0020    5.8100 n         1 GIG     -0.443400
@<TRIPOS>BOND
     1    1    2 ar  
     2    1    5 ar  
     3    1   28 1   
     4    2    3 ar  
     5    2   35 1   
     6    3    4 ar  
     7    3    6 1   
     8    4   26 ar  
     9    4   27 1   
    10    5   26 ar  
    11    5   36 1   
    12    6    7 1   
    13    6   37 1   
    14    7   24 1   
    15    7   25 2   
    16    8   23 ar  
    17    8   32 ar  
    18    8   38 1   
    19    9   10 ar  
    20    9   22 ar  
    21    9   39 1   
    22   10   23 ar  
    23   10   40 1   
    24   11   21 ar  
    25   11   33 ar  
    26   11   41 1   
    27   12   13 1   
    28   12   42 1   
    29   12   43 1   
    30   12   44 1   
    31   13   14 1   
    32   14   15 2   
    33   14   53 1   
    34   16   17 1   
    35   16   34 2   
    36   16   53 1   
    37   17   18 1   
    38   17   46 1   
    39   18   19 ar  
    40   18   33 ar  
    41   19   20 ar  
    42   19   47 1   
    43   20   21 ar  
    44   20   48 1   
    45   21   52 1   
    46   22   32 ar  
    47   22   52 1   
    48   23   24 1   
    49   24   49 1   
    50   26   50 1   
    51   28   29 1   
    52   28   30 1   
    53   28   31 1   
    54   32   51 1   
    55   33   34 1   
    56   45   53 1   
@<TRIPOS>SUBSTRUCTURE
     1 GIG         1 TEMP              0 ****  ****    0 ROOT
