@<TRIPOS>MOLECULE
GIG
   53    54     1     0     0
SMALL
bcc


@<TRIPOS>ATOM
      1 C5          0.5360   -1.2270    0.5080 c3        1 GIG     -0.186000
      2 C6          1.8270   -0.6590    0.0560 c2        1 GIG     -0.129000
      3 C7          2.0720    0.6830    0.0950 c2        1 GIG     -0.007000
      4 C8          1.0210    1.5680    0.6510 c2        1 GIG      0.191000
      5 C10        -0.4030   -0.3370    1.1980 c1        1 GIG     -0.040000
      6 N12         3.2390    1.2830   -0.4160 n         1 GIG     -0.311000
      7 C13         4.5050    0.6500   -0.3510 c2        1 GIG      0.383000
      8 C17         8.0610    1.4800   -1.4050 cx        1 GIG     -0.127000
      9 C20         6.3220   -1.7370   -2.7690 c2        1 GIG     -0.471000
     10 C21         6.0510   -2.7110   -3.6140 c1        1 GIG      0.260000
     11 C24         8.3270    1.4630   -4.6140 c2        1 GIG     -0.117000
     12 C36        12.1970   10.2300   -7.9820 c1        1 GIG     -0.011000
     13 O35        11.7180    9.1230   -7.5490 oh        1 GIG     -0.173000
     14 C33        10.3800    6.9190   -6.2960 c2        1 GIG      0.277000
     15 O34        11.1850    6.4840   -7.1410 o         1 GIG     -0.397000
     16 C27         9.5320    4.7090   -5.5690 c2        1 GIG      0.069000
     17 N28        10.3440    3.9220   -6.4200 na        1 GIG     -0.191000
     18 C29        10.0120    2.5970   -6.1710 c2        1 GIG     -0.150000
     19 C30        10.8110   -1.3020   -4.7450 c1        1 GIG      0.257000
     20 C31        10.2780   -0.1020   -4.6140 c2        1 GIG     -0.465000
     21 C23         8.8940    0.2600   -4.3850 c2        1 GIG      0.109000
     22 C19         7.3080   -0.6740   -2.8550 c2        1 GIG      0.225000
     23 C16         6.9090    0.8080   -0.6630 cx        1 GIG      0.019000
     24 N15         5.6480    1.4640   -0.5210 n         1 GIG     -0.313000
     25 O14         4.6080   -0.5790   -0.1360 o         1 GIG     -0.382000
     26 C9         -0.1540    1.0480    1.1470 c2        1 GIG     -0.264000
     27 F11         1.2560    2.8950    0.6790 f         1 GIG     -0.088000
     28 C2          0.7490   -2.5450    1.3260 c3        1 GIG      0.463000
     29 F3         -0.4020   -3.2550    1.5380 f         1 GIG     -0.157333
     30 F4          1.5820   -3.4380    0.6960 f         1 GIG     -0.157333
     31 F1          1.3010   -2.3690    2.5660 f         1 GIG     -0.157333
     32 C18         7.4230    0.2840   -1.9490 cu        1 GIG     -0.335000
     33 C25         9.0100    2.6020   -5.1740 c2        1 GIG     -0.076000
     34 N26         8.7100    3.9210   -4.8000 n2        1 GIG     -0.163000
     35 H6          2.5760   -1.3770   -0.3260 ha        1 GIG      0.193000
     36 H10        -0.0410   -1.5420   -0.4280 hc        1 GIG      0.201000
     37 HN12        3.2260    2.2820   -0.4090 hn        1 GIG      0.232000
     38 H17         7.9070    2.4490   -1.9190 hc        1 GIG      0.126500
     39 H20         5.7180   -1.7090   -1.8230 ha        1 GIG      0.237000
     40 H21         7.1300    0.2130    0.2560 h1        1 GIG      0.157000
     41 H24         7.2670    1.6200   -4.3410 ha        1 GIG      0.157000
     42 H361       12.0570    8.2860   -7.9460 ho        1 GIG      0.180000
     43 H362       10.2480    8.0110   -6.0980 h5        1 GIG      0.170000
     44 H363       12.9720   10.1860   -8.7850 ha        1 GIG     -0.001000
     45 HN32        8.9490    6.5340   -4.8650 hn        1 GIG      0.266000
     46 HN28       10.9980    4.2720   -7.0770 hn        1 GIG      0.284000
     47 H30        10.4660    1.7720   -6.7200 h4        1 GIG      0.189000
     48 H31        10.9690    0.7710   -4.6770 ha        1 GIG      0.205000
     49 HN15        5.5410    2.2920   -1.0670 hn        1 GIG      0.213000
     50 H9         -0.9180    1.7250    1.5680 ha        1 GIG      0.174000
     51 H18         9.0730    1.4050   -0.9610 hc        1 GIG      0.126500
     52 O22         8.1200   -0.8330   -3.9750 os        1 GIG     -0.187000
     53 N32         9.5760    6.1170   -5.5190 n         1 GIG     -0.308000
@<TRIPOS>BOND
     1    1    2 1   
     2    1    5 1   
     3    1   28 1   
     4    1   36 1   
     5    2    3 1   
     6    2   35 1   
     7    3    4 1   
     8    3    6 1   
     9    4   26 1   
    10    4   27 1   
    11    5   26 1   
    12    6    7 1   
    13    6   37 1   
    14    7   24 1   
    15    7   25 1   
    16    8   23 1   
    17    8   32 1   
    18    8   38 1   
    19    8   51 1   
    20    9   10 1   
    21    9   22 1   
    22    9   39 1   
    23   11   21 1   
    24   11   33 1   
    25   11   41 1   
    26   12   13 1   
    27   12   44 1   
    28   13   42 1   
    29   14   15 1   
    30   14   43 1   
    31   14   53 1   
    32   16   17 1   
    33   16   34 1   
    34   16   53 1   
    35   17   18 1   
    36   17   46 1   
    37   18   33 1   
    38   18   47 1   
    39   19   20 1   
    40   20   21 1   
    41   20   48 1   
    42   21   52 1   
    43   22   32 1   
    44   22   52 1   
    45   23   24 1   
    46   23   32 1   
    47   23   40 1   
    48   24   49 1   
    49   26   50 1   
    50   28   29 1   
    51   28   30 1   
    52   28   31 1   
    53   33   34 1   
    54   45   53 1   
@<TRIPOS>SUBSTRUCTURE
     1 GIG         1 TEMP              0 ****  ****    0 ROOT
