@<TRIPOS>MOLECULE
GIG
   53    51     1     0     0
SMALL
bcc


@<TRIPOS>ATOM
      1 C5          0.6780    0.8530   -0.6780 c3        1 GIG     -0.123000
      2 C6          1.8310   -0.0990   -1.0490 c3        1 GIG     -0.182000
      3 C7          2.0290   -1.3350   -0.1740 c2        1 GIG      0.059000
      4 C8          1.1200   -1.3430    1.0370 c2        1 GIG      0.154000
      5 C10        -0.4830    0.0250   -0.1820 c2        1 GIG     -0.067000
      6 N12         2.8710   -2.2810   -0.3690 n2        1 GIG     -0.172000
      7 C13         3.8060   -2.3090   -1.4590 c2        1 GIG      0.295000
      8 C17        13.1160    0.6130    1.1410 c1        1 GIG     -0.054000
      9 C20         9.8400    0.2790   -0.1310 c1        1 GIG     -0.650000
     10 C21         8.7500   -0.2330    0.2790 c1        1 GIG      0.237000
     11 C24        10.1950    2.8770   -3.0790 c2        1 GIG     -0.043000
     12 C36         8.8500    7.8890   -8.6750 c1        1 GIG     -0.046000
     13 O35         9.8640    7.8480   -7.8960 oh        1 GIG     -0.140000
     14 C33         7.1200    5.4090   -7.6510 c2        1 GIG      0.265000
     15 O34         6.1710    4.6070   -7.6090 o         1 GIG     -0.381000
     16 C27         8.4100    4.4060   -5.7900 c2        1 GIG      0.082000
     17 N28         7.4980    3.3600   -5.4980 na        1 GIG     -0.195000
     18 C29         8.0430    2.6360   -4.4490 c2        1 GIG     -0.127000
     19 C30         8.8960   -0.4020   -2.0140 c1        1 GIG      0.139000
     20 C31         9.4600    0.4810   -2.8260 c2        1 GIG     -0.433000
     21 C23        10.2550    1.6480   -2.5200 c2        1 GIG      0.037000
     22 C19        11.0420    0.8200   -0.4330 c2        1 GIG      0.486000
     23 C16         6.1060   -1.9940   -0.9020 c2        1 GIG     -0.023000
     24 N15         4.9980   -1.5360   -1.3330 n2        1 GIG     -0.236000
     25 O14         3.5520   -2.9730   -2.4800 o         1 GIG     -0.301000
     26 C9         -0.0710   -0.8230    0.7390 c1        1 GIG     -0.199000
     27 F11         1.5690   -1.7780    2.2160 f         1 GIG     -0.051000
     28 C2          0.2690    1.7030   -1.9180 c3        1 GIG      0.421000
     29 F3         -0.7140    2.6220   -1.6460 f         1 GIG     -0.161333
     30 F4          1.3010    2.4450   -2.4340 f         1 GIG     -0.161333
     31 F1         -0.2130    0.9850   -2.9820 f         1 GIG     -0.161333
     32 C18        12.1760    0.7180    0.4060 c1        1 GIG     -0.196000
     33 C25         9.2740    3.2500   -4.1190 c2        1 GIG     -0.104000
     34 N26         9.4990    4.3570   -4.9570 n2        1 GIG     -0.164000
     35 H6          1.6640   -0.4560   -2.1040 hc        1 GIG      0.137500
     36 H10         1.0210    1.5810    0.1070 hc        1 GIG      0.145000
     37 HN12        2.7890    0.4890   -1.0360 hc        1 GIG      0.137500
     38 H17         6.9800   -1.2990   -0.8720 h4        1 GIG      0.152000
     39 H20        12.3320    5.1890   -1.7370 ha        1 GIG      0.001000
     40 H21        12.4110    5.3990   -2.3760 ha        1 GIG      0.001000
     41 H24        10.9050    3.6610   -2.7480 ha        1 GIG      0.163000
     42 H361       10.5630    8.5300   -8.0180 ho        1 GIG      0.168000
     43 H362        7.1910    6.2600   -8.3760 h5        1 GIG      0.178000
     44 H363        8.7940    8.6830   -9.4520 ha        1 GIG      0.027000
     45 HN32        8.9320    6.0410   -6.9090 hn        1 GIG      0.276000
     46 HN28        6.6360    3.2030   -5.9640 hn        1 GIG      0.288000
     47 H30         7.5300    1.7840   -4.0020 h4        1 GIG      0.193000
     48 H31         9.2950    0.3290   -3.9170 ha        1 GIG      0.195000
     49 HN15        6.2970   -3.0260   -0.5480 h4        1 GIG      0.152000
     50 H9         -1.4720    0.1140   -0.6410 ha        1 GIG      0.180000
     51 H18        13.9480    0.5170    1.7960 ha        1 GIG      0.241000
     52 O22        11.3010    1.5010   -1.5750 os        1 GIG     -0.123000
     53 N32         8.2100    5.3560   -6.8070 n         1 GIG     -0.314000
@<TRIPOS>BOND
     1    1    2 1   
     2    1    5 1   
     3    1   28 1   
     4    1   36 1   
     5    2    3 1   
     6    2   35 1   
     7    2   37 1   
     8    3    4 1   
     9    3    6 1   
    10    4   26 1   
    11    4   27 1   
    12    5   26 1   
    13    5   50 1   
    14    6    7 1   
    15    7   24 1   
    16    7   25 1   
    17    8   32 1   
    18    8   51 1   
    19    9   10 1   
    20    9   22 1   
    21   11   21 1   
    22   11   33 1   
    23   11   41 1   
    24   12   13 1   
    25   12   44 1   
    26   13   42 1   
    27   14   15 1   
    28   14   43 1   
    29   14   53 1   
    30   16   17 1   
    31   16   34 1   
    32   16   53 1   
    33   17   18 1   
    34   17   46 1   
    35   18   33 1   
    36   18   47 1   
    37   19   20 1   
    38   20   21 1   
    39   20   48 1   
    40   21   52 1   
    41   22   32 1   
    42   22   52 1   
    43   23   24 1   
    44   23   38 1   
    45   23   49 1   
    46   28   29 1   
    47   28   30 1   
    48   28   31 1   
    49   33   34 1   
    50   39   40 1   
    51   45   53 1   
@<TRIPOS>SUBSTRUCTURE
     1 GIG         1 TEMP              0 ****  ****    0 ROOT
