@<TRIPOS>MOLECULE
GIG
   53    45     1     0     0
SMALL
bcc


@<TRIPOS>ATOM
      1 C5         -5.5530    1.7710    5.8470 c1        1 GIG     -0.164000
      2 C6         -5.0240    2.4650    4.7690 c1        1 GIG     -0.097000
      3 C7         -3.7000    2.2670    4.3980 c1        1 GIG      0.016000
      4 C8         -2.9090    1.3770    5.1030 c2        1 GIG      0.146000
      5 C10        -4.7620    0.8800    6.5530 c1        1 GIG     -0.065000
      6 N12        -3.1280    3.0540    3.3490 n2        1 GIG     -0.312000
      7 C13        -2.0510    2.5260    2.5610 c2        1 GIG      0.379000
      8 C17         0.5940    2.0400    1.3390 c1        1 GIG     -0.101000
      9 C20         0.8150    2.7300   -1.3410 c1        1 GIG     -0.138500
     10 C21        -0.2940    3.1340   -0.6090 c1        1 GIG     -0.138500
     11 C24         3.1960   -0.3820   -2.1750 c1        1 GIG     -0.082000
     12 C36         2.8820   -7.6460   -5.0770 c3        1 GIG     -0.052000
     13 O35         3.8730   -6.8090   -4.5390 os        1 GIG     -0.268000
     14 C33         3.6980   -5.4480   -4.8480 c2        1 GIG      0.405000
     15 O34         2.8650   -5.1140   -5.6690 o         1 GIG     -0.397000
     16 N32         4.4130   -4.4550   -4.1150 n         1 GIG     -0.284000
     17 C27         4.1450   -3.0780   -4.3420 c2        1 GIG      0.149000
     18 N28         3.8250   -2.0820   -5.2090 n2        1 GIG     -0.231000
     19 C29         3.4810   -0.9870   -4.4820 c1        1 GIG     -0.038000
     20 C30         2.9760    0.2730   -4.8610 c1        1 GIG     -0.109000
     21 C31         2.5890    1.1860   -3.8910 c1        1 GIG     -0.154000
     22 C23         2.6990    0.8580   -2.5480 c1        1 GIG      0.042000
     23 O22         3.0030    1.6820   -1.4400 os        1 GIG     -0.157000
     24 C19         1.8150    1.9800   -0.7320 c1        1 GIG      0.042000
     25 C16        -0.4040    2.7890    0.7310 c1        1 GIG      0.029000
     26 N15        -1.4780    3.3140    1.5150 n         1 GIG     -0.298000
     27 O14        -1.6240    1.4070    2.7850 o         1 GIG     -0.350000
     28 C9         -3.4400    0.6820    6.1820 c1        1 GIG     -0.163000
     29 F11        -1.6200    1.2230    4.7770 f         1 GIG     -0.074000
     30 C2         -7.0140    1.9430    6.2140 c3        1 GIG      0.469000
     31 F3         -7.1900    1.6320    7.5050 f         1 GIG     -0.164333
     32 F4         -7.3800    3.2130    6.0070 f         1 GIG     -0.164333
     33 F1         -7.7630    1.1340    5.4540 f         1 GIG     -0.164333
     34 C18         1.7040    1.6360    0.6070 c1        1 GIG     -0.154000
     35 C25         3.5890   -1.3090   -3.1610 c1        1 GIG     -0.045000
     36 N26         3.9990   -2.6000   -3.0780 n1        1 GIG     -0.167000
     37 H6         -5.5830    3.0950    4.2700 ha        1 GIG      0.154000
     38 H10        -5.1350    0.3920    7.3120 ha        1 GIG      0.159000
     39 HN12       -3.4630    3.8840    3.1660 hn        1 GIG      0.222000
     40 H17         0.5170    1.7970    2.2840 ha        1 GIG      0.171000
     41 H20         0.8920    2.9720   -2.2840 ha        1 GIG      0.142500
     42 H21        -0.9970    3.6610   -1.0380 ha        1 GIG      0.142500
     43 H24         3.2740   -0.6120   -1.2290 ha        1 GIG      0.167000
     44 H361        2.0470   -7.1400   -5.1810 h1        1 GIG      0.098667
     45 H362        2.7310   -8.4040   -4.4730 h1        1 GIG      0.098667
     46 H363        3.1740   -7.9790   -5.9510 h1        1 GIG      0.098667
     47 HN32        4.9770   -4.7030   -3.4440 hn        1 GIG      0.285000
     48 HN28        3.8730   -2.1270   -6.1190 DU        1 GIG      0.287000
     49 H30         2.8980    0.5030   -5.8070 ha        1 GIG      0.144000
     50 H31         2.2390    2.0580   -4.1530 ha        1 GIG      0.152000
     51 HN15       -1.7950    4.1490    1.3510 hn        1 GIG      0.220000
     52 H9         -2.8830    0.0540    6.6800 ha        1 GIG      0.163000
     53 H18         2.4050    1.1100    1.0350 ha        1 GIG      0.152000
@<TRIPOS>BOND
     1    1    5 1   
     2    1   30 1   
     3    2    3 1   
     4    2   37 1   
     5    3    4 1   
     6    4   28 1   
     7    4   29 1   
     8    5   38 1   
     9    6    7 1   
    10    6   39 1   
    11    7   26 1   
    12    7   27 1   
    13    8   25 1   
    14    8   40 1   
    15    9   10 1   
    16    9   41 1   
    17   10   42 1   
    18   11   35 1   
    19   11   43 1   
    20   12   13 1   
    21   12   44 1   
    22   12   45 1   
    23   12   46 1   
    24   13   14 1   
    25   14   15 1   
    26   14   16 1   
    27   16   17 1   
    28   16   47 1   
    29   17   18 1   
    30   17   36 1   
    31   18   19 1   
    32   19   20 1   
    33   20   49 1   
    34   21   22 1   
    35   21   50 1   
    36   22   23 1   
    37   23   24 1   
    38   24   34 1   
    39   25   26 1   
    40   26   51 1   
    41   28   52 1   
    42   30   31 1   
    43   30   32 1   
    44   30   33 1   
    45   34   53 1   
@<TRIPOS>SUBSTRUCTURE
     1 GIG         1 TEMP              0 ****  ****    0 ROOT
