@<TRIPOS>MOLECULE
GIL
   76    78     1     0     0
SMALL
bcc


@<TRIPOS>ATOM
      1 C1          8.3360    1.2420   -5.0570 ca        1 GIL     -0.173900
      2 C2          7.8140    2.2240   -5.9060 ca        1 GIL     -0.125000
      3 C3          8.2190    3.5510   -5.7740 ca        1 GIL     -0.136000
      4 C4          9.1580    3.9060   -4.8090 ca        1 GIL     -0.131000
      5 C5          9.6820    2.9080   -3.9750 ca        1 GIL      0.108100
      6 C6          9.2600    1.5750   -4.0620 ca        1 GIL     -0.101000
      7 C7          7.9240   -0.1890   -5.2640 ce        1 GIL      0.656800
      8 N1          7.3340   -0.8000   -4.1490 nh        1 GIL     -0.885800
      9 N2          8.0350   -0.7940   -6.4160 n2        1 GIL     -0.875100
     10 C11        10.7060    3.0240   -1.8100 ca        1 GIL      0.613600
     11 C12        11.9740    3.0960   -1.1650 ca        1 GIL     -0.041400
     12 N3          9.5370    2.7740   -1.1800 nb        1 GIL     -0.707000
     13 C13        12.0470    2.9050    0.2450 ca        1 GIL      0.143600
     14 O1         10.7520    3.3040   -3.1710 os        1 GIL     -0.369400
     15 C14        10.8210    2.6660    0.9210 ca        1 GIL      0.040600
     16 C15         9.6140    2.5770    0.1530 ca        1 GIL      0.670600
     17 N4         13.2520    2.8900    0.9870 nh        1 GIL     -0.690000
     18 O2          8.4690    2.3730    0.9070 os        1 GIL     -0.358400
     19 F1         13.0800    3.3280   -1.9090 f         1 GIL     -0.130900
     20 F2         10.7610    2.4950    2.2570 f         1 GIL     -0.109900
     21 C21         7.4280    1.6320    0.3440 ca        1 GIL      0.165100
     22 C22         7.5930    0.4420   -0.3760 ca        1 GIL     -0.158600
     23 C23         6.4420   -0.2460   -0.7790 ca        1 GIL     -0.064000
     24 C24         5.1650    0.2200   -0.4570 ca        1 GIL     -0.177600
     25 C25         5.0260    1.4170    0.2620 ca        1 GIL     -0.075000
     26 C26         6.1490    2.1290    0.6580 ca        1 GIL     -0.171000
     27 C29         8.9420   -0.1530   -0.7400 c         1 GIL      0.919200
     28 O3          9.0170   -0.8250   -1.8120 o         1 GIL     -0.827800
     29 O4          9.9210    0.0430    0.0280 o         1 GIL     -0.827800
     30 C8          3.9210   -0.4820   -0.8730 c         1 GIL      0.674700
     31 C10        14.1340    1.7430    0.8140 c3        1 GIL      0.233500
     32 C16        13.8560    4.1640    1.3410 c3        1 GIL      0.233500
     33 C17        15.3540    1.9660   -0.0840 c3        1 GIL     -0.116100
     34 C18        13.4020    0.4920    0.3250 c3        1 GIL     -0.116100
     35 C19        12.9700    4.9640    2.3030 c3        1 GIL     -0.116100
     36 C20        14.2350    5.0800    0.1750 c3        1 GIL     -0.116100
     37 O5          2.8270    0.1190   -0.9590 o         1 GIL     -0.633100
     38 N5          3.9850   -1.8530   -1.0910 n         1 GIL     -0.552900
     39 C9          2.9210   -2.5650   -1.7400 c3        1 GIL      0.087000
     40 C27         3.1010   -2.7910   -3.2520 c3        1 GIL     -0.100700
     41 C28         4.3710   -3.5540   -3.5530 c3        1 GIL     -0.090100
     42 C30         1.8920   -3.5340   -3.7800 c3        1 GIL     -0.090100
     43 H2          7.0750    1.9480   -6.6730 ha        1 GIL      0.133000
     44 H3          7.7940    4.3220   -6.4320 ha        1 GIL      0.124000
     45 H4          9.5000    4.9440   -4.7010 ha        1 GIL      0.139000
     46 H6          9.6350    0.8120   -3.3500 ha        1 GIL      0.206000
     47 H1N1        7.3430   -1.7980   -4.1650 hn        1 GIL      0.417800
     48 H1N2        7.6640   -0.4330   -3.2700 hn        1 GIL      0.417800
     49 H23         6.6000   -1.1600   -1.3760 ha        1 GIL      0.148000
     50 H25         4.0160    1.7890    0.4950 ha        1 GIL      0.144000
     51 H26         6.0550    3.0690    1.2190 ha        1 GIL      0.138000
     52 H10        14.5240    1.5320    1.8590 h1        1 GIL      0.042200
     53 H16        14.8100    3.9060    1.8970 h1        1 GIL      0.042200
     54 H171       15.9440    1.0190   -0.1330 hc        1 GIL      0.043033
     55 H172       15.0420    2.2450   -1.1190 hc        1 GIL      0.043033
     56 H173       16.0120    2.7710    0.3220 hc        1 GIL      0.043033
     57 H181       12.4310    0.3370    0.8620 hc        1 GIL      0.043033
     58 H182       14.0560   -0.3950    0.4960 hc        1 GIL      0.043033
     59 H183       13.1770    0.5710   -0.7670 hc        1 GIL      0.043033
     60 H191       13.5410    5.8490    2.6710 hc        1 GIL      0.043033
     61 H192       12.0470    5.3200    1.7860 hc        1 GIL      0.043033
     62 H193       12.6630    4.3380    3.1750 hc        1 GIL      0.043033
     63 H201       14.9120    4.5550   -0.5410 hc        1 GIL      0.043033
     64 H202       14.7540    5.9850    0.5700 hc        1 GIL      0.043033
     65 H203       13.3240    5.4010   -0.3850 hc        1 GIL      0.043033
     66 H5          4.8860   -2.2680   -1.1620 hn        1 GIL      0.306500
     67 H9C1        1.9580   -2.0000   -1.5760 h1        1 GIL      0.054700
     68 H9C2        2.8320   -3.5720   -1.2390 h1        1 GIL      0.054700
     69 H27         3.1560   -1.7880   -3.7610 hc        1 GIL      0.066700
     70 H281        4.4400   -4.4730   -2.9220 hc        1 GIL      0.033033
     71 H282        4.3920   -3.8610   -4.6270 hc        1 GIL      0.033033
     72 H283        5.2720   -2.9200   -3.3610 hc        1 GIL      0.033033
     73 H301        1.8120   -4.5430   -3.3070 hc        1 GIL      0.033033
     74 H302        1.9760   -3.6680   -4.8850 hc        1 GIL      0.033033
     75 H303        0.9570   -2.9640   -3.5610 hc        1 GIL      0.033033
     76 HN1         8.3810   -0.2030   -7.1410 hn        1 GIL      0.373400
@<TRIPOS>BOND
     1    1    2 ar  
     2    1    6 ar  
     3    1    7 1   
     4    2    3 ar  
     5    2   43 1   
     6    3    4 ar  
     7    3   44 1   
     8    4    5 ar  
     9    4   45 1   
    10    5    6 ar  
    11    5   14 1   
    12    6   46 1   
    13    7    8 1   
    14    7    9 2   
    15    8   47 1   
    16    8   48 1   
    17    9   76 1   
    18   10   11 ar  
    19   10   12 ar  
    20   10   14 1   
    21   11   13 ar  
    22   11   19 1   
    23   12   16 ar  
    24   13   15 ar  
    25   13   17 1   
    26   15   16 ar  
    27   15   20 1   
    28   16   18 1   
    29   17   31 1   
    30   17   32 1   
    31   18   21 1   
    32   21   22 ar  
    33   21   26 ar  
    34   22   23 ar  
    35   22   27 1   
    36   23   24 ar  
    37   23   49 1   
    38   24   25 ar  
    39   24   30 1   
    40   25   26 ar  
    41   25   50 1   
    42   26   51 1   
    43   27   28 1   
    44   27   29 1   
    45   30   37 2   
    46   30   38 1   
    47   31   33 1   
    48   31   34 1   
    49   31   52 1   
    50   32   35 1   
    51   32   36 1   
    52   32   53 1   
    53   33   54 1   
    54   33   55 1   
    55   33   56 1   
    56   34   57 1   
    57   34   58 1   
    58   34   59 1   
    59   35   60 1   
    60   35   61 1   
    61   35   62 1   
    62   36   63 1   
    63   36   64 1   
    64   36   65 1   
    65   38   39 1   
    66   38   66 1   
    67   39   40 1   
    68   39   67 1   
    69   39   68 1   
    70   40   41 1   
    71   40   42 1   
    72   40   69 1   
    73   41   70 1   
    74   41   71 1   
    75   41   72 1   
    76   42   73 1   
    77   42   74 1   
    78   42   75 1   
@<TRIPOS>SUBSTRUCTURE
     1 GIL         1 TEMP              0 ****  ****    0 ROOT
