@<TRIPOS>MOLECULE
GIL
   79    81     1     0     0
SMALL
bcc


@<TRIPOS>ATOM
      1 C1         -0.3550   -1.0580    0.5600 ca        1 GIL     -0.189900
      2 C2          0.7730   -1.7240    0.0700 ca        1 GIL     -0.126000
      3 C3          1.9490   -1.7490    0.8200 ca        1 GIL     -0.098000
      4 C4          2.0170   -1.1170    2.0620 ca        1 GIL     -0.085000
      5 C5          0.8780   -0.4490    2.5340 ca        1 GIL      0.109100
      6 C6         -0.3050   -0.3920    1.7910 ca        1 GIL     -0.113000
      7 C7         -1.6270   -0.9950   -0.1930 ce        1 GIL      0.566800
      8 N1         -2.0580   -2.3730   -0.6630 n4        1 GIL     -0.833600
      9 N2         -2.4220   -0.0460   -0.4700 n2        1 GIL     -0.709100
     10 C11         0.1620    1.1570    4.1060 ca        1 GIL      0.636600
     11 C12        -0.7550    1.0040    5.1810 ca        1 GIL     -0.013400
     12 N3          0.3320    2.3000    3.4000 nb        1 GIL     -0.646000
     13 C13        -1.5910    2.1080    5.5320 ca        1 GIL     -0.022400
     14 O1          0.9700    0.0570    3.8360 os        1 GIL     -0.338400
     15 C14        -1.4850    3.2810    4.7580 ca        1 GIL      0.051600
     16 C15        -0.5020    3.3130    3.6960 ca        1 GIL      0.703600
     17 N4         -2.5250    1.9600    6.6520 n4        1 GIL     -0.567800
     18 O2         -0.4690    4.5350    3.0670 os        1 GIL     -0.334400
     19 F1         -0.8340   -0.1630    5.8540 f         1 GIL     -0.101900
     20 F2         -2.2540    4.3650    4.9620 f         1 GIL     -0.087900
     21 C21         0.2790    4.7090    1.9000 ca        1 GIL      0.180100
     22 C22         0.0130    4.0530    0.6930 ca        1 GIL     -0.123600
     23 C23         0.6930    4.4980   -0.4500 ca        1 GIL     -0.057000
     24 C24         1.5980    5.5610   -0.3860 ca        1 GIL     -0.217600
     25 C25         1.8890    6.1720    0.8480 ca        1 GIL     -0.044000
     26 C26         1.2290    5.7470    1.9910 ca        1 GIL     -0.136000
     27 C29        -0.9410    2.8960    0.4920 c         1 GIL      0.925200
     28 O3         -0.9920    2.3960   -0.6730 o         1 GIL     -0.834300
     29 O4         -1.6370    2.4350    1.4410 o         1 GIL     -0.834300
     30 C8          2.2960    6.0600   -1.5700 c         1 GIL      0.576700
     31 C10        -3.9480    2.3860    6.3080 c3        1 GIL      0.141000
     32 C16        -2.0020    2.5970    7.9370 c3        1 GIL      0.141000
     33 C17        -4.9260    2.0020    7.4130 c3        1 GIL     -0.130350
     34 C18        -4.4090    1.7670    4.9930 c3        1 GIL     -0.130350
     35 C19        -1.7960    4.0980    7.8480 c3        1 GIL     -0.130350
     36 C20        -0.7160    1.9180    8.3920 c3        1 GIL     -0.130350
     37 O5          3.4410    6.4770   -1.6660 o         1 GIL     -0.417100
     38 N5          1.4620    6.1330   -2.8430 n4        1 GIL     -0.678800
     39 C9          2.1360    5.5140   -4.0230 c3        1 GIL      0.100800
     40 C27         1.9730    3.9930   -4.0980 c3        1 GIL     -0.084700
     41 C28         0.5360    3.6000   -4.3600 c3        1 GIL     -0.110100
     42 C30         2.8770    3.4850   -5.2050 c3        1 GIL     -0.110100
     43 H2          0.7640   -2.2070   -0.9190 ha        1 GIL      0.134000
     44 H3          2.8390   -2.2680    0.4270 ha        1 GIL      0.167000
     45 H4          2.9370   -1.1400    2.6670 ha        1 GIL      0.178000
     46 H6         -1.1650    0.2100    2.1350 ha        1 GIL      0.183000
     47 H1N1       -2.1030   -2.9950    0.1480 hn        1 GIL      0.460467
     48 H1N2       -1.3560   -2.7250   -1.3190 hn        1 GIL      0.460467
     49 H23         0.4930    3.9450   -1.3880 ha        1 GIL      0.175000
     50 H25         2.6370    6.9810    0.9050 ha        1 GIL      0.171000
     51 H26         1.4270    6.2240    2.9650 ha        1 GIL      0.175000
     52 H10        -3.9260    3.5120    6.2030 hx        1 GIL      0.112200
     53 H16        -2.8100    2.3840    8.7040 hx        1 GIL      0.112200
     54 H171       -4.7880    2.6310    8.3260 hc        1 GIL      0.077450
     55 H172       -4.8440    0.9230    7.6910 hc        1 GIL      0.077450
     56 H173       -5.9650    2.1840    7.0340 hc        1 GIL      0.077450
     57 H181       -3.7420    2.0560    4.1430 hc        1 GIL      0.077450
     58 H182       -5.4350    2.1540    4.7680 hc        1 GIL      0.077450
     59 H183       -4.4600    0.6540    5.0630 hc        1 GIL      0.077450
     60 H191       -1.5020    4.4670    8.8640 hc        1 GIL      0.077450
     61 H192       -0.9790    4.3560    7.1310 hc        1 GIL      0.077450
     62 H193       -2.7270    4.6310    7.5390 hc        1 GIL      0.077450
     63 H201        0.1280    2.1360    7.6940 hc        1 GIL      0.077450
     64 H202       -0.8370    0.8100    8.4760 hc        1 GIL      0.077450
     65 H203       -0.4510    2.3180    9.4040 hc        1 GIL      0.077450
     66 H5          0.5560    5.6730   -2.6870 hn        1 GIL      0.462300
     67 H9C1        1.6950    5.9810   -4.9510 hx        1 GIL      0.113200
     68 H9C2        3.2330    5.7820   -3.9720 hx        1 GIL      0.113200
     69 H27         2.3080    3.5330   -3.1240 hc        1 GIL      0.067700
     70 H281        0.4810    2.5050   -4.5820 hc        1 GIL      0.058200
     71 H282        0.1250    4.1500   -5.2410 hc        1 GIL      0.058200
     72 H283       -0.1170    3.7920   -3.4740 hc        1 GIL      0.058200
     73 H301        3.9420    3.7570   -5.0050 hc        1 GIL      0.058200
     74 H302        2.5750    3.9130   -6.1910 hc        1 GIL      0.058200
     75 H303        2.8030    2.3720   -5.2670 hc        1 GIL      0.058200
     76 HN1        -2.2010    0.9160   -0.2200 hn        1 GIL      0.562400
     77 H13        -2.9730   -2.3460   -1.1270 hn        1 GIL      0.460467
     78 H41        -2.5750    0.9450    6.8520 hn        1 GIL      0.452800
     79 H52         1.2950    7.1250   -3.0460 hn        1 GIL      0.462300
@<TRIPOS>BOND
     1    1    2 ar  
     2    1    6 ar  
     3    1    7 1   
     4    2    3 ar  
     5    2   43 1   
     6    3    4 ar  
     7    3   44 1   
     8    4    5 ar  
     9    4   45 1   
    10    5    6 ar  
    11    5   14 1   
    12    6   46 1   
    13    7    8 1   
    14    7    9 2   
    15    8   47 1   
    16    8   48 1   
    17    8   77 1   
    18    9   76 1   
    19   10   11 ar  
    20   10   12 ar  
    21   10   14 1   
    22   11   13 ar  
    23   11   19 1   
    24   12   16 ar  
    25   13   15 ar  
    26   13   17 1   
    27   15   16 ar  
    28   15   20 1   
    29   16   18 1   
    30   17   31 1   
    31   17   32 1   
    32   17   78 1   
    33   18   21 1   
    34   21   22 ar  
    35   21   26 ar  
    36   22   23 ar  
    37   22   27 1   
    38   23   24 ar  
    39   23   49 1   
    40   24   25 ar  
    41   24   30 1   
    42   25   26 ar  
    43   25   50 1   
    44   26   51 1   
    45   27   28 1   
    46   27   29 1   
    47   30   37 2   
    48   30   38 1   
    49   31   33 1   
    50   31   34 1   
    51   31   52 1   
    52   32   35 1   
    53   32   36 1   
    54   32   53 1   
    55   33   54 1   
    56   33   55 1   
    57   33   56 1   
    58   34   57 1   
    59   34   58 1   
    60   34   59 1   
    61   35   60 1   
    62   35   61 1   
    63   35   62 1   
    64   36   63 1   
    65   36   64 1   
    66   36   65 1   
    67   38   39 1   
    68   38   66 1   
    69   38   79 1   
    70   39   40 1   
    71   39   67 1   
    72   39   68 1   
    73   40   41 1   
    74   40   42 1   
    75   40   69 1   
    76   41   70 1   
    77   41   71 1   
    78   41   72 1   
    79   42   73 1   
    80   42   74 1   
    81   42   75 1   
@<TRIPOS>SUBSTRUCTURE
     1 GIL         1 TEMP              0 ****  ****    0 ROOT
