@<TRIPOS>MOLECULE
GIL
   78    80     1     0     0
SMALL
bcc


@<TRIPOS>ATOM
      1 C1         -1.0440   -0.7990    0.5730 ca        1 GIL     -0.190900
      2 C2         -0.1130   -1.7480    0.1370 ca        1 GIL     -0.151000
      3 C3          1.0810   -1.9120    0.8400 ca        1 GIL     -0.102000
      4 C4          1.3540   -1.1450    1.9700 ca        1 GIL     -0.111000
      5 C5          0.4100   -0.1930    2.3900 ca        1 GIL      0.136100
      6 C6         -0.7910   -0.0040    1.6940 ca        1 GIL     -0.122000
      7 C7         -2.3110   -0.5720   -0.1550 ce        1 GIL      0.572800
      8 N1         -3.1170   -1.8640   -0.2250 nz        1 GIL     -0.839600
      9 N2         -2.8560    0.4430   -0.6800 n2        1 GIL     -0.715100
     10 C11        -0.0740    1.5790    3.8700 ca        1 GIL      0.556600
     11 C12        -0.8870    1.4700    5.0260 ca        1 GIL     -0.004400
     12 N3          0.0280    2.6850    3.0930 nb        1 GIL     -0.670000
     13 C13        -1.7040    2.5790    5.4140 ca        1 GIL      0.144600
     14 O1          0.7380    0.4800    3.5620 os        1 GIL     -0.341400
     15 C14        -1.6570    3.7200    4.5680 ca        1 GIL      0.050600
     16 C15        -0.7760    3.7060    3.4320 ca        1 GIL      0.628600
     17 N4         -2.5420    2.6050    6.5490 nh        1 GIL     -0.692000
     18 O2         -0.8170    4.8900    2.7070 os        1 GIL     -0.344400
     19 F1         -0.8750    0.3220    5.7340 f         1 GIL     -0.110900
     20 F2         -2.4040    4.8150    4.7950 f         1 GIL     -0.090900
     21 C21         0.0080    5.0420    1.5990 ca        1 GIL      0.219100
     22 C22        -0.1320    4.3380    0.3940 ca        1 GIL     -0.122600
     23 C23         0.6680    4.7320   -0.6850 ca        1 GIL     -0.061000
     24 C24         1.5550    5.8100   -0.5890 ca        1 GIL     -0.237600
     25 C25         1.7000    6.4890    0.6380 ca        1 GIL     -0.041000
     26 C26         0.9320    6.1040    1.7240 ca        1 GIL     -0.153000
     27 C29        -1.0760    3.1910    0.1130 c         1 GIL      0.920200
     28 O3         -1.0020    2.6570   -1.0430 o         1 GIL     -0.831300
     29 O4         -1.9050    2.7770    0.9660 o         1 GIL     -0.831300
     30 C8          2.3590    6.2670   -1.7100 c         1 GIL      0.586700
     31 C10        -3.7140    1.7370    6.5790 c3        1 GIL      0.226000
     32 C16        -1.9220    2.9360    7.8290 c3        1 GIL      0.226000
     33 C17        -3.5730    0.4340    7.3680 c3        1 GIL     -0.115850
     34 C18        -4.2490    1.4050    5.1860 c3        1 GIL     -0.115850
     35 C19        -1.4280    4.3850    7.8640 c3        1 GIL     -0.115850
     36 C20        -0.7730    2.0230    8.2600 c3        1 GIL     -0.115850
     37 O5          3.4270    6.8660   -1.7110 o         1 GIL     -0.449100
     38 N5          1.7680    6.0330   -3.1010 ny        1 GIL     -0.681800
     39 C9          2.6410    5.1820   -3.9610 c3        1 GIL      0.103800
     40 C27         2.4430    3.6770   -3.7490 c3        1 GIL     -0.086700
     41 C28         1.0890    3.2190   -4.2470 c3        1 GIL     -0.109100
     42 C30         3.5550    2.9560   -4.4860 c3        1 GIL     -0.109100
     43 H2         -0.2900   -2.3410   -0.7710 ha        1 GIL      0.125000
     44 H3          1.8200   -2.6520    0.4950 ha        1 GIL      0.152000
     45 H4          2.2910   -1.2700    2.5330 ha        1 GIL      0.169000
     46 H6         -1.5070    0.7890    1.9800 ha        1 GIL      0.201000
     47 H1N1       -3.3790   -2.1240    0.7280 hn        1 GIL      0.453800
     48 H1N2       -2.5240   -2.5940   -0.6230 hn        1 GIL      0.453800
     49 H23         0.5730    4.1180   -1.6020 ha        1 GIL      0.168000
     50 H25         2.4210    7.3180    0.7280 ha        1 GIL      0.161000
     51 H26         1.0220    6.6270    2.6900 ha        1 GIL      0.173000
     52 H10        -4.5020    2.3630    7.1070 h1        1 GIL      0.063700
     53 H16        -2.7470    2.8410    8.6000 h1        1 GIL      0.063700
     54 H171       -4.5490   -0.1080    7.3480 hc        1 GIL      0.044533
     55 H172       -2.7890   -0.2260    6.9260 hc        1 GIL      0.044533
     56 H173       -3.3070    0.6380    8.4330 hc        1 GIL      0.044533
     57 H181       -5.2350    0.8940    5.2920 hc        1 GIL      0.044533
     58 H182       -4.3910    2.3310    4.5780 hc        1 GIL      0.044533
     59 H183       -3.5470    0.7240    4.6470 hc        1 GIL      0.044533
     60 H191       -1.0960    4.6260    8.9010 hc        1 GIL      0.044533
     61 H192       -2.2410    5.0910    7.5690 hc        1 GIL      0.044533
     62 H193       -0.5680    4.5290    7.1680 hc        1 GIL      0.044533
     63 H201       -1.0940    0.9530    8.2770 hc        1 GIL      0.044533
     64 H202       -0.4370    2.3150    9.2830 hc        1 GIL      0.044533
     65 H203        0.0910    2.1140    7.5590 hc        1 GIL      0.044533
     66 H5          1.6630    6.9490   -3.5500 hn        1 GIL      0.458800
     67 H9C1        2.4140    5.4360   -5.0370 hx        1 GIL      0.104700
     68 H9C2        3.7120    5.4640   -3.7430 hx        1 GIL      0.104700
     69 H27         2.5300    3.4370   -2.6510 hc        1 GIL      0.078700
     70 H281        0.2580    3.5810   -3.5920 hc        1 GIL      0.056700
     71 H282        1.0480    2.1010   -4.2400 hc        1 GIL      0.056700
     72 H283        0.9080    3.5670   -5.2920 hc        1 GIL      0.056700
     73 H301        3.4540    1.8540   -4.3290 hc        1 GIL      0.056700
     74 H302        4.5560    3.2750   -4.1060 hc        1 GIL      0.056700
     75 H303        3.5030    3.1620   -5.5820 hc        1 GIL      0.056700
     76 HN1        -2.4030    1.3580   -0.6590 hn        1 GIL      0.570400
     77 H13        -3.9630   -1.7560   -0.7940 hn        1 GIL      0.453800
     78 H52         0.8410    5.6000   -3.0160 hn        1 GIL      0.458800
@<TRIPOS>BOND
     1    1    2 ar  
     2    1    6 ar  
     3    1    7 1   
     4    2    3 ar  
     5    2   43 1   
     6    3    4 ar  
     7    3   44 1   
     8    4    5 ar  
     9    4   45 1   
    10    5    6 ar  
    11    5   14 1   
    12    6   46 1   
    13    7    8 1   
    14    7    9 2   
    15    8   47 1   
    16    8   48 1   
    17    8   77 1   
    18    9   76 1   
    19   10   11 ar  
    20   10   12 ar  
    21   10   14 1   
    22   11   13 ar  
    23   11   19 1   
    24   12   16 ar  
    25   13   15 ar  
    26   13   17 1   
    27   15   16 ar  
    28   15   20 1   
    29   16   18 1   
    30   17   31 1   
    31   17   32 1   
    32   18   21 1   
    33   21   22 ar  
    34   21   26 ar  
    35   22   23 ar  
    36   22   27 1   
    37   23   24 ar  
    38   23   49 1   
    39   24   25 ar  
    40   24   30 1   
    41   25   26 ar  
    42   25   50 1   
    43   26   51 1   
    44   27   28 1   
    45   27   29 1   
    46   30   37 2   
    47   30   38 1   
    48   31   33 1   
    49   31   34 1   
    50   31   52 1   
    51   32   35 1   
    52   32   36 1   
    53   32   53 1   
    54   33   54 1   
    55   33   55 1   
    56   33   56 1   
    57   34   57 1   
    58   34   58 1   
    59   34   59 1   
    60   35   60 1   
    61   35   61 1   
    62   35   62 1   
    63   36   63 1   
    64   36   64 1   
    65   36   65 1   
    66   38   39 1   
    67   38   66 1   
    68   38   78 1   
    69   39   40 1   
    70   39   67 1   
    71   39   68 1   
    72   40   41 1   
    73   40   42 1   
    74   40   69 1   
    75   41   70 1   
    76   41   71 1   
    77   41   72 1   
    78   42   73 1   
    79   42   74 1   
    80   42   75 1   
@<TRIPOS>SUBSTRUCTURE
     1 GIL         1 TEMP              0 ****  ****    0 ROOT
