@<TRIPOS>MOLECULE
GIL
   76    69     1     0     0
SMALL
bcc


@<TRIPOS>ATOM
      1 C1          0.6610    4.3790   -1.7060 c1        1 GIL     -0.117000
      2 C2         -0.1930    4.5560   -0.6190 c1        1 GIL     -0.124500
      3 C3         -1.2530    3.6790   -0.4160 c1        1 GIL     -0.124500
      4 C4         -1.4620    2.6240   -1.2990 c1        1 GIL     -0.120000
      5 C5         -0.6090    2.4470   -2.3840 c1        1 GIL      0.065000
      6 C6          0.4530    3.3270   -2.5860 c1        1 GIL     -0.123000
      7 C7          1.8310    5.4000   -1.9640 c2        1 GIL      0.127000
      8 N1          2.1150    5.8500   -3.3130 n3        1 GIL     -0.337000
      9 N2          2.5540    5.8460   -0.9530 n1        1 GIL     -0.326000
     10 C11        -1.0860    0.2070   -2.6720 c1        1 GIL      0.103000
     11 C12        -2.3760   -0.3050   -2.5500 c1        1 GIL     -0.010000
     12 N3         -0.0100   -0.5470   -2.2820 n1        1 GIL     -0.177000
     13 C13        -2.5680   -1.5570   -2.0440 c1        1 GIL      0.051000
     14 O1         -0.8780    1.4310   -3.3360 os        1 GIL     -0.153000
     15 C14        -1.4820   -2.3170   -1.6520 c1        1 GIL      0.076000
     16 C15        -0.2010   -1.8070   -1.7730 c1        1 GIL      0.189000
     17 N4         -3.8750   -2.1260   -2.0320 n3        1 GIL     -0.286000
     18 O2          0.9460   -2.6600   -1.4980 os        1 GIL     -0.143000
     19 F1         -3.4240    0.4130   -2.9730 f         1 GIL     -0.098000
     20 F2         -1.6600   -3.5830   -1.2650 f         1 GIL     -0.075000
     21 C21         1.4930   -2.3320   -0.2020 c2        1 GIL      0.115000
     22 C22         1.8350   -3.3480    0.6880 c2        1 GIL     -0.130000
     23 C23         2.4120   -3.0320    1.9170 c1        1 GIL     -0.061000
     24 C24         2.6470   -1.7050    2.2540 c1        1 GIL     -0.161000
     25 C25         2.3060   -0.6910    1.3660 c1        1 GIL     -0.080000
     26 C26         1.7280   -1.0060    0.1350 c1        1 GIL     -0.170000
     27 C29         1.7520   -4.8100    0.2410 c2        1 GIL      0.364000
     28 O3          0.9030   -5.1570   -0.6220 o         1 GIL     -0.562000
     29 O4          2.5880   -5.6560    0.6830 o         1 GIL     -0.562000
     30 C8          3.3100   -1.3530    3.6220 c2        1 GIL      0.357000
     31 C10        -4.4600   -2.5590   -0.7810 c3        1 GIL      0.034500
     32 C16        -4.6570   -2.2390   -3.3110 c3        1 GIL      0.034500
     33 C17        -3.4850   -3.4830   -0.0570 c3        1 GIL     -0.232750
     34 C18        -4.7480   -1.3440    0.0880 c3        1 GIL     -0.232750
     35 C19        -5.9620   -1.4600   -3.1810 c3        1 GIL     -0.232750
     36 C20        -4.9650   -3.6960   -3.5890 c3        1 GIL     -0.232750
     37 O5          3.6190   -2.2420    4.3930 o         1 GIL     -0.401000
     38 N5          3.4530    0.0320    4.0220 n         1 GIL     -0.382000
     39 C9          4.7630    0.5560    4.3640 c3        1 GIL     -0.020000
     40 C27         4.7260    2.0950    4.3270 c3        1 GIL     -0.130000
     41 C28         6.0440    2.6300    3.7100 c3        1 GIL     -0.206500
     42 C30         4.5720    2.6440    5.7750 c3        1 GIL     -0.206500
     43 H2         -0.0470    5.2980    0.0020 ha        1 GIL      0.144500
     44 H3         -1.8560    3.8050    0.3520 ha        1 GIL      0.144500
     45 H4         -2.1670    1.9610   -1.1150 ha        1 GIL      0.207000
     46 H6          1.0520    3.2030   -3.3480 ha        1 GIL      0.152000
     47 H1N1        2.8140    6.4380   -3.4680 hn        1 GIL      0.189000
     48 H1N2        1.5730    5.5930   -4.0030 hn        1 GIL      0.189000
     49 H23         2.7150   -3.7470    2.5110 ha        1 GIL      0.161000
     50 H25         2.4030    0.2390    1.6320 ha        1 GIL      0.141000
     51 H26         1.5780   -0.3040   -0.5250 ha        1 GIL      0.137000
     52 H10        -5.2850   -3.0330   -0.9570 h1        1 GIL      0.083500
     53 H16        -4.1290   -1.8690   -4.0510 h1        1 GIL      0.083500
     54 H171       -3.1220   -4.1290   -0.6880 hc        1 GIL      0.081417
     55 H172       -3.9540   -3.9560    0.6630 hc        1 GIL      0.081417
     56 H173       -2.7470   -2.9470    0.3270 hc        1 GIL      0.081417
     57 H181       -5.0630   -0.6110   -0.4740 hc        1 GIL      0.081417
     58 H182       -3.9240   -1.0710    0.5550 hc        1 GIL      0.081417
     59 H183       -5.4380   -1.5690    0.7480 hc        1 GIL      0.081417
     60 H191       -6.3490   -1.3090   -4.0820 hc        1 GIL      0.081417
     61 H192       -5.7860   -0.6020   -2.7570 hc        1 GIL      0.081417
     62 H193       -6.5930   -1.9700   -2.6360 hc        1 GIL      0.081417
     63 H201       -5.8030   -3.9420   -3.1470 hc        1 GIL      0.081417
     64 H202       -4.2420   -4.2510   -3.2470 hc        1 GIL      0.081417
     65 H203       -5.0530   -3.8350   -4.5670 hc        1 GIL      0.081417
     66 H5          2.7140    0.5580    4.1150 hn        1 GIL      0.232000
     67 H9C1        5.4210    0.2300    3.7210 h1        1 GIL      0.092000
     68 H9C2        5.0090    0.2580    5.2630 h1        1 GIL      0.092000
     69 H27         3.9680    2.3910    3.7840 hc        1 GIL      0.087000
     70 H281        5.8410    3.3860    3.1040 hc        1 GIL      0.073000
     71 H282        6.4850    1.9090    3.2000 hc        1 GIL      0.073000
     72 H283        6.6380    2.9360    4.4240 hc        1 GIL      0.073000
     73 H301        4.6780    3.6190    5.7680 hc        1 GIL      0.073000
     74 H302        5.2580    2.2440    6.3510 hc        1 GIL      0.073000
     75 H303        3.6750    2.4110    6.1210 hc        1 GIL      0.073000
     76 HN1         2.3750    5.5620   -0.1010 DU        1 GIL      0.150000
@<TRIPOS>BOND
     1    1    6 1   
     2    1    7 1   
     3    2    3 1   
     4    2   43 1   
     5    3   44 1   
     6    4    5 1   
     7    4   45 1   
     8    5   14 1   
     9    6   46 1   
    10    7    8 1   
    11    7    9 1   
    12    8   47 1   
    13    8   48 1   
    14   10   12 1   
    15   10   14 1   
    16   11   13 1   
    17   11   19 1   
    18   13   17 1   
    19   15   16 1   
    20   15   20 1   
    21   16   18 1   
    22   17   31 1   
    23   17   32 1   
    24   18   21 1   
    25   21   22 1   
    26   21   26 1   
    27   22   23 1   
    28   22   27 1   
    29   23   49 1   
    30   24   25 1   
    31   24   30 1   
    32   25   50 1   
    33   26   51 1   
    34   27   28 1   
    35   27   29 1   
    36   30   37 1   
    37   30   38 1   
    38   31   33 1   
    39   31   34 1   
    40   31   52 1   
    41   32   35 1   
    42   32   36 1   
    43   32   53 1   
    44   33   54 1   
    45   33   55 1   
    46   33   56 1   
    47   34   57 1   
    48   34   58 1   
    49   34   59 1   
    50   35   60 1   
    51   35   61 1   
    52   35   62 1   
    53   36   63 1   
    54   36   64 1   
    55   36   65 1   
    56   38   39 1   
    57   38   66 1   
    58   39   40 1   
    59   39   67 1   
    60   39   68 1   
    61   40   41 1   
    62   40   42 1   
    63   40   69 1   
    64   41   70 1   
    65   41   71 1   
    66   41   72 1   
    67   42   73 1   
    68   42   74 1   
    69   42   75 1   
@<TRIPOS>SUBSTRUCTURE
     1 GIL         1 TEMP              0 ****  ****    0 ROOT
