@<TRIPOS>MOLECULE
GIL
   78    80     1     0     0
SMALL
bcc


@<TRIPOS>ATOM
      1 C1         -0.9540   -0.6950    0.4750 ca        1 GIL     -0.189900
      2 C2         -0.0270   -1.6570    0.0600 ca        1 GIL     -0.152000
      3 C3          1.1620   -1.8170    0.7710 ca        1 GIL     -0.101000
      4 C4          1.4360   -1.0340    1.8890 ca        1 GIL     -0.112000
      5 C5          0.4970   -0.0680    2.2890 ca        1 GIL      0.137100
      6 C6         -0.7000    0.1170    1.5850 ca        1 GIL     -0.124000
      7 C7         -2.2130   -0.4650   -0.2640 ce        1 GIL      0.571800
      8 N1         -3.0250   -1.7510   -0.3430 n4        1 GIL     -0.838600
      9 N2         -2.7450    0.5550   -0.7930 n2        1 GIL     -0.714100
     10 C11        -0.0200    1.6880    3.7790 ca        1 GIL      0.554600
     11 C12        -0.8290    1.5220    4.9320 ca        1 GIL     -0.002400
     12 N3          0.0440    2.8160    3.0310 nb        1 GIL     -0.670000
     13 C13        -1.6820    2.5930    5.3490 ca        1 GIL      0.144600
     14 O1          0.8320    0.6270    3.4460 os        1 GIL     -0.340400
     15 C14        -1.6710    3.7560    4.5340 ca        1 GIL      0.052600
     16 C15        -0.7890    3.8020    3.3990 ca        1 GIL      0.626600
     17 N4         -2.5200    2.5600    6.4830 nh        1 GIL     -0.692000
     18 O2         -0.8620    5.0080    2.7150 os        1 GIL     -0.343400
     19 F1         -0.7780    0.3570    5.6100 f         1 GIL     -0.110900
     20 F2         -2.4510    4.8220    4.7910 f         1 GIL     -0.088900
     21 C21        -0.0610    5.2200    1.6020 ca        1 GIL      0.225100
     22 C22        -0.1770    4.5370    0.3820 ca        1 GIL     -0.126600
     23 C23         0.5770    5.0050   -0.6990 ca        1 GIL     -0.060000
     24 C24         1.4410    6.1010   -0.5830 ca        1 GIL     -0.236600
     25 C25         1.5520    6.7660    0.6570 ca        1 GIL     -0.034000
     26 C26         0.8070    6.3280    1.7370 ca        1 GIL     -0.157000
     27 C29        -1.0350    3.3260    0.0870 c         1 GIL      0.922200
     28 O3         -0.8460    2.7510   -1.0360 o         1 GIL     -0.833300
     29 O4         -1.9000    2.9000    0.8970 o         1 GIL     -0.833300
     30 C8          2.2470    6.5990   -1.6820 c         1 GIL      0.584700
     31 C10        -3.6600    1.6490    6.4920 c3        1 GIL      0.226000
     32 C16        -1.9120    2.8840    7.7720 c3        1 GIL      0.226000
     33 C17        -3.4710    0.3360    7.2530 c3        1 GIL     -0.115850
     34 C18        -4.1810    1.3290    5.0910 c3        1 GIL     -0.115850
     35 C19        -1.4740    4.3490    7.8410 c3        1 GIL     -0.115850
     36 C20        -0.7300    2.0050    8.1800 c3        1 GIL     -0.115850
     37 O5          3.0790    7.4990   -1.6970 o         1 GIL     -0.454100
     38 N5          2.0390    5.9410   -3.0420 n4        1 GIL     -0.678800
     39 C9          2.7370    4.6240   -3.1280 c3        1 GIL      0.101800
     40 C27         2.2540    3.7620   -4.2990 c3        1 GIL     -0.084700
     41 C28         0.8000    3.3700   -4.1420 c3        1 GIL     -0.113100
     42 C30         3.1360    2.5290   -4.3610 c3        1 GIL     -0.113100
     43 H2         -0.2040   -2.2650   -0.8390 ha        1 GIL      0.125000
     44 H3          1.8980   -2.5690    0.4420 ha        1 GIL      0.152000
     45 H4          2.3690   -1.1560    2.4590 ha        1 GIL      0.169000
     46 H6         -1.4140    0.9190    1.8530 ha        1 GIL      0.202000
     47 H1N1       -3.2980   -2.0090    0.6080 hn        1 GIL      0.454467
     48 H1N2       -2.4330   -2.4850   -0.7350 hn        1 GIL      0.454467
     49 H23         0.4420    4.4430   -1.6440 ha        1 GIL      0.165000
     50 H25         2.2340    7.6280    0.7590 ha        1 GIL      0.165000
     51 H26         0.8710    6.8430    2.7100 ha        1 GIL      0.174000
     52 H10        -4.4700    2.2340    7.0330 h1        1 GIL      0.064200
     53 H16        -2.7330    2.7400    8.5400 h1        1 GIL      0.064200
     54 H171       -3.2120    0.5260    8.3220 hc        1 GIL      0.044533
     55 H172       -2.6640   -0.2860    6.7970 hc        1 GIL      0.044533
     56 H173       -4.4270   -0.2410    7.2210 hc        1 GIL      0.044533
     57 H181       -3.4540    0.6860    4.5390 hc        1 GIL      0.044533
     58 H182       -5.1470    0.7780    5.1860 hc        1 GIL      0.044533
     59 H183       -4.3570    2.2620    4.5040 hc        1 GIL      0.044533
     60 H191       -2.3140    5.0310    7.5650 hc        1 GIL      0.044533
     61 H192       -0.6210    4.5430    7.1470 hc        1 GIL      0.044533
     62 H193       -1.1480    4.5770    8.8830 hc        1 GIL      0.044533
     63 H201       -1.0110    0.9230    8.1710 hc        1 GIL      0.044533
     64 H202        0.1300    2.1460    7.4820 hc        1 GIL      0.044533
     65 H203       -0.4040    2.2840    9.2100 hc        1 GIL      0.044533
     66 H5          1.0330    5.8000   -3.1930 hn        1 GIL      0.456300
     67 H9C1        3.8410    4.8320   -3.2280 hx        1 GIL      0.110200
     68 H9C2        2.5590    4.0690   -2.1600 hx        1 GIL      0.110200
     69 H27         2.3810    4.3370   -5.2600 hc        1 GIL      0.060700
     70 H281        0.5340    2.6070   -4.9150 hc        1 GIL      0.059533
     71 H282        0.5960    2.9220   -3.1350 hc        1 GIL      0.059533
     72 H283        0.1220    4.2450   -4.2880 hc        1 GIL      0.059533
     73 H301        2.8410    1.9030   -5.2370 hc        1 GIL      0.059533
     74 H302        4.2090    2.8140   -4.4740 hc        1 GIL      0.059533
     75 H303        3.0210    1.9170   -3.4340 hc        1 GIL      0.059533
     76 HN1        -2.2840    1.4650   -0.7590 hn        1 GIL      0.568400
     77 H13        -3.8650   -1.6370   -0.9200 hn        1 GIL      0.454467
     78 H52         2.3980    6.5620   -3.7750 hn        1 GIL      0.456300
@<TRIPOS>BOND
     1    1    2 ar  
     2    1    6 ar  
     3    1    7 1   
     4    2    3 ar  
     5    2   43 1   
     6    3    4 ar  
     7    3   44 1   
     8    4    5 ar  
     9    4   45 1   
    10    5    6 ar  
    11    5   14 1   
    12    6   46 1   
    13    7    8 1   
    14    7    9 2   
    15    8   47 1   
    16    8   48 1   
    17    8   77 1   
    18    9   76 1   
    19   10   11 ar  
    20   10   12 ar  
    21   10   14 1   
    22   11   13 ar  
    23   11   19 1   
    24   12   16 ar  
    25   13   15 ar  
    26   13   17 1   
    27   15   16 ar  
    28   15   20 1   
    29   16   18 1   
    30   17   31 1   
    31   17   32 1   
    32   18   21 1   
    33   21   22 ar  
    34   21   26 ar  
    35   22   23 ar  
    36   22   27 1   
    37   23   24 ar  
    38   23   49 1   
    39   24   25 ar  
    40   24   30 1   
    41   25   26 ar  
    42   25   50 1   
    43   26   51 1   
    44   27   28 1   
    45   27   29 1   
    46   30   37 2   
    47   30   38 1   
    48   31   33 1   
    49   31   34 1   
    50   31   52 1   
    51   32   35 1   
    52   32   36 1   
    53   32   53 1   
    54   33   54 1   
    55   33   55 1   
    56   33   56 1   
    57   34   57 1   
    58   34   58 1   
    59   34   59 1   
    60   35   60 1   
    61   35   61 1   
    62   35   62 1   
    63   36   63 1   
    64   36   64 1   
    65   36   65 1   
    66   38   39 1   
    67   38   66 1   
    68   38   78 1   
    69   39   40 1   
    70   39   67 1   
    71   39   68 1   
    72   40   41 1   
    73   40   42 1   
    74   40   69 1   
    75   41   70 1   
    76   41   71 1   
    77   41   72 1   
    78   42   73 1   
    79   42   74 1   
    80   42   75 1   
@<TRIPOS>SUBSTRUCTURE
     1 GIL         1 TEMP              0 ****  ****    0 ROOT
