@<TRIPOS>MOLECULE
GIM
   27    28     1     0     0
SMALL
bcc


@<TRIPOS>ATOM
      1 C1         -0.0350   -0.0180   -0.0730 cc        1 GIM      0.004100
      2 C2          1.4700    0.0530   -0.0860 c3        1 GIM      0.213400
      3 N10        -0.8200    0.3570    1.0010 na        1 GIM     -0.014100
      4 C3          1.9720    0.0190    1.3720 c3        1 GIM      0.073100
      5 C4          1.2290    1.0770    2.2110 c3        1 GIM      0.105100
      6 C5         -0.2900    0.7710    2.2930 c3        1 GIM     -0.006000
      7 C6         -1.0210    2.0020    2.8800 c3        1 GIM      0.122400
      8 C7         -2.1930   -0.2930   -0.6670 cc        1 GIM     -0.123300
      9 C8         -2.1680    0.2010    0.6460 cd        1 GIM     -0.091300
     10 N1         -0.8640   -0.4200   -1.0930 na        1 GIM     -0.111100
     11 O3          3.3470    0.3430    1.3040 oh        1 GIM     -0.589800
     12 O2          1.9320   -1.0550   -0.8300 oh        1 GIM     -0.591800
     13 O4          1.6890    1.0140    3.5480 oh        1 GIM     -0.583800
     14 O6         -2.3620    1.6760    3.1570 oh        1 GIM     -0.599800
     15 H2          1.7900    1.0160   -0.5850 h1        1 GIM      0.106700
     16 H3          1.8220   -1.0050    1.8140 h1        1 GIM      0.088700
     17 H4          1.4000    2.1000    1.7740 h1        1 GIM      0.078700
     18 H5         -0.4420   -0.1020    3.0020 h1        1 GIM      0.116700
     19 H6C1       -0.4550    2.3170    3.7980 h1        1 GIM      0.087700
     20 H6C2       -1.0550    2.8480    2.1420 h1        1 GIM      0.087700
     21 H7         -3.0420   -0.5540   -1.3070 h4        1 GIM      0.235000
     22 H8         -2.9810    0.4630    1.3380 h4        1 GIM      0.254000
     23 H1         -0.5450   -0.7880   -1.9640 hn        1 GIM      0.367700
     24 HB          3.7640    0.0010    2.1070 ho        1 GIM      0.439000
     25 HA          2.9000   -1.0590   -0.7510 ho        1 GIM      0.463000
     26 HC          2.5090    1.5270    3.5900 ho        1 GIM      0.438000
     27 H6         -2.4210    1.3850    4.0760 ho        1 GIM      0.430000
@<TRIPOS>BOND
     1    1    2 1   
     2    1    3 2   
     3    1   10 1   
     4    2    4 1   
     5    2   12 1   
     6    2   15 1   
     7    3    6 1   
     8    3    9 1   
     9    4    5 1   
    10    4   11 1   
    11    4   16 1   
    12    5    6 1   
    13    5   13 1   
    14    5   17 1   
    15    6    7 1   
    16    6   18 1   
    17    7   14 1   
    18    7   19 1   
    19    7   20 1   
    20    8    9 2   
    21    8   10 1   
    22    8   21 1   
    23    9   22 1   
    24   10   23 1   
    25   11   24 1   
    26   12   25 1   
    27   13   26 1   
    28   14   27 1   
@<TRIPOS>SUBSTRUCTURE
     1 GIM         1 TEMP              0 ****  ****    0 ROOT
