@<TRIPOS>MOLECULE
GIM
   27    28     1     0     0
SMALL
bcc


@<TRIPOS>ATOM
      1 C1          0.0150   -1.4360    0.1770 cc        1 GIM      0.004100
      2 C2         -1.4360   -1.0980    0.4020 c3        1 GIM      0.213400
      3 N10         1.0060   -0.4970   -0.0390 na        1 GIM     -0.014100
      4 C3         -1.7140    0.2890   -0.2130 c3        1 GIM      0.073100
      5 C4         -0.6720    1.3080    0.2880 c3        1 GIM      0.105100
      6 C5          0.7590    0.9310   -0.1780 c3        1 GIM     -0.006000
      7 C6          1.7830    1.8000    0.5890 c3        1 GIM      0.122400
      8 C7          1.9720   -2.5360   -0.0330 cc        1 GIM     -0.123300
      9 C8          2.2340   -1.1630   -0.1630 cd        1 GIM     -0.091300
     10 N1          0.5950   -2.6830    0.1780 na        1 GIM     -0.111100
     11 O3         -3.0010    0.6540    0.2480 oh        1 GIM     -0.589800
     12 O2         -2.2000   -2.1130   -0.2150 oh        1 GIM     -0.591800
     13 O4         -0.9330    2.5660   -0.3050 oh        1 GIM     -0.583800
     14 O6          3.0670    1.6270    0.0380 oh        1 GIM     -0.599800
     15 H2         -1.6430   -1.0790    1.5140 h1        1 GIM      0.106700
     16 H3         -1.6920    0.2300   -1.3370 h1        1 GIM      0.088700
     17 H4         -0.7140    1.3750    1.4100 h1        1 GIM      0.078700
     18 H5          0.8500    1.1700   -1.2840 h1        1 GIM      0.116700
     19 H6C1        1.8640    1.4840    1.6640 h1        1 GIM      0.087700
     20 H6C2        1.4280    2.8640    0.5280 h1        1 GIM      0.087700
     21 H7          2.6550   -3.3910   -0.0730 h4        1 GIM      0.235000
     22 H8          3.1750   -0.6150   -0.3150 h4        1 GIM      0.254000
     23 H1          0.0880   -3.5380    0.2630 hn        1 GIM      0.367700
     24 HB         -3.3500    1.3150   -0.3660 ho        1 GIM      0.439000
     25 HA         -3.1300   -1.8380   -0.1530 ho        1 GIM      0.463000
     26 HC         -1.6290    2.9880    0.2200 ho        1 GIM      0.438000
     27 H6          3.2060    2.3110   -0.6300 ho        1 GIM      0.430000
@<TRIPOS>BOND
     1    1    2 1   
     2    1    3 2   
     3    1   10 1   
     4    2    4 1   
     5    2   12 1   
     6    2   15 1   
     7    3    6 1   
     8    3    9 1   
     9    4    5 1   
    10    4   11 1   
    11    4   16 1   
    12    5    6 1   
    13    5   13 1   
    14    5   17 1   
    15    6    7 1   
    16    6   18 1   
    17    7   14 1   
    18    7   19 1   
    19    7   20 1   
    20    8    9 2   
    21    8   10 1   
    22    8   21 1   
    23    9   22 1   
    24   10   23 1   
    25   11   24 1   
    26   12   25 1   
    27   13   26 1   
    28   14   27 1   
@<TRIPOS>SUBSTRUCTURE
     1 GIM         1 TEMP              0 ****  ****    0 ROOT
