@<TRIPOS>MOLECULE
GIM
   27    23     1     0     0
SMALL
bcc


@<TRIPOS>ATOM
      1 C1         -0.4700   -0.3760   -1.4440 c1        1 GIM      0.049000
      2 C2          1.1540   -0.3970   -1.4420 c2        1 GIM      0.065000
      3 N10        -1.1620   -0.2380   -0.1320 n2        1 GIM     -0.095000
      4 C3          1.7720   -0.4390   -0.1880 c3        1 GIM     -0.052000
      5 C4          1.1090    0.3100    0.9070 c3        1 GIM     -0.003000
      6 C5         -0.2860    0.0330    1.1330 c2        1 GIM     -0.025000
      7 C6         -0.8870    1.2240    1.8780 c3        1 GIM     -0.027000
      8 C7         -2.6400   -0.7520   -1.7280 c1        1 GIM     -0.082500
      9 C8         -2.4400   -0.4640   -0.3230 c1        1 GIM     -0.082500
     10 N1         -1.3980   -0.6840   -2.3670 n2        1 GIM     -0.095000
     11 O3          3.1940    0.1180   -0.3480 oh        1 GIM     -0.293000
     12 O2          1.6010   -1.5820   -2.2150 oh        1 GIM     -0.314000
     13 O4          1.8760    0.0010    2.2250 oh        1 GIM     -0.307000
     14 O6         -1.8000    0.7370    2.9240 oh        1 GIM     -0.329000
     15 H2          1.4660    0.3950   -1.9000 h4        1 GIM      0.135000
     16 H3          1.8400   -1.3990    0.0920 h1        1 GIM      0.166000
     17 H4          1.2010    1.2760    0.7150 h1        1 GIM      0.105000
     18 H5         -0.3500   -0.7790    1.7360 ha        1 GIM      0.157000
     19 H6C1       -0.1490    1.7640    2.3010 h1        1 GIM      0.130000
     20 H6C2       -1.4050    1.8110    1.2190 h1        1 GIM      0.130000
     21 H7         -3.5200   -0.9030   -2.1770 DU        1 GIM      0.269667
     22 H8         -3.1460   -0.4420    0.3720 DU        1 GIM      0.269667
     23 H1         -1.2490   -0.8190   -3.2230 DU        1 GIM      0.269667
     24 HB          3.1810    0.8060   -0.9070 ho        1 GIM      0.221000
     25 HA          2.0270   -1.3040   -2.9900 ho        1 GIM      0.261000
     26 HC          2.4980    0.6760    2.3910 ho        1 GIM      0.246000
     27 H6         -2.0160    1.4280    3.4900 ho        1 GIM      0.230000
@<TRIPOS>BOND
     1    1    3 1   
     2    1   10 1   
     3    2    4 1   
     4    2   12 1   
     5    2   15 1   
     6    3    9 1   
     7    4    5 1   
     8    4   11 1   
     9    4   16 1   
    10    5    6 1   
    11    5   13 1   
    12    5   17 1   
    13    6    7 1   
    14    6   18 1   
    15    7   14 1   
    16    7   19 1   
    17    7   20 1   
    18    8    9 1   
    19    8   10 1   
    20   11   24 1   
    21   12   25 1   
    22   13   26 1   
    23   14   27 1   
@<TRIPOS>SUBSTRUCTURE
     1 GIM         1 TEMP              0 ****  ****    0 ROOT
