@<TRIPOS>MOLECULE
GIM
   27    28     1     0     0
SMALL
bcc


@<TRIPOS>ATOM
      1 C1         -0.0380   -0.0310   -0.0670 cc        1 GIM      0.004100
      2 C2          1.4660    0.0550   -0.0900 c3        1 GIM      0.213400
      3 N10        -0.8200    0.3450    1.0090 na        1 GIM     -0.014100
      4 C3          1.9770    0.0370    1.3650 c3        1 GIM      0.073100
      5 C4          1.2290    1.0940    2.2000 c3        1 GIM      0.105100
      6 C5         -0.2860    0.7740    2.2940 c3        1 GIM     -0.006000
      7 C6         -1.0260    2.0020    2.8760 c3        1 GIM      0.122400
      8 C7         -2.1970   -0.3320   -0.6450 cc        1 GIM     -0.123300
      9 C8         -2.1680    0.1720    0.6630 cd        1 GIM     -0.091300
     10 N1         -0.8700   -0.4500   -1.0790 na        1 GIM     -0.111100
     11 O3          3.3490    0.3740    1.2850 oh        1 GIM     -0.589800
     12 O2          1.9340   -1.0550   -0.8280 oh        1 GIM     -0.591800
     13 O4          1.6980    1.0470    3.5350 oh        1 GIM     -0.583800
     14 O6         -2.3620    1.6660    3.1630 oh        1 GIM     -0.599800
     15 H2          1.7730    1.0160   -0.5990 h1        1 GIM      0.106700
     16 H3          1.8400   -0.9850    1.8150 h1        1 GIM      0.088700
     17 H4          1.3870    2.1150    1.7540 h1        1 GIM      0.078700
     18 H5         -0.4260   -0.0950    3.0110 h1        1 GIM      0.116700
     19 H6C1       -0.4580    2.3300    3.7880 h1        1 GIM      0.087700
     20 H6C2       -1.0730    2.8420    2.1310 h1        1 GIM      0.087700
     21 H7         -3.0480   -0.6060   -1.2780 h4        1 GIM      0.235000
     22 H8         -2.9800    0.4320    1.3580 h4        1 GIM      0.254000
     23 H1         -0.5530   -0.8210   -1.9500 hn        1 GIM      0.367700
     24 HB          3.7740    0.0420    2.0890 ho        1 GIM      0.439000
     25 HA          2.9030   -1.0490   -0.7560 ho        1 GIM      0.463000
     26 HC          2.5130    1.5670    3.5680 ho        1 GIM      0.438000
     27 H6         -2.4120    1.3810    4.0860 ho        1 GIM      0.430000
@<TRIPOS>BOND
     1    1    2 1   
     2    1    3 2   
     3    1   10 1   
     4    2    4 1   
     5    2   12 1   
     6    2   15 1   
     7    3    6 1   
     8    3    9 1   
     9    4    5 1   
    10    4   11 1   
    11    4   16 1   
    12    5    6 1   
    13    5   13 1   
    14    5   17 1   
    15    6    7 1   
    16    6   18 1   
    17    7   14 1   
    18    7   19 1   
    19    7   20 1   
    20    8    9 2   
    21    8   10 1   
    22    8   21 1   
    23    9   22 1   
    24   10   23 1   
    25   11   24 1   
    26   12   25 1   
    27   13   26 1   
    28   14   27 1   
@<TRIPOS>SUBSTRUCTURE
     1 GIM         1 TEMP              0 ****  ****    0 ROOT
