@<TRIPOS>MOLECULE
GIN
   53    55     1     0     0
SMALL
bcc


@<TRIPOS>ATOM
      1 C12        -0.3880   -0.7490   -1.2380 c         1 GIN      0.697700
      2 C16        -2.4070   -1.7130   -0.1200 ca        1 GIN      0.060600
      3 C19        -5.1440   -2.4040    0.1660 ca        1 GIN     -0.044300
      4 C20        -4.7130   -1.5410   -0.8510 ca        1 GIN     -0.114000
      5 C21        -3.3780   -1.1920   -1.0030 ca        1 GIN     -0.123000
      6 C24        -6.5960   -2.7210    0.2630 c3        1 GIN     -0.049100
      7 C30        -7.0070   -3.7750   -0.7500 c3        1 GIN     -0.077400
      8 C31        -8.4950   -4.0080   -0.7210 c3        1 GIN     -0.094100
      9 C32         2.1670   -1.2530   -4.5220 c3        1 GIN      0.252000
     10 C33         1.8590    0.0590   -5.1760 cc        1 GIN     -0.257200
     11 C34         2.7770    0.5520   -6.1610 cc        1 GIN     -0.031000
     12 C35         2.5310    1.7190   -6.8090 cd        1 GIN     -0.255200
     13 C01         1.0760   -0.5340   -1.0500 ca        1 GIN     -0.227600
     14 C02         1.5350    0.0300    0.1450 ca        1 GIN     -0.071000
     15 C03         2.8840    0.2980    0.3320 ca        1 GIN     -0.174000
     16 C04         3.7910   -0.0050   -0.6870 ca        1 GIN     -0.071000
     17 C05         3.3590   -0.5680   -1.8770 ca        1 GIN     -0.178000
     18 C06         1.9860   -0.8540   -2.0940 ca        1 GIN      0.202600
     19 N11         1.5560   -1.5280   -3.2450 nu        1 GIN     -0.725600
     20 N13        -1.0420   -1.3930   -0.1990 ns        1 GIN     -0.461100
     21 O14        -0.9780   -0.3690   -2.2720 o         1 GIN     -0.629100
     22 C17        -2.8340   -2.5850    0.9060 ca        1 GIN     -0.142000
     23 C18        -4.1810   -2.9210    1.0420 ca        1 GIN     -0.135300
     24 C23        -4.5670   -3.8660    2.1790 c3        1 GIN      0.688200
     25 F27        -3.5080   -4.3650    2.9010 f         1 GIN     -0.237633
     26 F28        -5.3720   -3.3030    3.1410 f         1 GIN     -0.237633
     27 F29        -5.2470   -4.9940    1.7860 f         1 GIN     -0.237633
     28 C36         1.3300    2.5030   -6.5200 c         1 GIN      0.679700
     29 N37         0.4580    1.9760   -5.5450 ns        1 GIN     -0.433100
     30 C38         0.7250    0.7930   -4.9050 cd        1 GIN      0.028600
     31 O41         1.0260    3.5840   -7.0620 o         1 GIN     -0.640500
     32 H20        -5.4580   -1.1280   -1.5500 ha        1 GIN      0.145000
     33 H21        -3.0880   -0.5080   -1.8180 ha        1 GIN      0.176000
     34 H241       -7.1890   -1.7830    0.0850 hc        1 GIN      0.059200
     35 H242       -6.8530   -3.0820    1.2950 hc        1 GIN      0.059200
     36 H301       -6.4680   -4.7330   -0.5210 hc        1 GIN      0.047700
     37 H302       -6.6920   -3.4490   -1.7770 hc        1 GIN      0.047700
     38 H311       -9.0480   -3.0700   -0.9720 hc        1 GIN      0.035700
     39 H312       -8.7760   -4.7930   -1.4630 hc        1 GIN      0.035700
     40 H313       -8.8210   -4.3460    0.2920 hc        1 GIN      0.035700
     41 H321        1.8200   -2.0780   -5.2160 h1        1 GIN      0.063200
     42 H322        3.2860   -1.3510   -4.4210 h1        1 GIN      0.063200
     43 H34         3.6810   -0.0370   -6.3770 ha        1 GIN      0.137000
     44 H35         3.2020    2.1390   -7.5700 ha        1 GIN      0.163000
     45 H02         0.8170    0.2880    0.9410 ha        1 GIN      0.136000
     46 H03         3.2360    0.7500    1.2710 ha        1 GIN      0.141000
     47 H04         4.8620    0.2080   -0.5450 ha        1 GIN      0.138000
     48 H05         4.1010   -0.7970   -2.6580 ha        1 GIN      0.143000
     49 HN11        0.5570   -1.5980   -3.3150 hn        1 GIN      0.412800
     50 HN13       -0.4760   -1.7250    0.5530 hn        1 GIN      0.327500
     51 H17        -2.1040   -3.0130    1.6150 ha        1 GIN      0.151000
     52 HN37       -0.3670    2.4860   -5.3160 hn        1 GIN      0.336500
     53 H38        -0.0290    0.4760   -4.1530 h4        1 GIN      0.182000
@<TRIPOS>BOND
     1    1   13 1   
     2    1   20 1   
     3    1   21 2   
     4    2    5 ar  
     5    2   20 1   
     6    2   22 ar  
     7    3    4 ar  
     8    3    6 1   
     9    3   23 ar  
    10    4    5 ar  
    11    4   32 1   
    12    5   33 1   
    13    6    7 1   
    14    6   34 1   
    15    6   35 1   
    16    7    8 1   
    17    7   36 1   
    18    7   37 1   
    19    8   38 1   
    20    8   39 1   
    21    8   40 1   
    22    9   10 1   
    23    9   19 1   
    24    9   41 1   
    25    9   42 1   
    26   10   11 1   
    27   10   30 2   
    28   11   12 2   
    29   11   43 1   
    30   12   28 1   
    31   12   44 1   
    32   13   14 ar  
    33   13   18 ar  
    34   14   15 ar  
    35   14   45 1   
    36   15   16 ar  
    37   15   46 1   
    38   16   17 ar  
    39   16   47 1   
    40   17   18 ar  
    41   17   48 1   
    42   18   19 1   
    43   19   49 1   
    44   20   50 1   
    45   22   23 ar  
    46   22   51 1   
    47   23   24 1   
    48   24   25 1   
    49   24   26 1   
    50   24   27 1   
    51   28   29 1   
    52   28   31 2   
    53   29   30 1   
    54   29   52 1   
    55   30   53 1   
@<TRIPOS>SUBSTRUCTURE
     1 GIN         1 TEMP              0 ****  ****    0 ROOT
