@<TRIPOS>MOLECULE
GIN
   55    57     1     0     0
SMALL
bcc


@<TRIPOS>ATOM
      1 C12        -0.2910    0.4680   -0.2960 c         1 GIN      0.568700
      2 C16        -2.3060   -0.5720    0.6800 ca        1 GIN     -0.105400
      3 C19        -4.4320   -2.3890    0.3860 ca        1 GIN      0.073700
      4 C20        -4.6120   -1.0130    0.1380 ca        1 GIN     -0.114000
      5 C21        -3.5740   -0.1040    0.2750 ca        1 GIN     -0.065000
      6 C24        -5.6030   -3.2950    0.2390 c3        1 GIN     -0.084100
      7 C30        -5.9050   -3.5880   -1.2230 c3        1 GIN     -0.069400
      8 C31        -7.1640   -4.4060   -1.3520 c3        1 GIN     -0.101100
      9 C32         1.7230   -0.2170   -4.1740 c3        1 GIN      0.223000
     10 C33         1.0560    0.5200   -5.2570 cc        1 GIN     -0.366200
     11 C34        -0.2150    0.0660   -5.7540 cc        1 GIN     -0.060000
     12 C35        -0.8160    0.7040   -6.7830 cd        1 GIN     -0.205200
     13 C01         0.8370   -0.4660   -0.4220 ca        1 GIN     -0.175600
     14 C02         1.2960   -1.2060    0.6750 ca        1 GIN     -0.062000
     15 C03         2.3830   -2.0770    0.5630 ca        1 GIN     -0.080000
     16 C04         3.0340   -2.2180   -0.6570 ca        1 GIN     -0.029000
     17 C05         2.6070   -1.4820   -1.7700 ca        1 GIN     -0.095000
     18 C06         1.5210   -0.6040   -1.6710 ca        1 GIN      0.036600
     19 N11         1.1040    0.1780   -2.8370 n4        1 GIN     -0.664400
     20 N13        -1.2140    0.3850    0.8940 n4        1 GIN     -0.517200
     21 O14        -0.5790    1.3650   -1.0880 o         1 GIN     -0.467100
     22 C17        -2.1000   -1.9370    0.9280 ca        1 GIN     -0.060000
     23 C18        -3.1550   -2.8360    0.7670 ca        1 GIN     -0.157300
     24 C23        -2.8660   -4.3240    1.0280 c3        1 GIN      0.694200
     25 F27        -1.5390   -4.5870    1.2750 f         1 GIN     -0.214300
     26 F28        -3.5290   -4.8390    2.1090 f         1 GIN     -0.214300
     27 F29        -3.1800   -5.1400   -0.0270 f         1 GIN     -0.214300
     28 C36        -0.1920    1.8690   -7.4250 c         1 GIN      0.677700
     29 N37         1.0900    2.2550   -6.9130 n         1 GIN     -0.414100
     30 C38         1.6720    1.5990   -5.8860 cd        1 GIN      0.122600
     31 O41        -0.6660    2.5360   -8.3470 o         1 GIN     -0.523500
     32 H20        -5.6130   -0.6530   -0.1670 ha        1 GIN      0.192000
     33 H21        -3.7590    0.9660    0.0770 ha        1 GIN      0.171000
     34 H241       -6.5010   -2.8100    0.7140 hc        1 GIN      0.091700
     35 H242       -5.4280   -4.2650    0.7810 hc        1 GIN      0.091700
     36 H301       -6.0180   -2.6240   -1.7840 hc        1 GIN      0.045200
     37 H302       -5.0420   -4.1480   -1.6710 hc        1 GIN      0.045200
     38 H311       -7.3650   -4.6260   -2.4290 hc        1 GIN      0.054700
     39 H312       -7.0650   -5.3760   -0.8070 hc        1 GIN      0.054700
     40 H313       -8.0420   -3.8550   -0.9350 hc        1 GIN      0.054700
     41 H321        1.5690   -1.3290   -4.2870 hx        1 GIN      0.106700
     42 H322        2.8230    0.0180   -4.1160 hx        1 GIN      0.106700
     43 H34        -0.6730   -0.8250   -5.2960 ha        1 GIN      0.137000
     44 H35        -1.7810    0.3910   -7.2140 ha        1 GIN      0.194000
     45 H02         0.8340   -1.1210    1.6730 ha        1 GIN      0.155000
     46 H03         2.7230   -2.6490    1.4470 ha        1 GIN      0.202000
     47 H04         3.8950   -2.9080   -0.7580 ha        1 GIN      0.204000
     48 H05         3.1620   -1.6200   -2.7160 ha        1 GIN      0.186000
     49 HN11        0.0790    0.1090   -2.9400 hn        1 GIN      0.460800
     50 HN13       -1.6320    1.3220    1.0410 hn        1 GIN      0.479300
     51 H17        -1.1160   -2.3180    1.2550 ha        1 GIN      0.162000
     52 HN37        1.5650    3.0110   -7.3700 hn        1 GIN      0.365500
     53 H38         2.6750    1.9560   -5.5700 h4        1 GIN      0.165000
     54 H112        1.3160    1.1700   -2.6540 hn        1 GIN      0.460800
     55 H132       -0.6960    0.1230    1.7420 hn        1 GIN      0.479300
@<TRIPOS>BOND
     1    1   13 1   
     2    1   20 1   
     3    1   21 2   
     4    2    5 ar  
     5    2   20 1   
     6    2   22 ar  
     7    3    4 ar  
     8    3    6 1   
     9    3   23 ar  
    10    4    5 ar  
    11    4   32 1   
    12    5   33 1   
    13    6    7 1   
    14    6   34 1   
    15    6   35 1   
    16    7    8 1   
    17    7   36 1   
    18    7   37 1   
    19    8   38 1   
    20    8   39 1   
    21    8   40 1   
    22    9   10 1   
    23    9   19 1   
    24    9   41 1   
    25    9   42 1   
    26   10   11 1   
    27   10   30 2   
    28   11   12 2   
    29   11   43 1   
    30   12   28 1   
    31   12   44 1   
    32   13   14 ar  
    33   13   18 ar  
    34   14   15 ar  
    35   14   45 1   
    36   15   16 ar  
    37   15   46 1   
    38   16   17 ar  
    39   16   47 1   
    40   17   18 ar  
    41   17   48 1   
    42   18   19 1   
    43   19   49 1   
    44   19   54 1   
    45   20   50 1   
    46   20   55 1   
    47   22   23 ar  
    48   22   51 1   
    49   23   24 1   
    50   24   25 1   
    51   24   26 1   
    52   24   27 1   
    53   28   29 1   
    54   28   31 2   
    55   29   30 1   
    56   29   52 1   
    57   30   53 1   
@<TRIPOS>SUBSTRUCTURE
     1 GIN         1 TEMP              0 ****  ****    0 ROOT
