@<TRIPOS>MOLECULE
GIN
   53    55     1     0     0
SMALL
bcc


@<TRIPOS>ATOM
      1 C12         5.1890   -2.7780   -3.3760 c         1 GIN      0.697700
      2 C16         4.8960   -3.6460   -1.0480 ca        1 GIN      0.060600
      3 C19         5.6290   -4.1960    1.6370 ca        1 GIN     -0.044300
      4 C20         6.5750   -3.7640    0.6970 ca        1 GIN     -0.114000
      5 C21         6.2330   -3.4930   -0.6200 ca        1 GIN     -0.123000
      6 C24         6.0820   -4.4720    3.0290 c3        1 GIN     -0.049100
      7 C30         6.2350   -3.1910    3.8310 c3        1 GIN     -0.077400
      8 C31         6.8000   -3.4710    5.1990 c3        1 GIN     -0.094100
      9 C32         5.6070    0.7560   -5.5890 c3        1 GIN      0.252000
     10 C33         6.9780    0.4620   -6.1170 cc        1 GIN     -0.257200
     11 C34         7.4340    1.2030   -7.2560 cc        1 GIN     -0.031000
     12 C35         8.6790    1.0010   -7.7560 cd        1 GIN     -0.255200
     13 C01         4.4930   -2.6670   -4.6900 ca        1 GIN     -0.227600
     14 C02         3.9000   -3.8050   -5.2470 ca        1 GIN     -0.071000
     15 C03         3.2950   -3.7520   -6.4950 ca        1 GIN     -0.174000
     16 C04         3.2770   -2.5440   -7.1980 ca        1 GIN     -0.071000
     17 C05         3.8540   -1.4030   -6.6630 ca        1 GIN     -0.178000
     18 C06         4.4780   -1.4290   -5.3890 ca        1 GIN      0.202600
     19 N11         4.9610   -0.2570   -4.7910 nh        1 GIN     -0.725600
     20 N13         4.4760   -3.4090   -2.3670 n         1 GIN     -0.461100
     21 O14         6.3420   -2.3270   -3.2040 o         1 GIN     -0.629100
     22 C17         3.9360   -4.0790   -0.1050 ca        1 GIN     -0.142000
     23 C18         4.3030   -4.3480    1.2130 ca        1 GIN     -0.135300
     24 C23         3.2100   -4.8170    2.1730 c3        1 GIN      0.688200
     25 F27         1.9420   -4.8320    1.6420 f         1 GIN     -0.237633
     26 F28         3.3750   -6.0980    2.6440 f         1 GIN     -0.237633
     27 F29         3.0730   -4.0530    3.3080 f         1 GIN     -0.237633
     28 C36         9.5850    0.0240   -7.1510 c         1 GIN      0.679700
     29 N37         9.0910   -0.6780   -6.0320 n         1 GIN     -0.433100
     30 C38         7.8300   -0.4560   -5.5410 cd        1 GIN      0.028600
     31 O41        10.7410   -0.2290   -7.5440 o         1 GIN     -0.640500
     32 H20         7.6230   -3.6370    1.0170 ha        1 GIN      0.145000
     33 H21         7.0130   -3.1560   -1.3230 ha        1 GIN      0.176000
     34 H241        5.3560   -5.1510    3.5530 hc        1 GIN      0.059200
     35 H242        7.0680   -5.0090    2.9930 hc        1 GIN      0.059200
     36 H301        6.9070   -2.4820    3.2790 hc        1 GIN      0.047700
     37 H302        5.2310   -2.6980    3.9280 hc        1 GIN      0.047700
     38 H311        6.1340   -4.1650    5.7670 hc        1 GIN      0.035700
     39 H312        7.8110   -3.9390    5.1230 hc        1 GIN      0.035700
     40 H313        6.8940   -2.5200    5.7780 hc        1 GIN      0.035700
     41 H321        4.9370    1.0210   -6.4570 h1        1 GIN      0.063200
     42 H322        5.6770    1.6730   -4.9280 h1        1 GIN      0.063200
     43 H34         6.7510    1.9370   -7.7120 ha        1 GIN      0.137000
     44 H35         9.0750    1.5420   -8.6260 ha        1 GIN      0.163000
     45 H02         3.9330   -4.7620   -4.7030 ha        1 GIN      0.136000
     46 H03         2.8390   -4.6530   -6.9300 ha        1 GIN      0.141000
     47 H04         2.8000   -2.4970   -8.1890 ha        1 GIN      0.138000
     48 H05         3.8200   -0.4680   -7.2420 ha        1 GIN      0.143000
     49 HN11        5.4480   -0.4220   -3.9290 hn        1 GIN      0.412800
     50 HN13        3.5360   -3.6690   -2.5750 hn        1 GIN      0.327500
     51 H17         2.8820   -4.2090   -0.4030 ha        1 GIN      0.151000
     52 HN37        9.6770   -1.3570   -5.5980 hn        1 GIN      0.336500
     53 H38         7.5450   -1.0680   -4.6600 h4        1 GIN      0.182000
@<TRIPOS>BOND
     1    1   13 1   
     2    1   20 1   
     3    1   21 2   
     4    2    5 ar  
     5    2   20 1   
     6    2   22 ar  
     7    3    4 ar  
     8    3    6 1   
     9    3   23 ar  
    10    4    5 ar  
    11    4   32 1   
    12    5   33 1   
    13    6    7 1   
    14    6   34 1   
    15    6   35 1   
    16    7    8 1   
    17    7   36 1   
    18    7   37 1   
    19    8   38 1   
    20    8   39 1   
    21    8   40 1   
    22    9   10 1   
    23    9   19 1   
    24    9   41 1   
    25    9   42 1   
    26   10   11 1   
    27   10   30 2   
    28   11   12 2   
    29   11   43 1   
    30   12   28 1   
    31   12   44 1   
    32   13   14 ar  
    33   13   18 ar  
    34   14   15 ar  
    35   14   45 1   
    36   15   16 ar  
    37   15   46 1   
    38   16   17 ar  
    39   16   47 1   
    40   17   18 ar  
    41   17   48 1   
    42   18   19 1   
    43   19   49 1   
    44   20   50 1   
    45   22   23 ar  
    46   22   51 1   
    47   23   24 1   
    48   24   25 1   
    49   24   26 1   
    50   24   27 1   
    51   28   29 1   
    52   28   31 2   
    53   29   30 1   
    54   29   52 1   
    55   30   53 1   
@<TRIPOS>SUBSTRUCTURE
     1 GIN         1 TEMP              0 ****  ****    0 ROOT
