@<TRIPOS>MOLECULE
GIO
   21    22     1     0     0
SMALL
bcc


@<TRIPOS>ATOM
      1 OP          2.7360    0.2420   -0.0850 o         1 GIO     -0.630500
      2 CP          1.5890   -0.0280    0.3160 c         1 GIO      0.685500
      3 CAP         0.5400   -0.6380   -0.6200 c3        1 GIO      0.020700
      4 CBP         0.6790   -0.0790   -2.0540 c3        1 GIO     -0.082400
      5 CGP        -0.7310    0.2640   -2.5180 c3        1 GIO     -0.099400
      6 CDP        -1.6710   -0.0730   -1.3490 c3        1 GIO      0.076000
      7 NP         -0.8510   -0.4630   -0.2100 n         1 GIO     -0.441800
      8 C          -1.1660   -0.0290    1.0710 c         1 GIO      0.676500
      9 O          -2.3140    0.3320    1.3800 o         1 GIO     -0.614500
     10 CA         -0.0660   -0.1030    2.1350 c3        1 GIO      0.024000
     11 N           1.2460    0.1770    1.6340 n         1 GIO     -0.575900
     12 HAP         0.7510   -1.7510   -0.6270 h1        1 GIO      0.086700
     13 HBP1        1.3440    0.8200   -2.0590 hc        1 GIO      0.071200
     14 HBP2        1.1480   -0.8520   -2.7110 hc        1 GIO      0.071200
     15 HGP1       -0.8100    1.3480   -2.7800 hc        1 GIO      0.057200
     16 HGP2       -1.0120   -0.3290   -3.4220 hc        1 GIO      0.057200
     17 HDP1       -2.3290    0.7990   -1.0800 h1        1 GIO      0.065200
     18 HDP2       -2.3360   -0.9420   -1.6120 h1        1 GIO      0.065200
     19 HAC1       -0.3270    0.6380    2.9440 h1        1 GIO      0.076200
     20 HAC2       -0.1040   -1.1400    2.5840 h1        1 GIO      0.076200
     21 H           1.9160    0.5610    2.2580 hn        1 GIO      0.333500
@<TRIPOS>BOND
     1    1    2 2   
     2    2    3 1   
     3    2   11 1   
     4    3    4 1   
     5    3    7 1   
     6    3   12 1   
     7    4    5 1   
     8    4   13 1   
     9    4   14 1   
    10    5    6 1   
    11    5   15 1   
    12    5   16 1   
    13    6    7 1   
    14    6   17 1   
    15    6   18 1   
    16    7    8 1   
    17    8    9 2   
    18    8   10 1   
    19   10   11 1   
    20   10   19 1   
    21   10   20 1   
    22   11   21 1   
@<TRIPOS>SUBSTRUCTURE
     1 GIO         1 TEMP              0 ****  ****    0 ROOT
