@<TRIPOS>MOLECULE
GIO
   21    22     1     0     0
SMALL
bcc


@<TRIPOS>ATOM
      1 OP         -0.0780   -0.1020   -0.0220 o         1 GIO     -0.630500
      2 CP          1.1650   -0.0340   -0.0200 c         1 GIO      0.685500
      3 CAP         1.9650   -0.0760    1.2870 c3        1 GIO      0.020700
      4 CBP         1.2100    0.6470    2.4250 c3        1 GIO     -0.082400
      5 CGP         2.2390    1.5250    3.1290 c3        1 GIO     -0.099400
      6 CDP         3.5690    1.3240    2.3850 c3        1 GIO      0.076000
      7 NP          3.3110    0.4840    1.2230 n         1 GIO     -0.441800
      8 C           3.9080    0.7640    0.0010 c         1 GIO      0.676500
      9 O           4.9530    1.4320   -0.0850 o         1 GIO     -0.614500
     10 CA          3.2890    0.1340   -1.2520 c3        1 GIO      0.024000
     11 N           1.8610    0.0370   -1.2070 n         1 GIO     -0.575900
     12 HAP         2.0690   -1.1750    1.5430 h1        1 GIO      0.086700
     13 HBP1        0.7740   -0.1090    3.1230 hc        1 GIO      0.071200
     14 HBP2        0.3670    1.2540    2.0110 hc        1 GIO      0.071200
     15 HGP1        1.9330    2.5990    3.0960 hc        1 GIO      0.057200
     16 HGP2        2.3500    1.2320    4.2020 hc        1 GIO      0.057200
     17 HDP1        4.0200    2.3050    2.0690 h1        1 GIO      0.065200
     18 HDP2        4.3140    0.7930    3.0390 h1        1 GIO      0.065200
     19 HAC1        3.7500   -0.8910   -1.3740 h1        1 GIO      0.076200
     20 HAC2        3.5960    0.7640   -2.1360 h1        1 GIO      0.076200
     21 H           1.3610    0.0540   -2.0650 hn        1 GIO      0.333500
@<TRIPOS>BOND
     1    1    2 2   
     2    2    3 1   
     3    2   11 1   
     4    3    4 1   
     5    3    7 1   
     6    3   12 1   
     7    4    5 1   
     8    4   13 1   
     9    4   14 1   
    10    5    6 1   
    11    5   15 1   
    12    5   16 1   
    13    6    7 1   
    14    6   17 1   
    15    6   18 1   
    16    7    8 1   
    17    8    9 2   
    18    8   10 1   
    19   10   11 1   
    20   10   19 1   
    21   10   20 1   
    22   11   21 1   
@<TRIPOS>SUBSTRUCTURE
     1 GIO         1 TEMP              0 ****  ****    0 ROOT
