@<TRIPOS>MOLECULE
GIO
   21    22     1     0     0
SMALL
bcc


@<TRIPOS>ATOM
      1 OP         -0.0820   -0.1550    0.0240 o         1 GIO     -0.630500
      2 CP          1.1600   -0.0730    0.0130 c         1 GIO      0.685500
      3 CAP         1.9720   -0.0750    1.3130 c3        1 GIO      0.020700
      4 CBP         1.2200    0.6670    2.4410 c3        1 GIO     -0.082400
      5 CGP         2.2440    1.5730    3.1140 c3        1 GIO     -0.099400
      6 CDP         3.5700    1.3710    2.3620 c3        1 GIO      0.076000
      7 NP          3.3120    0.5000    1.2230 n         1 GIO     -0.441800
      8 C           3.8930    0.7580   -0.0110 c         1 GIO      0.676500
      9 O           4.9290    1.4360   -0.1220 o         1 GIO     -0.614500
     10 CA          3.2700    0.0910   -1.2420 c3        1 GIO      0.024000
     11 N           1.8440   -0.0210   -1.1820 ns        1 GIO     -0.575900
     12 HAP         2.0920   -1.1650    1.5940 h1        1 GIO      0.086700
     13 HBP1        0.7990   -0.0770    3.1600 hc        1 GIO      0.071200
     14 HBP2        0.3660    1.2540    2.0210 hc        1 GIO      0.071200
     15 HGP1        2.3690    1.3070    4.1920 hc        1 GIO      0.057200
     16 HGP2        1.9260    2.6430    3.0590 hc        1 GIO      0.057200
     17 HDP1        4.0060    2.3490    2.0190 h1        1 GIO      0.065200
     18 HDP2        4.3270    0.8640    3.0220 h1        1 GIO      0.065200
     19 HAC1        3.5620    0.7030   -2.1440 h1        1 GIO      0.076200
     20 HAC2        3.7420   -0.9310   -1.3440 h1        1 GIO      0.076200
     21 H           1.3360   -0.0310   -2.0350 hn        1 GIO      0.333500
@<TRIPOS>BOND
     1    1    2 2   
     2    2    3 1   
     3    2   11 1   
     4    3    4 1   
     5    3    7 1   
     6    3   12 1   
     7    4    5 1   
     8    4   13 1   
     9    4   14 1   
    10    5    6 1   
    11    5   15 1   
    12    5   16 1   
    13    6    7 1   
    14    6   17 1   
    15    6   18 1   
    16    7    8 1   
    17    8    9 2   
    18    8   10 1   
    19   10   11 1   
    20   10   19 1   
    21   10   20 1   
    22   11   21 1   
@<TRIPOS>SUBSTRUCTURE
     1 GIO         1 TEMP              0 ****  ****    0 ROOT
