@<TRIPOS>MOLECULE
GIO
   21    22     1     0     0
SMALL
bcc


@<TRIPOS>ATOM
      1 OP         -0.0860   -0.0880   -0.0130 o         1 GIO     -0.630500
      2 CP          1.1570   -0.0250   -0.0140 c         1 GIO      0.685500
      3 CAP         1.9590   -0.0740    1.2920 c3        1 GIO      0.021700
      4 CBP         1.2110    0.6500    2.4330 c3        1 GIO     -0.082400
      5 CGP         2.2440    1.5220    3.1370 c3        1 GIO     -0.099400
      6 CDP         3.5720    1.3180    2.3890 c3        1 GIO      0.076000
      7 NP          3.3080    0.4810    1.2260 n         1 GIO     -0.441800
      8 C           3.9030    0.7620    0.0030 c         1 GIO      0.676500
      9 O           4.9500    1.4250   -0.0840 o         1 GIO     -0.614500
     10 CA          3.2780    0.1370   -1.2500 c3        1 GIO      0.024000
     11 N           1.8500    0.0460   -1.2020 n         1 GIO     -0.575900
     12 HAP         2.0590   -1.1730    1.5450 h1        1 GIO      0.086700
     13 HBP1        0.7730   -0.1060    3.1300 hc        1 GIO      0.071200
     14 HBP2        0.3690    1.2620    2.0230 hc        1 GIO      0.071200
     15 HGP1        2.3570    1.2260    4.2080 hc        1 GIO      0.057200
     16 HGP2        1.9430    2.5980    3.1080 hc        1 GIO      0.057200
     17 HDP1        4.3160    0.7830    3.0400 h1        1 GIO      0.065200
     18 HDP2        4.0250    2.2980    2.0740 h1        1 GIO      0.065200
     19 HAC1        3.7350   -0.8900   -1.3750 h1        1 GIO      0.076200
     20 HAC2        3.5870    0.7670   -2.1330 h1        1 GIO      0.076200
     21 H           1.3480    0.0670   -2.0580 hn        1 GIO      0.333500
@<TRIPOS>BOND
     1    1    2 2   
     2    2    3 1   
     3    2   11 1   
     4    3    4 1   
     5    3    7 1   
     6    3   12 1   
     7    4    5 1   
     8    4   13 1   
     9    4   14 1   
    10    5    6 1   
    11    5   15 1   
    12    5   16 1   
    13    6    7 1   
    14    6   17 1   
    15    6   18 1   
    16    7    8 1   
    17    8    9 2   
    18    8   10 1   
    19   10   11 1   
    20   10   19 1   
    21   10   20 1   
    22   11   21 1   
@<TRIPOS>SUBSTRUCTURE
     1 GIO         1 TEMP              0 ****  ****    0 ROOT
