@<TRIPOS>MOLECULE
GIO
   21    21     1     0     0
SMALL
bcc


@<TRIPOS>ATOM
      1 OP         -2.4680   -0.2750   -1.1790 o         1 GIO     -0.588500
      2 CP         -1.2530   -0.2750   -1.1790 c1        1 GIO      0.526500
      3 CAP        -0.4750   -0.2750    0.1690 c2        1 GIO      0.198500
      4 CBP        -1.2030    0.7140    1.1980 c3        1 GIO     -0.157700
      5 CGP        -0.0990    1.5250    1.8520 c3        1 GIO     -0.099400
      6 CDP         1.0350    1.0630    1.2830 c3        1 GIO      0.076000
      7 NP          0.7080    0.1430    0.0870 n         1 GIO     -0.404400
      8 C           1.4690   -0.5010   -0.9660 c         1 GIO      0.640100
      9 O           2.6680   -0.6540   -0.8430 o         1 GIO     -0.578100
     10 CA          0.6550   -1.5500   -1.7450 c3        1 GIO     -0.032700
     11 N          -0.6840   -1.1140   -2.1340 n3        1 GIO     -0.415400
     12 HAP        -0.4720   -1.1790    0.5390 h4        1 GIO     -0.003200
     13 HBP1       -1.8160    1.3040    0.7200 hc        1 GIO      0.071200
     14 HBP2       -1.6870    0.2000    1.8720 hc        1 GIO      0.071200
     15 HGP1       -0.0730    1.2650    2.7930 hc        1 GIO      0.057200
     16 HGP2       -0.2110    2.4490    1.5570 hc        1 GIO      0.057200
     17 HDP1        1.4580    0.4920    1.9520 h1        1 GIO      0.065200
     18 HDP2        1.4830    1.8440    0.9050 h1        1 GIO      0.065200
     19 HAC1        0.7770   -2.3950   -1.2710 h1        1 GIO      0.076200
     20 HAC2        1.0780   -1.7730   -2.5960 h1        1 GIO      0.076200
     21 H          -0.8910   -1.0080   -3.0160 hn        1 GIO      0.296700
@<TRIPOS>BOND
     1    1    2 2   
     2    2   11 2   
     3    3    4 1   
     4    3    7 2   
     5    3   12 1   
     6    4    5 1   
     7    4   13 1   
     8    4   14 1   
     9    5    6 1   
    10    5   15 1   
    11    5   16 1   
    12    6    7 1   
    13    6   17 1   
    14    6   18 1   
    15    7    8 1   
    16    8    9 2   
    17    8   10 1   
    18   10   11 1   
    19   10   19 1   
    20   10   20 1   
    21   11   21 1   
@<TRIPOS>SUBSTRUCTURE
     1 GIO         1 TEMP              0 ****  ****    0 ROOT
