@<TRIPOS>MOLECULE
GIP
   56    56     1     0     0
SMALL
bcc


@<TRIPOS>ATOM
      1 C           4.5150   -1.2210    1.6560 c2        1 GIP      0.319000
      2 OT1         4.5330   -1.5790    2.8690 o         1 GIP     -0.531500
      3 OT2         5.3060   -1.6490    0.7840 o         1 GIP     -0.531500
      4 N           2.8970   -0.5730   -0.1000 n4        1 GIP     -0.050000
      5 CA          3.4850   -0.1300    1.2040 c3        1 GIP     -0.186000
      6 CB          2.4390    0.1620    2.2770 c3        1 GIP     -0.175000
      7 CB2         7.0540    0.4040    5.5360 c3        1 GIP     -0.321000
      8 SG2         6.4880   -1.2230    5.9300 ss        1 GIP      0.161000
      9 CG          2.7450    1.4250    3.0620 c3        1 GIP     -0.185000
     10 CD          3.5390    1.1850    4.3190 c2        1 GIP      0.273000
     11 OE          3.1270    1.2730    5.4640 o         1 GIP     -0.163000
     12 N2          4.9860    0.7900    4.1370 n4        1 GIP     -0.124000
     13 CA2         5.9230    1.3550    5.1590 c3        1 GIP     -0.101000
     14 C2          6.4590    2.7230    4.6640 c2        1 GIP      0.274000
     15 O2          6.0510    3.7530    5.2080 o         1 GIP     -0.246000
     16 N3          7.3660    2.7270    3.6090 n         1 GIP     -0.341000
     17 CA3         7.2740    3.7560    2.6130 c3        1 GIP     -0.082000
     18 C3          6.1680    3.4830    1.6020 c2        1 GIP      0.301000
     19 O31         5.9900    4.2810    0.5310 oh        1 GIP     -0.241000
     20 O32         5.3580    2.5410    1.6710 o         1 GIP     -0.432000
     21 NE2         7.9980   -3.1580    4.5790 n4        1 GIP      0.263000
     22 OF2         9.1040   -2.4060    4.8940 oh        1 GIP     -0.288000
     23 CD2         6.7830   -2.2070    4.4500 c3        1 GIP     -0.025000
     24 OZ1         6.9950   -1.3540    3.3680 oh        1 GIP     -0.336000
     25 CG2         7.7110   -4.2470    5.4320 c2        1 GIP     -1.150000
     26 CL1         7.2070   -4.1240    7.0510 cl        1 GIP      0.880500
     27 CL2         8.1770   -5.8520    5.1120 cl        1 GIP      0.880500
     28 CM1         7.8780   -5.2870    8.1720 c2        1 GIP     -0.176500
     29 CM2         8.7310   -6.8070    6.4650 c2        1 GIP     -0.176500
     30 CZ          8.5790   -6.4150    7.7840 c2        1 GIP     -0.365000
     31 I           9.3620   -7.6040    9.2330 i         1 GIP      0.239000
     32 H11N        3.6660   -0.9870   -0.6580 hn        1 GIP      0.261667
     33 H12N        2.1830   -1.2890    0.0580 hn        1 GIP      0.261667
     34 HA1         4.0900    0.8030    0.9760 hx        1 GIP      0.170000
     35 HB1         2.3760   -0.7230    2.9720 hc        1 GIP      0.136000
     36 HB2         1.4180    0.2960    1.8230 hc        1 GIP      0.136000
     37 HB21        7.5330    0.8110    6.4690 h1        1 GIP      0.170000
     38 HB22        7.8490    0.3440    4.7500 h1        1 GIP      0.170000
     39 HG1         1.7710    1.8870    3.4010 hc        1 GIP      0.166000
     40 HG2         3.2720    2.1910    2.4250 hc        1 GIP      0.166000
     41 HN21        5.2820    1.0390    3.1810 hn        1 GIP      0.285500
     42 HA2         5.3120    1.5690    6.0980 hx        1 GIP      0.201000
     43 HN3         6.6350    5.0090    0.5290 ho        1 GIP      0.262000
     44 HA31        7.0670    4.7500    3.1120 h1        1 GIP      0.166500
     45 HA32        8.2610    3.8250    2.0670 h1        1 GIP      0.166500
     46 HOF2        9.5460   -2.7980    5.6720 ho        1 GIP      0.257000
     47 HD2         5.8830   -2.8830    4.3160 hx        1 GIP      0.210000
     48 HOZ1        6.6680   -1.7800    2.5460 ho        1 GIP      0.291000
     49 HL1         6.2980   -3.1900    7.2910 ha        1 GIP     -0.121000
     50 HL2         8.0230   -6.2520    3.8650 ha        1 GIP     -0.121000
     51 HM1         7.6990   -5.1030    9.2480 h4        1 GIP      0.188500
     52 HM2         9.2050   -7.7810    6.2360 h4        1 GIP      0.188500
     53 HN31        2.4850    0.2140   -0.6030 hn        1 GIP      0.261667
     54 H22         5.0190   -0.2600    4.2070 hn        1 GIP      0.285500
     55 H32         7.7030    1.8470    3.2820 hn        1 GIP      0.230000
     56 HE21        8.1850   -3.5230    3.6210 hn        1 GIP      0.247000
@<TRIPOS>BOND
     1    1    2 1   
     2    1    3 1   
     3    1    5 1   
     4    4    5 1   
     5    4   32 1   
     6    4   33 1   
     7    4   53 1   
     8    5    6 1   
     9    5   34 1   
    10    6    9 1   
    11    6   35 1   
    12    6   36 1   
    13    7    8 1   
    14    7   13 1   
    15    7   37 1   
    16    7   38 1   
    17    8   23 1   
    18    9   10 1   
    19    9   39 1   
    20    9   40 1   
    21   10   11 1   
    22   10   12 1   
    23   12   13 1   
    24   12   41 1   
    25   12   54 1   
    26   13   14 1   
    27   13   42 1   
    28   14   15 1   
    29   14   16 1   
    30   16   17 1   
    31   16   55 1   
    32   17   18 1   
    33   17   44 1   
    34   17   45 1   
    35   18   19 1   
    36   18   20 1   
    37   19   43 1   
    38   21   22 1   
    39   21   23 1   
    40   21   25 1   
    41   21   56 1   
    42   22   46 1   
    43   23   24 1   
    44   23   47 1   
    45   24   48 1   
    46   25   26 1   
    47   25   27 1   
    48   26   28 1   
    49   26   49 1   
    50   27   29 1   
    51   27   50 1   
    52   28   30 1   
    53   28   51 1   
    54   29   30 1   
    55   29   52 1   
    56   30   31 1   
@<TRIPOS>SUBSTRUCTURE
     1 GIP         1 TEMP              0 ****  ****    0 ROOT
