@<TRIPOS>MOLECULE
GIP
   55    55     1     0     0
SMALL
bcc


@<TRIPOS>ATOM
      1 C           4.7700   -0.7890    1.3530 c2        1 GIP      0.305000
      2 OT1         5.7680   -0.0340    1.3000 o         1 GIP     -0.526500
      3 OT2         4.6560   -1.7870    2.1210 o         1 GIP     -0.526500
      4 N           2.9010   -1.6900   -0.0150 nz        1 GIP     -0.055000
      5 CA          3.5270   -0.4230    0.4800 c3        1 GIP     -0.174000
      6 CB          2.5480    0.4050    1.3200 c3        1 GIP     -0.167000
      7 CB2         6.3120    0.0360    5.8590 c3        1 GIP     -0.316000
      8 SG2         5.8430   -1.6460    5.6180 ss        1 GIP      0.124000
      9 CG          3.2640    1.5140    2.0710 c3        1 GIP     -0.183000
     10 CD          3.4920    1.1390    3.5160 c2        1 GIP      0.273000
     11 OE          2.6460    1.1430    4.3990 o         1 GIP     -0.184000
     12 N2          4.8830    0.7000    3.8820 ny        1 GIP     -0.115000
     13 CA2         5.3020    1.0260    5.2830 c3        1 GIP     -0.098000
     14 C2          5.8500    2.4700    5.3620 c2        1 GIP      0.278000
     15 O2          5.2250    3.3120    6.0180 o         1 GIP     -0.265000
     16 N3          7.0420    2.7570    4.7010 ns        1 GIP     -0.336000
     17 CA3         7.1980    4.0520    4.1010 c3        1 GIP     -0.084000
     18 C3          6.3640    4.2090    2.8360 c2        1 GIP      0.287000
     19 O31         6.4720    5.3210    2.0750 oh        1 GIP     -0.248000
     20 O32         5.5450    3.3780    2.4200 o         1 GIP     -0.383000
     21 NE2         7.9910   -2.9230    4.4460 n3        1 GIP     -0.021000
     22 OF2         9.0150   -2.4860    3.7000 oh        1 GIP     -0.226000
     23 CD2         6.7570   -2.1700    4.1360 c3        1 GIP      0.039000
     24 OZ1         7.0310   -0.9990    3.4100 oh        1 GIP     -0.346000
     25 CG2         8.0940   -3.8450    5.3630 c2        1 GIP     -0.546000
     26 Cl1         9.5750   -4.8210    5.7820 cl        1 GIP      0.717000
     27 Cl2         6.7110   -4.3830    6.4990 cl        1 GIP      0.717000
     28 CM1         9.3560   -6.1410    6.8850 c2        1 GIP     -0.634500
     29 CM2         6.8870   -6.0000    7.0700 c2        1 GIP     -0.634500
     30 CZ          8.1190   -6.5560    7.2690 c2        1 GIP      0.009000
     31 I           8.0870   -8.3350    8.2870 i         1 GIP      0.122000
     32 H11N        3.4220   -2.0340   -0.8250 hn        1 GIP      0.257333
     33 H12N        2.9710   -2.3900    0.7450 hn        1 GIP      0.257333
     34 HA1         3.8680    0.1770   -0.4130 hx        1 GIP      0.165000
     35 HB1         1.9940   -0.2530    2.0440 hc        1 GIP      0.118000
     36 HB2         1.7860    0.8750    0.6410 hc        1 GIP      0.118000
     37 HB21        7.3410    0.2030    5.4530 h1        1 GIP      0.166000
     38 HB22        6.3510    0.2060    6.9700 h1        1 GIP      0.166000
     39 HG1         4.2240    1.7980    1.5500 hc        1 GIP      0.177500
     40 HG2         2.6180    2.4380    2.0910 hc        1 GIP      0.177500
     41 HN21        4.9230   -0.3470    3.7740 hn        1 GIP      0.295000
     42 HA2         4.3630    0.9990    5.9280 hx        1 GIP      0.195000
     43 HN3         7.4920    2.0070    4.2200 hn        1 GIP      0.232000
     44 HA31        6.8740    4.8470    4.8370 h1        1 GIP      0.155500
     45 HA32        8.2860    4.2080    3.8490 h1        1 GIP      0.155500
     46 HOF2        9.4660   -3.2700    3.3260 ho        1 GIP      0.230000
     47 HD2         6.0510   -2.8590    3.5820 h3        1 GIP      0.177000
     48 HOZ1        7.1590   -1.2190    2.4690 ho        1 GIP      0.276000
     49 HL1        10.8700   -4.9120    5.5330 ha        1 GIP     -0.134500
     50 HL2         5.6190   -3.9960    7.1450 ha        1 GIP     -0.134500
     51 HM1        10.2930   -6.6040    7.1860 h4        1 GIP      0.172000
     52 HM2         5.9370   -6.4880    7.2720 h4        1 GIP      0.172000
     53 HN31        1.9220   -1.5480   -0.2680 hn        1 GIP      0.257333
     54 H22         5.5510    1.0820    3.1840 hn        1 GIP      0.295000
     55 H32         7.1150    5.9360    2.4630 ho        1 GIP      0.247000
@<TRIPOS>BOND
     1    1    2 1   
     2    1    3 1   
     3    1    5 1   
     4    4    5 1   
     5    4   32 1   
     6    4   33 1   
     7    4   53 1   
     8    5    6 1   
     9    5   34 1   
    10    6    9 1   
    11    6   35 1   
    12    6   36 1   
    13    7    8 1   
    14    7   13 1   
    15    7   37 1   
    16    7   38 1   
    17    8   23 1   
    18    9   10 1   
    19    9   39 1   
    20    9   40 1   
    21   10   11 1   
    22   10   12 1   
    23   12   13 1   
    24   12   41 1   
    25   12   54 1   
    26   13   14 1   
    27   13   42 1   
    28   14   15 1   
    29   14   16 1   
    30   16   17 1   
    31   16   43 1   
    32   17   18 1   
    33   17   44 1   
    34   17   45 1   
    35   18   19 1   
    36   18   20 1   
    37   19   55 1   
    38   21   22 1   
    39   21   23 1   
    40   21   25 1   
    41   22   46 1   
    42   23   24 1   
    43   23   47 1   
    44   24   48 1   
    45   25   26 1   
    46   25   27 1   
    47   26   28 1   
    48   26   49 1   
    49   27   29 1   
    50   27   50 1   
    51   28   30 1   
    52   28   51 1   
    53   29   30 1   
    54   29   52 1   
    55   30   31 1   
@<TRIPOS>SUBSTRUCTURE
     1 GIP         1 TEMP              0 ****  ****    0 ROOT
