@<TRIPOS>MOLECULE
GIQ
   26    28     1     0     0
SMALL
bcc


@<TRIPOS>ATOM
      1 N3A        -0.0300    0.0630    0.1310 na        1 GIQ     -0.056100
      2 C3A         1.3600    0.0170   -0.1030 cc        1 GIQ     -0.057100
      3 C1A         2.0160    0.0190    1.1440 cd        1 GIQ      0.008900
      4 N1A         1.0290    0.0690    2.1470 na        1 GIQ     -0.192100
      5 C          -1.0780    0.0170   -0.8460 c3        1 GIQ      0.005600
      6 C4A         2.1020   -0.0210   -1.3300 cc        1 GIQ     -0.107200
      7 C5A         3.4490   -0.0540   -1.2610 cd        1 GIQ     -0.140600
      8 C6A         4.2180   -0.0510    0.0060 cd        1 GIQ      0.524900
      9 C10         3.4440   -0.0190    1.2790 cd        1 GIQ     -0.211800
     10 N6A         5.5070   -0.0770   -0.0730 n2        1 GIQ     -0.724100
     11 C7A         5.2570   -0.0530    3.2590 cc        1 GIQ     -0.078000
     12 C8A         4.0770   -0.0150    3.9010 cc        1 GIQ     -0.078000
     13 C9A         4.0590   -0.0260    2.4690 cc        1 GIQ     -0.050000
     14 C2A        -0.2250    0.0730    1.5190 cz        1 GIQ      0.135200
     15 H1         -1.6880   -0.9190   -0.7170 h1        1 GIQ      0.086033
     16 H2         -0.6190    0.0210   -1.8710 h1        1 GIQ      0.086033
     17 H3         -1.7410    0.9190   -0.7360 h1        1 GIQ      0.086033
     18 H4A         1.5670   -0.0240   -2.2910 ha        1 GIQ      0.163000
     19 H5A         4.0480   -0.0840   -2.1910 ha        1 GIQ      0.182000
     20 H7A         6.0050   -0.0750    0.7920 hn        1 GIQ      0.394400
     21 H8A         6.3330   -0.0830    3.2630 ha        1 GIQ      0.220500
     22 H9A         3.5120    0.0080    4.8140 ha        1 GIQ      0.220500
     23 H101        1.1850    0.0190    3.1240 hn        1 GIQ      0.341700
     24 H102       -2.2610    0.2110    1.6190 hn        1 GIQ      0.315200
     25 N10        -1.4410    0.0470    2.1580 nh        1 GIQ     -0.390200
     26 H103       -1.4760    0.2350    3.1330 hn        1 GIQ      0.315200
@<TRIPOS>BOND
     1    1    2 1   
     2    1    5 1   
     3    1   14 2   
     4    2    3 2   
     5    2    6 1   
     6    3    4 1   
     7    3    9 1   
     8    4   14 1   
     9    4   23 1   
    10    5   15 1   
    11    5   16 1   
    12    5   17 1   
    13    6    7 2   
    14    6   18 1   
    15    7    8 1   
    16    7   19 1   
    17    8    9 1   
    18    8   10 2   
    19    9   13 2   
    20   10   20 1   
    21   11   12 2   
    22   11   13 1   
    23   11   21 1   
    24   12   13 1   
    25   12   22 1   
    26   14   25 1   
    27   24   25 1   
    28   25   26 1   
@<TRIPOS>SUBSTRUCTURE
     1 GIQ         1 TEMP              0 ****  ****    0 ROOT
