@<TRIPOS>MOLECULE
GIQ
   25    20     1     0     0
SMALL
bcc


@<TRIPOS>ATOM
      1 N3A        -1.9130   -0.0190   -0.9170 n2        1 GIQ     -0.180000
      2 C3A        -0.5580   -0.0190   -0.9170 c1        1 GIQ     -0.049000
      3 C1A        -0.1360   -0.0190    0.3830 c1        1 GIQ     -0.042000
      4 N1A        -1.2340   -0.0190    1.1770 n1        1 GIQ     -0.173000
      5 C          -2.8830    0.1060   -1.9520 c2        1 GIQ     -0.066000
      6 C4A         0.3890   -0.0190   -1.9670 c1        1 GIQ     -0.105000
      7 C5A         1.7470   -0.0190   -1.6780 c1        1 GIQ     -0.099000
      8 C6A         2.1820   -0.0190   -0.3400 c1        1 GIQ     -0.006000
      9 C10         1.2610   -0.0190    0.6810 c1        1 GIQ     -0.034000
     10 N6A         3.5360   -0.0190   -0.0510 n1        1 GIQ     -0.135000
     11 C7A         3.9590   -0.0190    1.2470 c1        1 GIQ     -0.124500
     12 C8A         3.0290   -0.0190    2.2820 c1        1 GIQ     -0.124500
     13 C9A         1.6910   -0.0190    2.0000 c1        1 GIQ     -0.066000
     14 N10        -3.4850   -0.0510    1.2050 n3        1 GIQ     -0.283000
     15 C2A        -2.3340   -0.0190    0.3760 c2        1 GIQ      0.080000
     16 H1         -3.1590    1.0390   -2.0290 ha        1 GIQ      0.093333
     17 H2         -3.6600   -0.4460   -1.7380 ha        1 GIQ      0.093333
     18 H3         -2.4970   -0.1900   -2.7980 ha        1 GIQ      0.093333
     19 H4A         0.0880    0.0090   -2.8950 ha        1 GIQ      0.136000
     20 H5A         2.4000   -0.0220   -2.4030 ha        1 GIQ      0.152000
     21 H7A         4.9140   -0.0190    1.4490 ha        1 GIQ      0.149500
     22 H8A         3.3320   -0.0190    3.2100 ha        1 GIQ      0.149500
     23 H9A         1.0380   -0.0190    2.7260 ha        1 GIQ      0.156000
     24 H101       -3.4110    0.1260    2.0960 hn        1 GIQ      0.192000
     25 H102       -4.2960   -0.2710    0.8500 hn        1 GIQ      0.192000
@<TRIPOS>BOND
     1    1    2 1   
     2    1   15 1   
     3    2    6 1   
     4    3    9 1   
     5    4   15 1   
     6    5   16 1   
     7    5   17 1   
     8    5   18 1   
     9    6   19 1   
    10    7    8 1   
    11    7   20 1   
    12    8   10 1   
    13    9   13 1   
    14   11   12 1   
    15   11   21 1   
    16   12   22 1   
    17   13   23 1   
    18   14   15 1   
    19   14   24 1   
    20   14   25 1   
@<TRIPOS>SUBSTRUCTURE
     1 GIQ         1 TEMP              0 ****  ****    0 ROOT
