@<TRIPOS>MOLECULE
GIQ
   25    27     1     0     0
SMALL
bcc


@<TRIPOS>ATOM
      1 N3A        -0.0930   -0.2010    0.0850 na        1 GIQ     -0.236900
      2 C3A         1.3050   -0.0720    0.0790 cc        1 GIQ     -0.192600
      3 C1A         1.7290   -0.1000    1.4630 cc        1 GIQ      0.489100
      4 N1A         0.6180   -0.2210    2.3010 nd        1 GIQ     -0.659000
      5 C          -0.9790   -0.0290   -1.0140 c3        1 GIQ      0.035600
      6 C4A         2.2230    0.0340   -0.9770 cd        1 GIQ     -0.048000
      7 C5A         3.5640    0.1180   -0.6740 cd        1 GIQ     -0.201000
      8 C6A         4.0140    0.0920    0.6810 cc        1 GIQ      0.009900
      9 C10         3.1090   -0.0220    1.7860 cc        1 GIQ     -0.236900
     10 N6A         5.3760    0.1770    0.9550 nh        1 GIQ     -0.261300
     11 C7A         5.8370    0.1520    2.2430 ce        1 GIQ      0.254500
     12 C8A         4.9680    0.0370    3.3140 ce        1 GIQ     -0.372700
     13 C9A         3.5750   -0.0560    3.1270 c1        1 GIQ     -0.001800
     14 C2A        -0.4690   -0.2500    1.4630 cd        1 GIQ      0.508000
     15 H1         -1.5730    0.9200   -0.9030 h1        1 GIQ      0.051033
     16 H2         -1.6940   -0.8960   -1.0610 h1        1 GIQ      0.051033
     17 H3         -0.3920    0.0130   -1.9690 h1        1 GIQ      0.051033
     18 H4A         1.8830    0.0500   -2.0220 ha        1 GIQ      0.134000
     19 H5A         4.2950    0.2070   -1.4920 ha        1 GIQ      0.130000
     20 H7A         6.0120    0.2570    0.1940 hn        1 GIQ      0.288700
     21 H8A         6.9350    0.2270    2.3560 h4        1 GIQ      0.014800
     22 H9A         5.3720    0.0190    4.3360 ha        1 GIQ      0.152000
     23 H101       -1.9200   -0.3530    2.8500 hn        1 GIQ      0.246200
     24 H102       -2.3650   -0.9280    1.3570 hn        1 GIQ      0.246200
     25 N10        -1.8220   -0.2540    1.8580 nh        1 GIQ     -0.450900
@<TRIPOS>BOND
     1    1    2 1   
     2    1    5 1   
     3    1   14 2   
     4    2    3 1   
     5    2    6 2   
     6    3    4 2   
     7    3    9 1   
     8    4   14 1   
     9    5   15 1   
    10    5   16 1   
    11    5   17 1   
    12    6    7 1   
    13    6   18 1   
    14    7    8 2   
    15    7   19 1   
    16    8    9 1   
    17    8   10 1   
    18    9   13 2   
    19   10   11 2   
    20   10   20 1   
    21   11   12 1   
    22   11   21 1   
    23   12   13 2   
    24   12   22 1   
    25   14   25 1   
    26   23   25 1   
    27   24   25 1   
@<TRIPOS>SUBSTRUCTURE
     1 GIQ         1 TEMP              0 ****  ****    0 ROOT
