@<TRIPOS>MOLECULE
GIQ
   25    27     1     0     0
SMALL
bcc


@<TRIPOS>ATOM
      1 N3A         2.3750   -0.5040    0.0080 na        1 GIQ     -0.154300
      2 C3A         1.0110   -0.8170   -0.0110 ca        1 GIQ     -0.094200
      3 C1A         0.3040    0.4350    0.0220 ca        1 GIQ      0.097400
      4 N1A         1.2080    1.5020    0.0610 nc        1 GIQ     -0.600100
      5 C           3.4740   -1.4030    0.0780 c3        1 GIQ      0.032600
      6 C4A         0.3280   -2.0530   -0.0680 ca        1 GIQ     -0.105000
      7 C5A        -1.0410   -2.0410   -0.0860 ca        1 GIQ     -0.164300
      8 C6A        -1.7960   -0.8140   -0.0520 ca        1 GIQ      0.387600
      9 C10        -1.1150    0.4430    0.0030 ca        1 GIQ     -0.099300
     10 N6A        -3.1740   -0.8810   -0.0750 nb        1 GIQ     -0.661000
     11 C7A        -3.8540    0.2540   -0.0420 ca        1 GIQ      0.405200
     12 C8A        -3.2560    1.5480    0.0150 ca        1 GIQ     -0.254300
     13 C9A        -1.8840    1.6360    0.0370 ca        1 GIQ     -0.066000
     14 C2A         2.4500    0.9220    0.0690 cd        1 GIQ      0.558700
     15 H1          4.0650   -1.2240    1.0180 h1        1 GIQ      0.054033
     16 H2          3.0990   -2.4600    0.0740 h1        1 GIQ      0.054033
     17 H3          4.1510   -1.2500   -0.8070 h1        1 GIQ      0.054033
     18 H4A         0.8880   -2.9980   -0.0940 ha        1 GIQ      0.136000
     19 H5A        -1.5980   -2.9910   -0.1280 ha        1 GIQ      0.152000
     20 H7A        -4.9550    0.1600   -0.0610 h4        1 GIQ      0.019100
     21 H8A        -3.8940    2.4410    0.0410 ha        1 GIQ      0.143000
     22 H9A        -1.3670    2.6070    0.0820 ha        1 GIQ      0.156000
     23 H101        4.3450    1.3030   -0.4920 hn        1 GIQ      0.396800
     24 H102        3.5720    2.5820    0.2250 hn        1 GIQ      0.396800
     25 N10         3.6880    1.5870    0.2070 nh        1 GIQ     -0.844800
@<TRIPOS>BOND
     1    1    2 1   
     2    1    5 1   
     3    1   14 1   
     4    2    3 ar  
     5    2    6 ar  
     6    3    4 1   
     7    3    9 ar  
     8    4   14 2   
     9    5   15 1   
    10    5   16 1   
    11    5   17 1   
    12    6    7 ar  
    13    6   18 1   
    14    7    8 ar  
    15    7   19 1   
    16    8    9 ar  
    17    8   10 ar  
    18    9   13 ar  
    19   10   11 ar  
    20   11   12 ar  
    21   11   20 1   
    22   12   13 ar  
    23   12   21 1   
    24   13   22 1   
    25   14   25 1   
    26   23   25 1   
    27   24   25 1   
@<TRIPOS>SUBSTRUCTURE
     1 GIQ         1 TEMP              0 ****  ****    0 ROOT
