@<TRIPOS>MOLECULE
GIQ
   25    27     1     0     0
SMALL
bcc


@<TRIPOS>ATOM
      1 N3A        -0.1710   -0.1470    0.1610 na        1 GIQ     -0.236900
      2 C3A         1.2310   -0.0630    0.1230 cc        1 GIQ     -0.192600
      3 C1A         1.6810   -0.0530    1.4990 cc        1 GIQ      0.489100
      4 N1A         0.5850   -0.1070    2.3620 nd        1 GIQ     -0.659000
      5 C          -1.0730    0.0140   -0.9260 c3        1 GIQ      0.035600
      6 C4A         2.1300   -0.0270   -0.9530 cd        1 GIQ     -0.048000
      7 C5A         3.4780    0.0250   -0.6800 cd        1 GIQ     -0.201000
      8 C6A         3.9550    0.0350    0.6670 cc        1 GIQ      0.009900
      9 C10         3.0700   -0.0080    1.7920 cc        1 GIQ     -0.236900
     10 N6A         5.3240    0.0860    0.9110 nu        1 GIQ     -0.261300
     11 C7A         5.8110    0.0940    2.1900 ce        1 GIQ      0.254500
     12 C8A         4.9600    0.0490    3.2810 ce        1 GIQ     -0.372700
     13 C9A         3.5610   -0.0070    3.1240 c1        1 GIQ     -0.001800
     14 C2A        -0.5200   -0.1320    1.5470 cd        1 GIQ      0.508000
     15 H1         -1.6310    0.9860   -0.8410 h1        1 GIQ      0.051033
     16 H2         -1.8180   -0.8290   -0.9260 h1        1 GIQ      0.051033
     17 H3         -0.5050   -0.0010   -1.8940 h1        1 GIQ      0.051033
     18 H4A         1.7680   -0.0390   -1.9920 ha        1 GIQ      0.134000
     19 H5A         4.1950    0.0600   -1.5140 ha        1 GIQ      0.130000
     20 H7A         5.9470    0.1170    0.1360 hn        1 GIQ      0.288700
     21 H8A         6.9120    0.1380    2.2790 h4        1 GIQ      0.014800
     22 H9A         5.3840    0.0550    4.2950 ha        1 GIQ      0.152000
     23 H101       -1.9450   -0.1370    2.9640 hn        1 GIQ      0.246200
     24 H102       -2.4380   -0.7510    1.5020 hn        1 GIQ      0.246200
     25 N10        -1.8640   -0.0780    1.9680 nv        1 GIQ     -0.450900
@<TRIPOS>BOND
     1    1    2 1   
     2    1    5 1   
     3    1   14 2   
     4    2    3 1   
     5    2    6 2   
     6    3    4 2   
     7    3    9 1   
     8    4   14 1   
     9    5   15 1   
    10    5   16 1   
    11    5   17 1   
    12    6    7 1   
    13    6   18 1   
    14    7    8 2   
    15    7   19 1   
    16    8    9 1   
    17    8   10 1   
    18    9   13 2   
    19   10   11 2   
    20   10   20 1   
    21   11   12 1   
    22   11   21 1   
    23   12   13 2   
    24   12   22 1   
    25   14   25 1   
    26   23   25 1   
    27   24   25 1   
@<TRIPOS>SUBSTRUCTURE
     1 GIQ         1 TEMP              0 ****  ****    0 ROOT
