@<TRIPOS>MOLECULE
GIR
   23    23     1     0     0
SMALL
bcc


@<TRIPOS>ATOM
      1 N1         -0.7590   -1.1940    1.6530 n3        1 GIR     -0.930800
      2 C2         -0.8490   -0.4630    0.4120 c3        1 GIR      0.149800
      3 C3         -1.6620   -1.1780   -0.6680 c3        1 GIR      0.021700
      4 CL1        -3.3740   -1.1610   -0.2210 cl        1 GIR     -0.186400
      5 C4         -1.1990   -2.6220   -0.9230 c3        1 GIR      0.227400
      6 O5         -1.8860   -3.1820   -2.0280 oh        1 GIR     -0.571800
      7 C6          0.2750   -2.6710   -1.1370 cc        1 GIR     -0.261900
      8 N7          1.2030   -2.8820   -0.1160 na        1 GIR     -0.275900
      9 C8          1.0190   -2.5830   -2.3360 cd        1 GIR      0.309200
     10 N9          2.3700   -2.7320   -2.0830 nd        1 GIR     -0.692000
     11 C10         2.4790   -2.9040   -0.7210 cc        1 GIR      0.551400
     12 N11         3.6620   -3.0310    0.0560 nh        1 GIR     -0.876500
     13 HN11       -1.6680   -1.4530    1.9850 hn        1 GIR      0.359800
     14 HN12       -0.3020   -0.6370    2.3480 hn        1 GIR      0.359800
     15 H21        -1.2940    0.5690    0.5460 h1        1 GIR      0.048700
     16 H22         0.2010   -0.3180    0.0210 h1        1 GIR      0.048700
     17 H3         -1.5990   -0.5870   -1.6180 h1        1 GIR      0.079700
     18 H4         -1.5050   -3.2820   -0.0570 h1        1 GIR      0.103700
     19 HO5        -1.6100   -2.7070   -2.8220 ho        1 GIR      0.402000
     20 HN7         1.0020   -2.9250    0.8510 hn        1 GIR      0.325700
     21 H8          0.6470   -2.4370   -3.3490 h4        1 GIR      0.038100
     22 H111        4.4460   -2.6610   -0.4480 hn        1 GIR      0.384300
     23 H112        3.8220   -3.9950    0.2820 hn        1 GIR      0.384300
@<TRIPOS>BOND
     1    1    2 1   
     2    1   13 1   
     3    1   14 1   
     4    2    3 1   
     5    2   15 1   
     6    2   16 1   
     7    3    4 1   
     8    3    5 1   
     9    3   17 1   
    10    5    6 1   
    11    5    7 1   
    12    5   18 1   
    13    6   19 1   
    14    7    8 1   
    15    7    9 2   
    16    8   11 1   
    17    8   20 1   
    18    9   10 1   
    19    9   21 1   
    20   10   11 2   
    21   11   12 1   
    22   12   22 1   
    23   12   23 1   
@<TRIPOS>SUBSTRUCTURE
     1 GIR         1 TEMP              0 ****  ****    0 ROOT
