@<TRIPOS>MOLECULE
GIR
   24    24     1     0     0
SMALL
bcc


@<TRIPOS>ATOM
      1 N1          1.7060    0.5810   -0.5160 n4        1 GIR     -0.841600
      2 C2          1.7940   -0.4740    0.5280 c3        1 GIR      0.102800
      3 C3          1.1920   -0.0500    1.8650 c3        1 GIR      0.003700
      4 CL1        -0.5210    0.2880    1.6990 cl        1 GIR     -0.134400
      5 C4          1.9450    1.1290    2.5130 c3        1 GIR      0.225400
      6 O5          3.3140    0.7440    2.4600 oh        1 GIR     -0.611800
      7 C6          1.7690    2.4260    1.8100 cc        1 GIR     -0.372900
      8 N7          0.5920    3.1870    1.8060 na        1 GIR     -0.316900
      9 C8          2.7360    3.1910    1.1150 cd        1 GIR      0.325200
     10 N9          2.2000    4.3840    0.6780 nd        1 GIR     -0.690000
     11 C10         0.8850    4.3860    1.1130 cc        1 GIR      0.640400
     12 N11        -0.0980    5.3310    0.7990 nh        1 GIR     -0.896500
     13 HN11        0.7280    0.8640   -0.6510 hn        1 GIR      0.467800
     14 HN12        2.0830    0.2320   -1.4010 hn        1 GIR      0.467800
     15 H21         1.2660   -1.3950    0.1420 hx        1 GIR      0.129200
     16 H22         2.8890   -0.7140    0.6950 hx        1 GIR      0.129200
     17 H3          1.2740   -0.9370    2.5560 h1        1 GIR      0.137700
     18 H4          1.6040    1.2180    3.5860 h1        1 GIR      0.090700
     19 HO5         3.7990    1.3170    3.0700 ho        1 GIR      0.448000
     20 HN7        -0.2400    2.9680    2.2920 hn        1 GIR      0.321700
     21 H8          3.7910    2.9490    0.9580 h4        1 GIR      0.056100
     22 H111       -0.6920    5.5740    1.5650 hn        1 GIR      0.425300
     23 H112        0.2670    6.1280    0.3150 hn        1 GIR      0.425300
     24 H13         2.2450    1.4140   -0.2160 hn        1 GIR      0.467800
@<TRIPOS>BOND
     1    1    2 1   
     2    1   13 1   
     3    1   14 1   
     4    1   24 1   
     5    2    3 1   
     6    2   15 1   
     7    2   16 1   
     8    3    4 1   
     9    3    5 1   
    10    3   17 1   
    11    5    6 1   
    12    5    7 1   
    13    5   18 1   
    14    6   19 1   
    15    7    8 1   
    16    7    9 2   
    17    8   11 1   
    18    8   20 1   
    19    9   10 1   
    20    9   21 1   
    21   10   11 2   
    22   11   12 1   
    23   12   22 1   
    24   12   23 1   
@<TRIPOS>SUBSTRUCTURE
     1 GIR         1 TEMP              0 ****  ****    0 ROOT
