@<TRIPOS>MOLECULE
GIR
   24    24     1     0     0
SMALL
bcc


@<TRIPOS>ATOM
      1 N1          1.6400    0.5550   -0.5030 nz        1 GIR     -0.841600
      2 C2          1.6940   -0.4920    0.5520 c3        1 GIR      0.102800
      3 C3          1.1230   -0.0280    1.8900 c3        1 GIR      0.003700
      4 Cl1        -0.5760    0.3760    1.7360 cl        1 GIR     -0.134400
      5 C4          1.9290    1.1270    2.5160 c3        1 GIR      0.225400
      6 O5          3.2810    0.6880    2.4530 oh        1 GIR     -0.611800
      7 C6          1.7970    2.4220    1.8000 cc        1 GIR     -0.372900
      8 N7          0.6500    3.2290    1.8000 na        1 GIR     -0.315900
      9 C8          2.7860    3.1410    1.0880 cd        1 GIR      0.325200
     10 N9          2.2930    4.3490    0.6420 nd        1 GIR     -0.690000
     11 C10         0.9830    4.4080    1.0900 cc        1 GIR      0.640400
     12 N11         0.0350    5.3880    0.7750 nv        1 GIR     -0.896500
     13 HN11        2.2150    1.3680   -0.2170 hn        1 GIR      0.467800
     14 HN12        1.9930    0.1810   -1.3870 hn        1 GIR      0.467800
     15 H21         2.7800   -0.7750    0.7120 hx        1 GIR      0.129200
     16 H22         1.1250   -1.3940    0.1820 hx        1 GIR      0.129200
     17 H3          1.1770   -0.9090    2.5900 h1        1 GIR      0.137700
     18 H4          1.6040    1.2410    3.5920 h1        1 GIR      0.090700
     19 HO5         3.7950    1.2470    3.0520 ho        1 GIR      0.448000
     20 HN7        -0.1850    3.0490    2.2960 hn        1 GIR      0.321700
     21 H8          3.8290    2.8570    0.9230 h4        1 GIR      0.056100
     22 H111       -0.5410    5.6620    1.5440 hn        1 GIR      0.425300
     23 H112        0.4260    6.1650    0.2780 hn        1 GIR      0.425300
     24 H13         0.6730    0.8760   -0.6320 hn        1 GIR      0.467800
@<TRIPOS>BOND
     1    1    2 1   
     2    1   13 1   
     3    1   14 1   
     4    1   24 1   
     5    2    3 1   
     6    2   15 1   
     7    2   16 1   
     8    3    4 1   
     9    3    5 1   
    10    3   17 1   
    11    5    6 1   
    12    5    7 1   
    13    5   18 1   
    14    6   19 1   
    15    7    8 1   
    16    7    9 2   
    17    8   11 1   
    18    8   20 1   
    19    9   10 1   
    20    9   21 1   
    21   10   11 2   
    22   11   12 1   
    23   12   22 1   
    24   12   23 1   
@<TRIPOS>SUBSTRUCTURE
     1 GIR         1 TEMP              0 ****  ****    0 ROOT
