@<TRIPOS>MOLECULE
GIR
   25    25     1     0     0
SMALL
bcc


@<TRIPOS>ATOM
      1 N1          1.0650   -1.2900    0.0770 n4        1 GIR     -0.839600
      2 C2          1.9450   -0.1930    0.5690 c3        1 GIR      0.092800
      3 C3          1.5830    0.3680    1.9470 c3        1 GIR     -0.049300
      4 CL1         0.9900   -0.9080    2.9990 cl        1 GIR     -0.091400
      5 C4          0.5890    1.5510    1.8920 c3        1 GIR      0.223400
      6 O5          0.2190    1.9410    3.2020 oh        1 GIR     -0.583800
      7 C6          1.2110    2.7590    1.2550 cc        1 GIR     -0.169900
      8 N7          1.7700    3.8160    1.9660 na        1 GIR     -0.236900
      9 C8          1.2860    3.1110   -0.1240 cd        1 GIR      0.320200
     10 N9          1.8650    4.3490   -0.2750 nd        1 GIR     -0.550000
     11 C10         2.1390    4.7790    1.0050 cc        1 GIR      0.401400
     12 N11         2.7370    6.0720    1.3170 n4        1 GIR     -0.783300
     13 HN11        1.4000   -1.6170   -0.8390 hn        1 GIR      0.475467
     14 HN12        0.0950   -0.9700   -0.0160 hn        1 GIR      0.475467
     15 H21         1.9200    0.6420   -0.1940 hx        1 GIR      0.128200
     16 H22         2.9980   -0.6090    0.6110 hx        1 GIR      0.128200
     17 H3          2.5360    0.7300    2.4270 h1        1 GIR      0.139700
     18 H4         -0.3190    1.2620    1.2880 h1        1 GIR      0.074700
     19 HO5        -0.4320    1.3070    3.5400 ho        1 GIR      0.461000
     20 HN7         1.7620    3.9010    2.9590 hn        1 GIR      0.355700
     21 H8          0.9240    2.5590   -0.9970 h4        1 GIR      0.076100
     22 H111        3.6210    5.9430    1.8270 hn        1 GIR      0.492467
     23 H112        2.0820    6.6340    1.8800 hn        1 GIR      0.492467
     24 H13         1.0820   -2.0830    0.7390 hn        1 GIR      0.475467
     25 H113        2.9290    6.5700    0.4280 hn        1 GIR      0.492467
@<TRIPOS>BOND
     1    1    2 1   
     2    1   13 1   
     3    1   14 1   
     4    1   24 1   
     5    2    3 1   
     6    2   15 1   
     7    2   16 1   
     8    3    4 1   
     9    3    5 1   
    10    3   17 1   
    11    5    6 1   
    12    5    7 1   
    13    5   18 1   
    14    6   19 1   
    15    7    8 1   
    16    7    9 2   
    17    8   11 1   
    18    8   20 1   
    19    9   10 1   
    20    9   21 1   
    21   10   11 2   
    22   11   12 1   
    23   12   22 1   
    24   12   23 1   
    25   12   25 1   
@<TRIPOS>SUBSTRUCTURE
     1 GIR         1 TEMP              0 ****  ****    0 ROOT
