@<TRIPOS>MOLECULE
GIR
   23    20     1     0     0
SMALL
bcc


@<TRIPOS>ATOM
      1 N1         -3.0580   -1.5060   -1.6880 n3        1 GIR     -0.352000
      2 C2         -1.7150   -1.0910   -1.9230 c3        1 GIR     -0.080000
      3 C3         -1.1250   -0.5400   -0.6430 c3        1 GIR     -0.057000
      4 CL1        -2.0170    0.8760   -0.1550 cl        1 GIR     -0.113000
      5 C4          0.3230   -0.1700   -0.8740 c3        1 GIR      0.102000
      6 O5          1.0950   -1.3410   -0.9890 oh        1 GIR     -0.332000
      7 C6          0.8250    0.6520    0.2910 c2        1 GIR     -0.188000
      8 N7          1.2760    0.1720    1.4540 n2        1 GIR     -0.172000
      9 C8          0.9460    2.0150    0.3220 c1        1 GIR     -0.125000
     10 N9          1.4700    2.3560    1.5020 n2        1 GIR     -0.169000
     11 C10         1.6780    1.2200    2.2120 c1        1 GIR      0.020000
     12 N11         2.2270    1.1430    3.5180 n2        1 GIR     -0.276000
     13 HN11       -3.1080   -2.4190   -1.7270 hn        1 GIR      0.153000
     14 HN12       -3.6060   -1.1420   -2.3250 hn        1 GIR      0.153000
     15 H21        -1.7040   -0.3960   -2.6130 h1        1 GIR      0.087000
     16 H22        -1.1840   -1.8580   -2.2240 h1        1 GIR      0.087000
     17 H3         -1.1800   -1.2170    0.0580 h1        1 GIR      0.133000
     18 H4          0.3980    0.3520   -1.6970 h1        1 GIR      0.105000
     19 HO5         1.6520   -1.2630   -1.6780 ho        1 GIR      0.216000
     20 HN7         1.3060   -0.7070    1.6950 DU        1 GIR      0.223000
     21 H8          0.6950    2.6290   -0.3940 DU        1 GIR      0.223000
     22 H111        2.1840    0.3590    3.9860 hn        1 GIR      0.182000
     23 H112        2.6220    1.8770    3.8930 hn        1 GIR      0.182000
@<TRIPOS>BOND
     1    1    2 1   
     2    1   13 1   
     3    1   14 1   
     4    2    3 1   
     5    2   15 1   
     6    2   16 1   
     7    3    4 1   
     8    3    5 1   
     9    3   17 1   
    10    5    6 1   
    11    5    7 1   
    12    5   18 1   
    13    6   19 1   
    14    7    8 1   
    15    7    9 1   
    16    8   11 1   
    17    9   10 1   
    18   10   11 1   
    19   12   22 1   
    20   12   23 1   
@<TRIPOS>SUBSTRUCTURE
     1 GIR         1 TEMP              0 ****  ****    0 ROOT
