@<TRIPOS>MOLECULE
GIS
   34    34     1     0     0
SMALL
bcc


@<TRIPOS>ATOM
      1 C1          0.3420   -0.7910   -0.2950 c         1 GIS      0.637700
      2 O1          1.5560   -0.1640   -0.3140 oh        1 GIS     -0.575100
      3 OXT         0.1980   -1.5440    0.6680 o         1 GIS     -0.480000
      4 C2         -0.6200   -0.5180   -1.3870 ca        1 GIS     -0.118600
      5 C3         -0.1220   -0.5140   -2.6950 ca        1 GIS     -0.161000
      6 C4         -0.9680   -0.2490   -3.7900 ca        1 GIS      0.166600
      7 C6         -2.3420   -0.0130   -3.5330 ca        1 GIS     -0.150000
      8 C7         -2.8250   -0.0320   -2.2350 ca        1 GIS     -0.077000
      9 C8         -1.9800   -0.2870   -1.1430 ca        1 GIS     -0.081300
     10 C9         -2.5550   -0.3220    0.2330 c3        1 GIS      0.041000
     11 C10        -3.2970    0.9550    0.5560 c         1 GIS      0.630100
     12 O2         -4.2070    1.5060   -0.0650 o         1 GIS     -0.529000
     13 O3         -2.8470    1.5220    1.7110 os        1 GIS     -0.428900
     14 C11        -3.5070    2.7310    2.1350 c3        1 GIS      0.138400
     15 C12        -2.8510    3.1320    3.4330 c3        1 GIS     -0.102100
     16 N1         -0.5130   -0.1910   -5.1140 nh        1 GIS     -0.772600
     17 C5          0.8910   -0.1490   -5.4480 c2        1 GIS      0.773100
     18 N2          1.4820   -0.9280   -6.3160 n2        1 GIS     -0.856100
     19 N3          1.6460    0.8480   -4.7570 nh        1 GIS     -0.886800
     20 CL         -3.6810   -1.6700    0.4030 cl        1 GIS     -0.130400
     21 H3          0.9450   -0.7450   -2.8570 ha        1 GIS      0.163000
     22 H6         -3.0360    0.1910   -4.3630 ha        1 GIS      0.148000
     23 H7         -3.8950    0.1690   -2.0440 ha        1 GIS      0.173000
     24 H9         -1.7620   -0.5010    1.0130 h1        1 GIS      0.138700
     25 H111       -3.3750    3.5070    1.3370 h1        1 GIS      0.053700
     26 H112       -4.6000    2.5160    2.2630 h1        1 GIS      0.053700
     27 H121       -1.7590    3.3120    3.2820 hc        1 GIS      0.051033
     28 H122       -3.3290    4.0690    3.8060 hc        1 GIS      0.051033
     29 H123       -2.9710    2.3290    4.1980 hc        1 GIS      0.051033
     30 HN1        -1.0960   -0.6550   -5.7770 hn        1 GIS      0.431800
     31 HN2         0.9380   -1.6750   -6.6870 hn        1 GIS      0.401400
     32 HN31        2.5470    1.0020   -5.1610 hn        1 GIS      0.405300
     33 HN32        1.1410    1.6980   -4.6150 hn        1 GIS      0.405300
     34 H33         1.6190    0.4250   -1.0800 ho        1 GIS      0.434000
@<TRIPOS>BOND
     1    1    2 1   
     2    1    3 2   
     3    1    4 1   
     4    2   34 1   
     5    4    5 ar  
     6    4    9 ar  
     7    5    6 ar  
     8    5   21 1   
     9    6    7 ar  
    10    6   16 1   
    11    7    8 ar  
    12    7   22 1   
    13    8    9 ar  
    14    8   23 1   
    15    9   10 1   
    16   10   11 1   
    17   10   20 1   
    18   10   24 1   
    19   11   12 2   
    20   11   13 1   
    21   13   14 1   
    22   14   15 1   
    23   14   25 1   
    24   14   26 1   
    25   15   27 1   
    26   15   28 1   
    27   15   29 1   
    28   16   17 1   
    29   16   30 1   
    30   17   18 2   
    31   17   19 1   
    32   18   31 1   
    33   19   32 1   
    34   19   33 1   
@<TRIPOS>SUBSTRUCTURE
     1 GIS         1 TEMP              0 ****  ****    0 ROOT
