@<TRIPOS>MOLECULE
GIS
   34    34     1     0     0
SMALL
bcc


@<TRIPOS>ATOM
      1 C1          0.3730   -0.7220   -0.2570 c         1 GIS      0.637700
      2 O1          1.5700   -0.0620   -0.2850 oh        1 GIS     -0.575100
      3 OXT         0.2450   -1.4550    0.7240 o         1 GIS     -0.480000
      4 C2         -0.5910   -0.5000   -1.3590 ca        1 GIS     -0.118600
      5 C3         -0.0860   -0.5140   -2.6640 ca        1 GIS     -0.161000
      6 C4         -0.9340   -0.2970   -3.7680 ca        1 GIS      0.166600
      7 C6         -2.3150   -0.0940   -3.5230 ca        1 GIS     -0.150000
      8 C7         -2.8040   -0.0960   -2.2270 ca        1 GIS     -0.077000
      9 C8         -1.9580   -0.3010   -1.1260 ca        1 GIS     -0.081300
     10 C9         -2.5380   -0.3200    0.2480 c3        1 GIS      0.041000
     11 C10        -3.3170    0.9430    0.5380 c         1 GIS      0.630100
     12 O2         -4.2390    1.4540   -0.0990 o         1 GIS     -0.529000
     13 O3         -2.8880    1.5490    1.6810 os        1 GIS     -0.428900
     14 C11        -3.5830    2.7500    2.0730 c3        1 GIS      0.138400
     15 C12        -2.9430    3.2000    3.3630 c3        1 GIS     -0.102100
     16 N1         -0.4740   -0.2580   -5.0920 nu        1 GIS     -0.772600
     17 C5          0.9300   -0.1840   -5.4210 c2        1 GIS      0.773100
     18 N2          1.5460   -0.9660   -6.2680 n2        1 GIS     -0.856100
     19 N3          1.6530    0.8490   -4.7500 nv        1 GIS     -0.886800
     20 Cl         -3.6270   -1.6950    0.4450 cl        1 GIS     -0.130400
     21 H3          0.9870   -0.7190   -2.8160 ha        1 GIS      0.163000
     22 H6         -3.0100    0.0720   -4.3610 ha        1 GIS      0.148000
     23 H7         -3.8800    0.0800   -2.0450 ha        1 GIS      0.173000
     24 H9         -1.7440   -0.4590    1.0360 h1        1 GIS      0.138700
     25 H111       -4.6700    2.5070    2.2020 h1        1 GIS      0.053700
     26 H112       -3.4700    3.5100    1.2570 h1        1 GIS      0.053700
     27 H121       -1.8570    3.4080    3.2120 hc        1 GIS      0.051033
     28 H122       -3.0440    2.4120    4.1470 hc        1 GIS      0.051033
     29 H123       -3.4500    4.1310    3.7120 hc        1 GIS      0.051033
     30 HN1        -1.0410   -0.7530   -5.7460 hn        1 GIS      0.431800
     31 HN2         1.0250   -1.7360   -6.6240 hn        1 GIS      0.401400
     32 HN31        1.6200    0.5110   -1.0640 ho        1 GIS      0.434000
     33 HN32        2.5520    1.0180   -5.1530 hn        1 GIS      0.405300
     34 H33         1.1250    1.6870   -4.6300 hn        1 GIS      0.405300
@<TRIPOS>BOND
     1    1    2 1   
     2    1    3 2   
     3    1    4 1   
     4    2   32 1   
     5    4    5 ar  
     6    4    9 ar  
     7    5    6 ar  
     8    5   21 1   
     9    6    7 ar  
    10    6   16 1   
    11    7    8 ar  
    12    7   22 1   
    13    8    9 ar  
    14    8   23 1   
    15    9   10 1   
    16   10   11 1   
    17   10   20 1   
    18   10   24 1   
    19   11   12 2   
    20   11   13 1   
    21   13   14 1   
    22   14   15 1   
    23   14   25 1   
    24   14   26 1   
    25   15   27 1   
    26   15   28 1   
    27   15   29 1   
    28   16   17 1   
    29   16   30 1   
    30   17   18 2   
    31   17   19 1   
    32   18   31 1   
    33   19   33 1   
    34   19   34 1   
@<TRIPOS>SUBSTRUCTURE
     1 GIS         1 TEMP              0 ****  ****    0 ROOT
