@<TRIPOS>MOLECULE
GIS
   33    29     1     0     0
SMALL
bcc


@<TRIPOS>ATOM
      1 C1          1.2890    1.1480    1.8030 c1        1 GIS      0.366000
      2 O1          1.9720    0.1190    2.1170 o         1 GIS     -0.548000
      3 OXT         1.1680    2.1620    2.6690 os        1 GIS     -0.539000
      4 C2          0.5760    1.2010    0.4780 c2        1 GIS     -0.055000
      5 C3          1.1360    1.8800   -0.5650 c2        1 GIS     -0.135000
      6 C4          0.4320    2.0290   -1.7570 c1        1 GIS     -0.014000
      7 C6         -0.8440    1.4890   -1.8870 c1        1 GIS     -0.137000
      8 C7         -1.4160    0.8000   -0.8310 c1        1 GIS     -0.137000
      9 C8         -0.7180    0.6520    0.3510 c1        1 GIS     -0.064000
     10 C9         -1.3760   -0.0020    1.5420 c3        1 GIS      0.016000
     11 C10        -0.8810   -1.4520    1.6640 c2        1 GIS      0.374000
     12 O2         -0.2300   -1.9550    0.7500 o         1 GIS     -0.386000
     13 O3         -1.2500   -2.2400    2.7910 os        1 GIS     -0.267000
     14 C11        -0.9900   -3.6440    2.6330 c3        1 GIS     -0.004000
     15 C12        -1.3690   -4.3700    3.9160 c3        1 GIS     -0.212000
     16 N1          1.0130    2.8090   -2.8570 n3        1 GIS     -0.266000
     17 C5          1.4980    2.1170   -4.0900 c2        1 GIS      0.150000
     18 N2          0.6890    1.3340   -4.7650 n1        1 GIS     -0.347000
     19 N3          2.7890    2.3090   -4.5240 n3        1 GIS     -0.326000
     20 CL         -0.9700    0.8820    2.9840 cl        1 GIS     -0.099000
     21 H3          2.0400    2.3820   -0.4320 ha        1 GIS      0.159000
     22 H6         -1.3530    1.6160   -2.7320 ha        1 GIS      0.120000
     23 H7         -2.2710    0.3970   -0.9330 ha        1 GIS      0.120000
     24 H9         -2.3820    0.0010    1.4190 h1        1 GIS      0.106000
     25 H111       -0.0240   -3.7820    2.4430 h1        1 GIS      0.097500
     26 H112       -1.5410   -4.0050    1.8670 h1        1 GIS      0.097500
     27 H121       -1.2940   -5.3720    3.7730 hc        1 GIS      0.073333
     28 H122       -2.3410   -4.1290    4.1750 hc        1 GIS      0.073333
     29 H123       -0.7850   -4.1020    4.6160 hc        1 GIS      0.073333
     30 HN1         1.1440    3.6980   -2.7580 hn        1 GIS      0.196000
     31 HN2        -0.1410    1.2110   -4.4910 DU        1 GIS      0.160000
     32 HN31        3.4700    2.3540   -3.9200 hn        1 GIS      0.176000
     33 HN32        2.9600    2.4630   -5.4480 hn        1 GIS      0.176000
@<TRIPOS>BOND
     1    1    2 1   
     2    1    4 1   
     3    4    5 1   
     4    4    9 1   
     5    5    6 1   
     6    5   21 1   
     7    6   16 1   
     8    7    8 1   
     9    7   22 1   
    10    8   23 1   
    11    9   10 1   
    12   10   11 1   
    13   10   20 1   
    14   10   24 1   
    15   11   12 1   
    16   11   13 1   
    17   13   14 1   
    18   14   15 1   
    19   14   25 1   
    20   14   26 1   
    21   15   27 1   
    22   15   28 1   
    23   15   29 1   
    24   16   17 1   
    25   16   30 1   
    26   17   18 1   
    27   17   19 1   
    28   19   32 1   
    29   19   33 1   
@<TRIPOS>SUBSTRUCTURE
     1 GIS         1 TEMP              0 ****  ****    0 ROOT
