@<TRIPOS>MOLECULE
GIS
   35    35     1     0     0
SMALL
bcc


@<TRIPOS>ATOM
      1 C1         -0.4610    0.3220    0.6610 c         1 GIS      0.622700
      2 O1         -0.6680   -0.3360    1.6780 o         1 GIS     -0.438000
      3 OXT         0.2960    1.4350    0.8490 oh        1 GIS     -0.546100
      4 C2         -1.0010   -0.0010   -0.6860 ca        1 GIS     -0.133600
      5 C3         -2.3770   -0.2500   -0.7570 ca        1 GIS     -0.071000
      6 C4         -2.9590   -0.5820   -1.9890 ca        1 GIS     -0.053400
      7 C6         -2.1650   -0.6660   -3.1490 ca        1 GIS     -0.089000
      8 C7         -0.7980   -0.4310   -3.0580 ca        1 GIS     -0.076000
      9 C8         -0.1960   -0.1130   -1.8300 ca        1 GIS     -0.014300
     10 C9          1.2810    0.1050   -1.7530 c3        1 GIS     -0.003000
     11 C10         2.0720   -0.9350   -2.5190 c         1 GIS      0.637100
     12 O2          1.8230   -1.4130   -3.6270 o         1 GIS     -0.525000
     13 O3          3.1710   -1.3280   -1.8350 os        1 GIS     -0.414900
     14 C11         4.0430   -2.2790   -2.4960 c3        1 GIS      0.141400
     15 C12         5.1900   -2.5110   -1.5460 c3        1 GIS     -0.107100
     16 N1         -4.3900   -0.8660   -2.0600 n4        1 GIS     -0.676400
     17 C5         -5.2150    0.4430   -2.2900 c2        1 GIS      0.733100
     18 N2         -5.7790    0.7200   -3.4020 n2        1 GIS     -0.724100
     19 N3         -5.2850    1.1890   -1.0940 nh        1 GIS     -0.884800
     20 CL          1.6720    1.7000   -2.3880 cl        1 GIS     -0.098400
     21 H3         -2.9710   -0.2010    0.1740 ha        1 GIS      0.181000
     22 H6         -2.5990   -0.9250   -4.1300 ha        1 GIS      0.163000
     23 H7         -0.1690   -0.5190   -3.9680 ha        1 GIS      0.213000
     24 H9          1.6410    0.1000   -0.6830 h1        1 GIS      0.136700
     25 H111        4.3760   -1.8340   -3.4690 h1        1 GIS      0.061700
     26 H112        3.4550   -3.2130   -2.6930 h1        1 GIS      0.061700
     27 H121        4.8230   -2.9230   -0.5750 hc        1 GIS      0.060033
     28 H122        5.8970   -3.2410   -2.0100 hc        1 GIS      0.060033
     29 H123        5.7320   -1.5570   -1.3410 hc        1 GIS      0.060033
     30 HN1        -4.6940   -1.2960   -1.1750 hn        1 GIS      0.463800
     31 HN2        -5.7960    0.0910   -4.1740 hn        1 GIS      0.463400
     32 HN31       -6.0730    1.8110   -1.0590 hn        1 GIS      0.444300
     33 HN32        0.3870    1.9380    0.0240 ho        1 GIS      0.441000
     34 H12        -4.5660   -1.5280   -2.8220 hn        1 GIS      0.463800
     35 H33        -4.4210    1.6300   -0.8440 hn        1 GIS      0.444300
@<TRIPOS>BOND
     1    1    2 2   
     2    1    3 1   
     3    1    4 1   
     4    3   33 1   
     5    4    5 ar  
     6    4    9 ar  
     7    5    6 ar  
     8    5   21 1   
     9    6    7 ar  
    10    6   16 1   
    11    7    8 ar  
    12    7   22 1   
    13    8    9 ar  
    14    8   23 1   
    15    9   10 1   
    16   10   11 1   
    17   10   20 1   
    18   10   24 1   
    19   11   12 2   
    20   11   13 1   
    21   13   14 1   
    22   14   15 1   
    23   14   25 1   
    24   14   26 1   
    25   15   27 1   
    26   15   28 1   
    27   15   29 1   
    28   16   17 1   
    29   16   30 1   
    30   16   34 1   
    31   17   18 2   
    32   17   19 1   
    33   18   31 1   
    34   19   32 1   
    35   19   35 1   
@<TRIPOS>SUBSTRUCTURE
     1 GIS         1 TEMP              0 ****  ****    0 ROOT
