@<TRIPOS>MOLECULE
GIS
   33    33     1     0     0
SMALL
bcc


@<TRIPOS>ATOM
      1 C1         -1.9130    1.4720   -0.5090 c         1 GIS      0.907200
      2 O1         -2.4430    1.3190    0.6280 o         1 GIS     -0.815800
      3 OXT        -2.4540    2.1050   -1.4570 o         1 GIS     -0.815800
      4 C2         -0.5590    0.8190   -0.7960 ca        1 GIS     -0.069600
      5 C3         -0.3050    0.5290   -2.1440 ca        1 GIS     -0.173000
      6 C4          0.8640   -0.1310   -2.5530 ca        1 GIS      0.097600
      7 C6          1.8310   -0.4540   -1.5730 ca        1 GIS     -0.173000
      8 C7          1.6000   -0.1310   -0.2450 ca        1 GIS     -0.101000
      9 C8          0.4100    0.4930    0.1630 ca        1 GIS     -0.108300
     10 C9          0.2200    0.8230    1.6010 c3        1 GIS      0.060000
     11 C10         0.4820   -0.3530    2.5090 c         1 GIS      0.641100
     12 O2          1.4280   -1.1450    2.5460 o         1 GIS     -0.561000
     13 O3         -0.5070   -0.5070    3.4420 os        1 GIS     -0.419900
     14 C11        -0.3800   -1.6200    4.3380 c3        1 GIS      0.138400
     15 C12        -1.6190   -1.6090    5.2020 c3        1 GIS     -0.099100
     16 N1          1.1170   -0.5180   -3.8950 nh        1 GIS     -0.695600
     17 C5          0.0260   -0.5180   -4.8310 c2        1 GIS      0.762100
     18 N2          0.2190    0.0100   -6.0170 n2        1 GIS     -0.888100
     19 N3         -1.1460   -1.2560   -4.4490 nh        1 GIS     -0.912800
     20 CL          1.3410    2.1130    2.1080 cl        1 GIS     -0.204400
     21 H3         -1.0590    0.8820   -2.8700 ha        1 GIS      0.161000
     22 H6          2.7650   -0.9610   -1.8560 ha        1 GIS      0.124000
     23 H7          2.3590   -0.3850    0.5130 ha        1 GIS      0.144000
     24 H9         -0.8240    1.2290    1.7900 h1        1 GIS      0.191700
     25 H111        0.5550   -1.4910    4.9440 h1        1 GIS      0.042200
     26 H112       -0.2980   -2.5640    3.7390 h1        1 GIS      0.042200
     27 H121       -1.5860   -2.4780    5.9010 hc        1 GIS      0.044367
     28 H122       -1.6760   -0.6630    5.7910 hc        1 GIS      0.044367
     29 H123       -2.5350   -1.6800    4.5670 hc        1 GIS      0.044367
     30 HN1         1.9600   -0.1200   -4.2600 hn        1 GIS      0.419800
     31 HN2        -0.5290   -0.1170   -6.6630 hn        1 GIS      0.386400
     32 HN31       -1.9840   -0.7440   -4.6380 hn        1 GIS      0.392800
     33 HN32       -1.1340   -1.5740   -3.5000 hn        1 GIS      0.392800
@<TRIPOS>BOND
     1    1    2 1   
     2    1    3 1   
     3    1    4 1   
     4    4    5 ar  
     5    4    9 ar  
     6    5    6 ar  
     7    5   21 1   
     8    6    7 ar  
     9    6   16 1   
    10    7    8 ar  
    11    7   22 1   
    12    8    9 ar  
    13    8   23 1   
    14    9   10 1   
    15   10   11 1   
    16   10   20 1   
    17   10   24 1   
    18   11   12 2   
    19   11   13 1   
    20   13   14 1   
    21   14   15 1   
    22   14   25 1   
    23   14   26 1   
    24   15   27 1   
    25   15   28 1   
    26   15   29 1   
    27   16   17 1   
    28   16   30 1   
    29   17   18 2   
    30   17   19 1   
    31   18   31 1   
    32   19   32 1   
    33   19   33 1   
@<TRIPOS>SUBSTRUCTURE
     1 GIS         1 TEMP              0 ****  ****    0 ROOT
