@<TRIPOS>MOLECULE
GIV
   24    24     1     0     0
SMALL
bcc


@<TRIPOS>ATOM
      1 C1         -0.7930    0.7950   -1.3430 c3        1 GIV      0.315900
      2 C2          0.7200    0.7950   -1.3430 c3        1 GIV      0.050100
      3 C3          1.2830    0.7950    0.0290 c3        1 GIV      0.113100
      4 C4          0.7070   -0.2900    0.8760 c3        1 GIV      0.121100
      5 C5         -0.8120   -0.2870    0.8650 c3        1 GIV      0.113100
      6 C6         -1.3040   -1.5040    1.5820 c3        1 GIV      0.142400
      7 O1         -1.2400    0.6230   -2.6380 oh        1 GIV     -0.596800
      8 O3          2.7210    0.6120   -0.0540 oh        1 GIV     -0.607800
      9 O4          1.1710   -1.5550    0.3880 oh        1 GIV     -0.594800
     10 O5         -1.3630   -0.2830   -0.4910 os        1 GIV     -0.450600
     11 O6         -2.7020   -1.4190    1.7480 oh        1 GIV     -0.597800
     12 O2          1.1860    1.9690   -2.0370 oh        1 GIV     -0.603800
     13 H1         -1.1080    1.6570   -1.0120 h2        1 GIV      0.084700
     14 H2          1.0360    0.0010   -1.8150 h1        1 GIV      0.070700
     15 HA         -2.0660    0.9410   -2.7100 ho        1 GIV      0.430000
     16 H3          1.0970    1.6560    0.4480 h1        1 GIV      0.059700
     17 HB          1.6160    1.7250   -2.7740 ho        1 GIV      0.425000
     18 H4          1.0160   -0.1730    1.7950 h1        1 GIV      0.060700
     19 HC          3.1280    1.2580    0.3990 ho        1 GIV      0.431000
     20 H5         -1.1290    0.5070    1.3360 h1        1 GIV      0.058700
     21 HD          1.7720   -1.8870    0.9500 ho        1 GIV      0.426000
     22 H61C       -1.0850   -2.3000    1.0610 h1        1 GIV      0.067200
     23 H62C       -0.8750   -1.5610    2.4580 h1        1 GIV      0.067200
     24 H6         -2.9770   -2.0740    2.2810 ho        1 GIV      0.413000
@<TRIPOS>BOND
     1    1    2 1   
     2    1    7 1   
     3    1   10 1   
     4    1   13 1   
     5    2    3 1   
     6    2   12 1   
     7    2   14 1   
     8    3    4 1   
     9    3    8 1   
    10    3   16 1   
    11    4    5 1   
    12    4    9 1   
    13    4   18 1   
    14    5    6 1   
    15    5   10 1   
    16    5   20 1   
    17    6   11 1   
    18    6   22 1   
    19    6   23 1   
    20    7   15 1   
    21    8   19 1   
    22    9   21 1   
    23   11   24 1   
    24   12   17 1   
@<TRIPOS>SUBSTRUCTURE
     1 GIV         1 TEMP              0 ****  ****    0 ROOT
