@<TRIPOS>MOLECULE
GIV
   24    24     1     0     0
SMALL
bcc


@<TRIPOS>ATOM
      1 C1          0.4040    1.4050    0.3480 c3        1 GIV      0.315900
      2 C2          1.4630    0.3660   -0.0710 c3        1 GIV      0.050100
      3 C3          1.1270   -0.9950    0.5520 c3        1 GIV      0.113100
      4 C4         -0.3060   -1.4010    0.1620 c3        1 GIV      0.121100
      5 C5         -1.2840   -0.2760    0.5300 c3        1 GIV      0.113100
      6 C6         -2.6840   -0.5540   -0.0270 c3        1 GIV      0.142400
      7 O1          0.5600    2.6050   -0.3580 oh        1 GIV     -0.596800
      8 O3          1.9820   -2.0080    0.0520 oh        1 GIV     -0.607800
      9 O4         -0.4130   -1.6490   -1.2280 oh        1 GIV     -0.594800
     10 O5         -0.9010    0.9870   -0.0200 os        1 GIV     -0.450600
     11 O6         -3.6180    0.3790    0.4690 oh        1 GIV     -0.597800
     12 O2          2.7440    0.7340    0.4080 oh        1 GIV     -0.603800
     13 H1          0.4750    1.6550    1.4420 h2        1 GIV      0.084700
     14 H2          1.4840    0.2730   -1.1930 h1        1 GIV      0.070700
     15 HA          0.1570    2.4960   -1.2320 ho        1 GIV      0.430000
     16 H3          1.2250   -0.9370    1.6710 h1        1 GIV      0.059700
     17 HB          2.8930    1.6460    0.1250 ho        1 GIV      0.425000
     18 H4         -0.5870   -2.3340    0.7270 h1        1 GIV      0.060700
     19 HC          2.8870   -1.6880    0.1650 ho        1 GIV      0.431000
     20 H5         -1.3170   -0.1810    1.6520 h1        1 GIV      0.058700
     21 HD          0.3030   -2.2580   -1.4570 ho        1 GIV      0.426000
     22 H61C       -2.6530   -0.5370   -1.1480 h1        1 GIV      0.067200
     23 H62C       -3.0400   -1.5540    0.3360 h1        1 GIV      0.067200
     24 H6         -3.3340    1.2520    0.1680 ho        1 GIV      0.413000
@<TRIPOS>BOND
     1    1    2 1   
     2    1    7 1   
     3    1   10 1   
     4    1   13 1   
     5    2    3 1   
     6    2   12 1   
     7    2   14 1   
     8    3    4 1   
     9    3    8 1   
    10    3   16 1   
    11    4    5 1   
    12    4    9 1   
    13    4   18 1   
    14    5    6 1   
    15    5   10 1   
    16    5   20 1   
    17    6   11 1   
    18    6   22 1   
    19    6   23 1   
    20    7   15 1   
    21    8   19 1   
    22    9   21 1   
    23   11   24 1   
    24   12   17 1   
@<TRIPOS>SUBSTRUCTURE
     1 GIV         1 TEMP              0 ****  ****    0 ROOT
