@<TRIPOS>MOLECULE
GJB
   29    30     1     0     0
SMALL
bcc


@<TRIPOS>ATOM
      1 C           0.0470   -0.0150   -0.0380 c         1 GJB      0.707500
      2 O          -0.5870   -0.0650   -1.1040 o         1 GJB     -0.590500
      3 CA          1.5550    0.0610   -0.0540 c3        1 GJB     -0.236400
      4 CB          2.2450    0.0570    1.2840 c         1 GJB      0.708500
      5 OAC        -0.5550   -0.0600    3.5120 o         1 GJB     -0.614500
      6 CAE        -6.2110   -1.3380    0.1190 ca        1 GJB     -0.129500
      7 CAF        -4.8180   -1.3710    0.1440 ca        1 GJB     -0.123000
      8 CAG        -6.9330   -1.3680    1.3120 ca        1 GJB     -0.128000
      9 CAH        -4.1360   -1.4340    1.3650 ca        1 GJB     -0.087300
     10 CA0         0.0570   -0.0230    2.4260 c         1 GJB      0.816500
     11 CAJ        -2.0830   -0.0670    1.2230 c3        1 GJB      0.095000
     12 NAL        -0.6290   -0.0080    1.1890 n         1 GJB     -0.495400
     13 OAN         3.4820    0.0900    1.3850 o         1 GJB     -0.589500
     14 NAB         1.4640    0.0150    2.4340 n         1 GJB     -0.594500
     15 CAQ        -2.6490   -1.4820    1.3890 c3        1 GJB     -0.055100
     16 CAP        -6.2580   -1.4310    2.5310 ca        1 GJB     -0.129500
     17 CAO        -4.8650   -1.4640    2.5600 ca        1 GJB     -0.123000
     18 HA1C        1.8510    1.0000   -0.6000 hc        1 GJB      0.126200
     19 HA2C        1.9420   -0.8100   -0.6540 hc        1 GJB      0.126200
     20 HAB         1.9060    0.0150    3.3300 hn        1 GJB      0.358500
     21 HAF        -4.2480   -1.3480   -0.7970 ha        1 GJB      0.137000
     22 HAG        -8.0320   -1.3430    1.2910 ha        1 GJB      0.132000
     23 HAP        -6.8250   -1.4550    3.4740 ha        1 GJB      0.133000
     24 HAQ1       -2.2790   -2.1420    0.5590 hc        1 GJB      0.061200
     25 HAQ2       -2.2890   -1.9160    2.3600 hc        1 GJB      0.061200
     26 HAO        -4.3350   -1.5130    3.5230 ha        1 GJB      0.137000
     27 HAJ1       -2.4360    0.5710    2.0830 h1        1 GJB      0.082700
     28 HAJ2       -2.4670    0.3720    0.2580 h1        1 GJB      0.082700
     29 HAE        -6.7400   -1.2890   -0.8440 ha        1 GJB      0.133000
@<TRIPOS>BOND
     1    1    2 2   
     2    1    3 1   
     3    1   12 1   
     4    3    4 1   
     5    3   18 1   
     6    3   19 1   
     7    4   13 2   
     8    4   14 1   
     9    5   10 2   
    10    6    7 ar  
    11    6    8 ar  
    12    6   29 1   
    13    7    9 ar  
    14    7   21 1   
    15    8   16 ar  
    16    8   22 1   
    17    9   15 1   
    18    9   17 ar  
    19   10   12 1   
    20   10   14 1   
    21   11   12 1   
    22   11   15 1   
    23   11   27 1   
    24   11   28 1   
    25   14   20 1   
    26   15   24 1   
    27   15   25 1   
    28   16   17 ar  
    29   16   23 1   
    30   17   26 1   
@<TRIPOS>SUBSTRUCTURE
     1 GJB         1 TEMP              0 ****  ****    0 ROOT
