@<TRIPOS>MOLECULE
GJB
   29    30     1     0     0
SMALL
bcc


@<TRIPOS>ATOM
      1 C           0.0470   -0.0150   -0.0380 c         1 GJB      0.707500
      2 O          -0.5880   -0.0660   -1.1040 o         1 GJB     -0.590500
      3 CA          1.5540    0.0600   -0.0550 c3        1 GJB     -0.236400
      4 CB          2.2450    0.0570    1.2820 c         1 GJB      0.708500
      5 OAC        -0.5540   -0.0590    3.5130 o         1 GJB     -0.614500
      6 CAE        -6.2100   -1.3330    0.1190 ca        1 GJB     -0.129500
      7 CAF        -4.8170   -1.3650    0.1450 ca        1 GJB     -0.123000
      8 CAG        -6.9330   -1.3690    1.3120 ca        1 GJB     -0.128000
      9 CAH        -4.1360   -1.4340    1.3660 ca        1 GJB     -0.087300
     10 CA0         0.0580   -0.0220    2.4260 c         1 GJB      0.816500
     11 CAJ        -2.0830   -0.0670    1.2240 c3        1 GJB      0.095000
     12 NAL        -0.6290   -0.0070    1.1890 n         1 GJB     -0.495400
     13 OAN         3.4820    0.0900    1.3830 o         1 GJB     -0.589500
     14 NAB         1.4640    0.0160    2.4330 ns        1 GJB     -0.594500
     15 CAQ        -2.6490   -1.4810    1.3910 c3        1 GJB     -0.055100
     16 CAP        -6.2590   -1.4370    2.5310 ca        1 GJB     -0.129500
     17 CAO        -4.8650   -1.4700    2.5600 ca        1 GJB     -0.123000
     18 HA1C        1.8500    0.9990   -0.6020 hc        1 GJB      0.126200
     19 HA2C        1.9410   -0.8110   -0.6540 hc        1 GJB      0.126200
     20 HAB         1.9070    0.0160    3.3290 hn        1 GJB      0.358500
     21 HAF        -4.2470   -1.3370   -0.7960 ha        1 GJB      0.137000
     22 HAG        -8.0320   -1.3440    1.2900 ha        1 GJB      0.132000
     23 HAP        -6.8270   -1.4660    3.4730 ha        1 GJB      0.133000
     24 HAQ1       -2.2790   -2.1410    0.5610 hc        1 GJB      0.061200
     25 HAQ2       -2.2890   -1.9150    2.3620 hc        1 GJB      0.061200
     26 HAO        -4.3370   -1.5230    3.5240 ha        1 GJB      0.137000
     27 HAJ1       -2.4670    0.3730    0.2590 h1        1 GJB      0.082700
     28 HAJ2       -2.4350    0.5720    2.0840 h1        1 GJB      0.082700
     29 HAE        -6.7390   -1.2790   -0.8440 ha        1 GJB      0.133000
@<TRIPOS>BOND
     1    1    2 2   
     2    1    3 1   
     3    1   12 1   
     4    3    4 1   
     5    3   18 1   
     6    3   19 1   
     7    4   13 2   
     8    4   14 1   
     9    5   10 2   
    10    6    7 ar  
    11    6    8 ar  
    12    6   29 1   
    13    7    9 ar  
    14    7   21 1   
    15    8   16 ar  
    16    8   22 1   
    17    9   15 1   
    18    9   17 ar  
    19   10   12 1   
    20   10   14 1   
    21   11   12 1   
    22   11   15 1   
    23   11   27 1   
    24   11   28 1   
    25   14   20 1   
    26   15   24 1   
    27   15   25 1   
    28   16   17 ar  
    29   16   23 1   
    30   17   26 1   
@<TRIPOS>SUBSTRUCTURE
     1 GJB         1 TEMP              0 ****  ****    0 ROOT
