@<TRIPOS>MOLECULE
GJB
   29    30     1     0     0
SMALL
bcc


@<TRIPOS>ATOM
      1 C           1.8270   -1.3150   -0.1770 c         1 GJB      0.707500
      2 O           1.1970   -2.3830   -0.2390 o         1 GJB     -0.590500
      3 CA          3.3200   -1.3250    0.0390 c3        1 GJB     -0.236400
      4 CB          3.9950    0.0150    0.1600 c         1 GJB      0.708500
      5 OAC         1.2200    2.2330   -0.2880 o         1 GJB     -0.614500
      6 CAE        -4.5660   -1.1750   -0.0920 ca        1 GJB     -0.129500
      7 CAF        -3.2050   -1.1420    0.2070 ca        1 GJB     -0.123000
      8 CAG        -5.2870    0.0140   -0.2050 ca        1 GJB     -0.128000
      9 CAH        -2.5540    0.0840    0.3960 ca        1 GJB     -0.087300
     10 CA0         1.8300    1.1490   -0.1950 c         1 GJB      0.816500
     11 CAJ        -0.2760   -0.0620   -0.5490 c3        1 GJB      0.095000
     12 NAL         1.1610   -0.0900   -0.3280 n         1 GJB     -0.495400
     13 OAN         5.2140    0.1210    0.3640 o         1 GJB     -0.589500
     14 NAB         3.2170    1.1630    0.0380 n         1 GJB     -0.594500
     15 CAQ        -1.1040    0.1160    0.7280 c3        1 GJB     -0.055100
     16 CAP        -4.6430    1.2370   -0.0180 ca        1 GJB     -0.129500
     17 CAO        -3.2820    1.2730    0.2810 ca        1 GJB     -0.123000
     18 HA1C        3.5340   -1.9140    0.9750 hc        1 GJB      0.126200
     19 HA2C        3.7920   -1.8810   -0.8200 hc        1 GJB      0.126200
     20 HAB         3.6500    2.0610    0.1140 hn        1 GJB      0.358500
     21 HAF        -2.6370   -2.0800    0.2970 ha        1 GJB      0.137000
     22 HAG        -6.3610   -0.0140   -0.4400 ha        1 GJB      0.132000
     23 HAP        -5.2090    2.1760   -0.1060 ha        1 GJB      0.133000
     24 HAQ1       -0.8380    1.0930    1.2130 hc        1 GJB      0.061200
     25 HAQ2       -0.8660   -0.7050    1.4550 hc        1 GJB      0.061200
     26 HAO        -2.7770    2.2400    0.4280 ha        1 GJB      0.137000
     27 HAJ1       -0.5010    0.7900   -1.2530 h1        1 GJB      0.082700
     28 HAJ2       -0.5660   -1.0330   -1.0450 h1        1 GJB      0.082700
     29 HAE        -5.0710   -2.1410   -0.2380 ha        1 GJB      0.133000
@<TRIPOS>BOND
     1    1    2 2   
     2    1    3 1   
     3    1   12 1   
     4    3    4 1   
     5    3   18 1   
     6    3   19 1   
     7    4   13 2   
     8    4   14 1   
     9    5   10 2   
    10    6    7 ar  
    11    6    8 ar  
    12    6   29 1   
    13    7    9 ar  
    14    7   21 1   
    15    8   16 ar  
    16    8   22 1   
    17    9   15 1   
    18    9   17 ar  
    19   10   12 1   
    20   10   14 1   
    21   11   12 1   
    22   11   15 1   
    23   11   27 1   
    24   11   28 1   
    25   14   20 1   
    26   15   24 1   
    27   15   25 1   
    28   16   17 ar  
    29   16   23 1   
    30   17   26 1   
@<TRIPOS>SUBSTRUCTURE
     1 GJB         1 TEMP              0 ****  ****    0 ROOT
