@<TRIPOS>MOLECULE
GJB
   29    25     1     0     0
SMALL
bcc


@<TRIPOS>ATOM
      1 C           2.3910   -0.3690   -1.1350 c1        1 GJB      0.767900
      2 O           1.7920   -0.1730   -2.1720 o         1 GJB     -0.547500
      3 CA          3.9090   -0.4920   -1.1440 c2        1 GJB     -0.215000
      4 CB          4.5300   -0.5020    0.2320 c2        1 GJB      0.648300
      5 OAC         1.7160   -0.2400    2.3690 o         1 GJB     -0.574500
      6 CAE        -3.9560    1.5950   -0.5060 c1        1 GJB     -0.069750
      7 CAF        -2.5780    1.4590   -0.4800 c1        1 GJB     -0.069750
      8 CAG        -4.7640    0.5560   -0.0680 c1        1 GJB     -0.069750
      9 CAH        -2.0060    0.2840   -0.0150 c1        1 GJB     -0.053100
     10 CA0         2.3490   -0.3040    1.3350 c1        1 GJB      0.640500
     11 CAJ         0.2490   -0.7490    0.0790 c3        1 GJB      0.182800
     12 NAL         1.6710   -0.4800    0.0950 n2        1 GJB     -0.669600
     13 OAN         5.7060   -0.7870    0.3660 o         1 GJB     -0.579300
     14 NAB         3.7600   -0.1370    1.3560 n         1 GJB     -0.527500
     15 CAQ        -0.5170    0.5660    0.0370 c3        1 GJB     -0.089300
     16 CAP        -4.1920   -0.6170    0.3960 c1        1 GJB     -0.069750
     17 CAO        -2.8130   -0.7530    0.4230 c1        1 GJB     -0.066500
     18 HA1C        4.0850   -1.3100   -1.6500 ha        1 GJB      0.165500
     19 HA2C        4.3140    0.2670   -1.6120 ha        1 GJB      0.165500
     20 HAB         4.1660    0.2240    2.0910 hn        1 GJB      0.358500
     21 HAE        -4.3590    2.4220   -0.8340 ha        1 GJB      0.075500
     22 HAF        -2.0090    2.1910   -0.7880 ha        1 GJB      0.075500
     23 HAG        -5.7360    0.6520   -0.0870 ha        1 GJB      0.075500
     24 HAP        -4.7610   -1.3500    0.7050 ha        1 GJB      0.075500
     25 HAQ1       -0.3120    1.0880    0.8360 hc        1 GJB      0.060700
     26 HAQ2       -0.2540    1.0700   -0.7570 hc        1 GJB      0.060700
     27 HAO        -2.4090   -1.5810    0.7500 ha        1 GJB      0.081500
     28 HAJ1        0.0010   -1.2460    0.8880 h1        1 GJB      0.082700
     29 HAJ2        0.0260   -1.2820   -0.7120 h1        1 GJB      0.082700
@<TRIPOS>BOND
     1    1    2 2   
     2    1   12 2   
     3    3    4 2   
     4    3   18 1   
     5    3   19 1   
     6    4   13 1   
     7    4   14 1   
     8    5   10 2   
     9    6    7 3   
    10    6   21 1   
    11    7   22 1   
    12    8   16 3   
    13    8   23 1   
    14    9   15 1   
    15    9   17 3   
    16   10   14 2   
    17   11   12 1   
    18   11   15 1   
    19   11   28 1   
    20   11   29 1   
    21   14   20 1   
    22   15   25 1   
    23   15   26 1   
    24   16   24 1   
    25   17   27 1   
@<TRIPOS>SUBSTRUCTURE
     1 GJB         1 TEMP              0 ****  ****    0 ROOT
