@<TRIPOS>MOLECULE
GJB
   29    30     1     0     0
SMALL
bcc


@<TRIPOS>ATOM
      1 C           0.0480   -0.0110   -0.0420 c         1 GJB      0.707500
      2 O          -0.5870   -0.0620   -1.1070 o         1 GJB     -0.590500
      3 CA          1.5550    0.0650   -0.0590 c3        1 GJB     -0.236400
      4 CB          2.2470    0.0620    1.2780 c         1 GJB      0.708500
      5 OAC        -0.5510   -0.0580    3.5090 o         1 GJB     -0.614500
      6 CAE        -6.2070   -1.3310    0.1160 ca        1 GJB     -0.129500
      7 CAF        -4.8140   -1.3620    0.1410 ca        1 GJB     -0.123000
      8 CAG        -6.9300   -1.3720    1.3080 ca        1 GJB     -0.128000
      9 CAH        -4.1330   -1.4350    1.3630 ca        1 GJB     -0.087300
     10 CA0         0.0600   -0.0200    2.4220 c         1 GJB      0.816500
     11 CAJ        -2.0810   -0.0660    1.2210 c3        1 GJB      0.095000
     12 NAL        -0.6280   -0.0050    1.1860 n         1 GJB     -0.495400
     13 OAN         3.4830    0.0960    1.3780 o         1 GJB     -0.589500
     14 NAB         1.4670    0.0190    2.4290 n         1 GJB     -0.594500
     15 CAQ        -2.6460   -1.4810    1.3870 c3        1 GJB     -0.055100
     16 CAP        -6.2560   -1.4440    2.5270 ca        1 GJB     -0.129500
     17 CAO        -4.8630   -1.4760    2.5560 ca        1 GJB     -0.123000
     18 HA1C        1.9420   -0.8060   -0.6590 hc        1 GJB      0.126200
     19 HA2C        1.8500    1.0040   -0.6060 hc        1 GJB      0.126200
     20 HAB         1.9100    0.0190    3.3250 hn        1 GJB      0.358500
     21 HAF        -4.2440   -1.3310   -0.8000 ha        1 GJB      0.137000
     22 HAG        -8.0290   -1.3480    1.2860 ha        1 GJB      0.132000
     23 HAP        -6.8240   -1.4780    3.4680 ha        1 GJB      0.133000
     24 HAQ1       -2.2760   -2.1400    0.5570 hc        1 GJB      0.061200
     25 HAQ2       -2.2860   -1.9150    2.3580 hc        1 GJB      0.061200
     26 HAO        -4.3340   -1.5320    3.5190 ha        1 GJB      0.137000
     27 HAJ1       -2.4330    0.5720    2.0830 h1        1 GJB      0.082700
     28 HAJ2       -2.4660    0.3750    0.2570 h1        1 GJB      0.082700
     29 HAE        -6.7360   -1.2740   -0.8470 ha        1 GJB      0.133000
@<TRIPOS>BOND
     1    1    2 2   
     2    1    3 1   
     3    1   12 1   
     4    3    4 1   
     5    3   18 1   
     6    3   19 1   
     7    4   13 2   
     8    4   14 1   
     9    5   10 2   
    10    6    7 ar  
    11    6    8 ar  
    12    6   29 1   
    13    7    9 ar  
    14    7   21 1   
    15    8   16 ar  
    16    8   22 1   
    17    9   15 1   
    18    9   17 ar  
    19   10   12 1   
    20   10   14 1   
    21   11   12 1   
    22   11   15 1   
    23   11   27 1   
    24   11   28 1   
    25   14   20 1   
    26   15   24 1   
    27   15   25 1   
    28   16   17 ar  
    29   16   23 1   
    30   17   26 1   
@<TRIPOS>SUBSTRUCTURE
     1 GJB         1 TEMP              0 ****  ****    0 ROOT
