@<TRIPOS>MOLECULE
GJW
   37    40     1     0     0
SMALL
bcc


@<TRIPOS>ATOM
      1 C2          0.0410   -0.1160    0.0200 cc        1 GJW     -0.120300
      2 C4          0.7810    0.2490    2.1380 cc        1 GJW     -0.196900
      3 C6         -1.6440   -0.0350    1.9150 ca        1 GJW     -0.040200
      4 C11        -4.0500   -0.3060    1.7610 ca        1 GJW     -0.119000
      5 C12        -4.1710   -0.1300    3.1440 ca        1 GJW     -0.054300
      6 N22        -6.2890   -1.3500    3.5330 n3        1 GJW     -0.716600
      7 C23        -7.6680   -1.2730    4.0280 c3        1 GJW      0.153300
      8 C26        -5.6800   -2.5660    4.0800 c3        1 GJW      0.153300
      9 C1          1.4400    0.0240   -0.0330 cd        1 GJW     -0.207000
     10 N3         -0.3640    0.0210    1.3410 na        1 GJW      0.039800
     11 C5          1.9080    0.2540    1.2990 cd        1 GJW     -0.099000
     12 C7         -1.7570    0.1450    3.3340 ca        1 GJW      0.066600
     13 N8         -0.6250    0.3710    4.1200 n         1 GJW     -0.468100
     14 C9          0.6680    0.4340    3.5850 c         1 GJW      0.746100
     15 C10        -2.8040   -0.2610    1.1510 ca        1 GJW     -0.117000
     16 C13        -3.0380    0.0890    3.9220 ca        1 GJW     -0.165000
     17 O20         1.6310    0.6380    4.3460 o         1 GJW     -0.617500
     18 C21        -5.5280   -0.1340    3.7880 c3        1 GJW      0.206100
     19 C24        -7.9130   -2.3910    5.0550 c3        1 GJW     -0.097900
     20 C25        -6.6300   -3.2080    5.1030 c3        1 GJW     -0.097900
     21 H2         -0.6720   -0.2990   -0.7840 h4        1 GJW      0.173000
     22 H11        -4.9510   -0.4880    1.1540 ha        1 GJW      0.156000
     23 H23        -8.3370   -1.4130    3.1350 h1        1 GJW      0.048450
     24 H23A       -7.9040   -0.2720    4.4790 h1        1 GJW      0.048450
     25 H26        -4.6780   -2.3590    4.5450 h1        1 GJW      0.048450
     26 H26A       -5.5190   -3.2640    3.2130 h1        1 GJW      0.048450
     27 H1          2.0510   -0.0340   -0.9280 ha        1 GJW      0.161000
     28 H5          2.9360    0.4050    1.6200 ha        1 GJW      0.172000
     29 HN8        -0.7410    0.4920    5.1010 hn        1 GJW      0.335500
     30 H10        -2.7270   -0.4030    0.0620 ha        1 GJW      0.143000
     31 H13        -3.1430    0.2220    5.0110 ha        1 GJW      0.141000
     32 H21        -6.1170    0.7240    3.3480 h1        1 GJW      0.041700
     33 H21A       -5.4120    0.0700    4.8940 h1        1 GJW      0.041700
     34 H24        -8.7810   -3.0210    4.7410 hc        1 GJW      0.048200
     35 H24A       -8.1520   -1.9580    6.0560 hc        1 GJW      0.048200
     36 H25        -6.1790   -3.1860    6.1250 hc        1 GJW      0.048200
     37 H25A       -6.8200   -4.2770    4.8390 hc        1 GJW      0.048200
@<TRIPOS>BOND
     1    1    9 2   
     2    1   10 1   
     3    1   21 1   
     4    2   10 1   
     5    2   11 2   
     6    2   14 1   
     7    3   10 1   
     8    3   12 ar  
     9    3   15 ar  
    10    4    5 ar  
    11    4   15 ar  
    12    4   22 1   
    13    5   16 ar  
    14    5   18 1   
    15    6    7 1   
    16    6    8 1   
    17    6   18 1   
    18    7   19 1   
    19    7   23 1   
    20    7   24 1   
    21    8   20 1   
    22    8   25 1   
    23    8   26 1   
    24    9   11 1   
    25    9   27 1   
    26   11   28 1   
    27   12   13 1   
    28   12   16 ar  
    29   13   14 1   
    30   13   29 1   
    31   14   17 2   
    32   15   30 1   
    33   16   31 1   
    34   18   32 1   
    35   18   33 1   
    36   19   20 1   
    37   19   34 1   
    38   19   35 1   
    39   20   36 1   
    40   20   37 1   
@<TRIPOS>SUBSTRUCTURE
     1 GJW         1 TEMP              0 ****  ****    0 ROOT
