@<TRIPOS>MOLECULE
GJW
   37    40     1     0     0
SMALL
bcc


@<TRIPOS>ATOM
      1 C2          0.0370   -0.1190    0.0150 cc        1 GJW     -0.120300
      2 C4          0.7800    0.2460    2.1310 cc        1 GJW     -0.196900
      3 C6         -1.6450   -0.0370    1.9120 ca        1 GJW     -0.040200
      4 C11        -4.0510   -0.3060    1.7610 ca        1 GJW     -0.119000
      5 C12        -4.1710   -0.1300    3.1440 ca        1 GJW     -0.054300
      6 N22        -6.2890   -1.3480    3.5370 n3        1 GJW     -0.716600
      7 C23        -7.6670   -1.2710    4.0340 c3        1 GJW      0.153300
      8 C26        -5.6790   -2.5630    4.0840 c3        1 GJW      0.153300
      9 C1          1.4370    0.0190   -0.0400 cd        1 GJW     -0.207000
     10 N3         -0.3660    0.0180    1.3360 na        1 GJW      0.039800
     11 C5          1.9060    0.2490    1.2910 cd        1 GJW     -0.099000
     12 C7         -1.7560    0.1440    3.3310 ca        1 GJW      0.066600
     13 N8         -0.6230    0.3690    4.1160 ns        1 GJW     -0.468100
     14 C9          0.6690    0.4310    3.5790 c         1 GJW      0.746100
     15 C10        -2.8060   -0.2620    1.1500 ca        1 GJW     -0.117000
     16 C13        -3.0370    0.0890    3.9210 ca        1 GJW     -0.165000
     17 O20         1.6330    0.6350    4.3380 o         1 GJW     -0.617500
     18 C21        -5.5270   -0.1320    3.7900 c3        1 GJW      0.206100
     19 C24        -7.9110   -2.3870    5.0620 c3        1 GJW     -0.097900
     20 C25        -6.6280   -3.2040    5.1100 c3        1 GJW     -0.097900
     21 H2         -0.6770   -0.3030   -0.7880 h4        1 GJW      0.173000
     22 H11        -4.9530   -0.4880    1.1560 ha        1 GJW      0.156000
     23 H23        -7.9020   -0.2690    4.4850 h1        1 GJW      0.048450
     24 H23A       -8.3380   -1.4120    3.1430 h1        1 GJW      0.048450
     25 H26        -4.6770   -2.3560    4.5480 h1        1 GJW      0.048450
     26 H26A       -5.5190   -3.2630    3.2190 h1        1 GJW      0.048450
     27 H1          2.0460   -0.0390   -0.9360 ha        1 GJW      0.161000
     28 H5          2.9350    0.4000    1.6100 ha        1 GJW      0.172000
     29 HN8        -0.7380    0.4920    5.0960 hn        1 GJW      0.335500
     30 H10        -2.7310   -0.4050    0.0610 ha        1 GJW      0.143000
     31 H13        -3.1400    0.2230    5.0100 ha        1 GJW      0.141000
     32 H21        -5.4090    0.0730    4.8960 h1        1 GJW      0.041700
     33 H21A       -6.1160    0.7260    3.3490 h1        1 GJW      0.041700
     34 H24        -8.7790   -3.0170    4.7510 hc        1 GJW      0.048200
     35 H24A       -8.1490   -1.9530    6.0640 hc        1 GJW      0.048200
     36 H25        -6.1750   -3.1810    6.1310 hc        1 GJW      0.048200
     37 H25A       -6.8190   -4.2730    4.8480 hc        1 GJW      0.048200
@<TRIPOS>BOND
     1    1    9 2   
     2    1   10 1   
     3    1   21 1   
     4    2   10 1   
     5    2   11 2   
     6    2   14 1   
     7    3   10 1   
     8    3   12 ar  
     9    3   15 ar  
    10    4    5 ar  
    11    4   15 ar  
    12    4   22 1   
    13    5   16 ar  
    14    5   18 1   
    15    6    7 1   
    16    6    8 1   
    17    6   18 1   
    18    7   19 1   
    19    7   23 1   
    20    7   24 1   
    21    8   20 1   
    22    8   25 1   
    23    8   26 1   
    24    9   11 1   
    25    9   27 1   
    26   11   28 1   
    27   12   13 1   
    28   12   16 ar  
    29   13   14 1   
    30   13   29 1   
    31   14   17 2   
    32   15   30 1   
    33   16   31 1   
    34   18   32 1   
    35   18   33 1   
    36   19   20 1   
    37   19   34 1   
    38   19   35 1   
    39   20   36 1   
    40   20   37 1   
@<TRIPOS>SUBSTRUCTURE
     1 GJW         1 TEMP              0 ****  ****    0 ROOT
