@<TRIPOS>MOLECULE
GJW
   37    40     1     0     0
SMALL
bcc


@<TRIPOS>ATOM
      1 C2         -3.5240   -1.7340   -0.7260 cc        1 GJW     -0.120300
      2 C4         -3.6060    0.3960    0.0610 cc        1 GJW     -0.196900
      3 C6         -1.3850   -0.6410    0.0890 ca        1 GJW     -0.040200
      4 C11         0.8380   -1.6110    0.1460 ca        1 GJW     -0.119000
      5 C12         1.3540   -0.4290    0.6900 ca        1 GJW     -0.054300
      6 N22         3.7050   -0.6200   -0.0610 n3        1 GJW     -0.716600
      7 C23         5.1130   -0.6890    0.3440 c3        1 GJW      0.153300
      8 C26         3.6000    0.3320   -1.1710 c3        1 GJW      0.153300
      9 C1         -4.8580   -1.2960   -0.8130 cd        1 GJW     -0.207000
     10 N3         -2.7580   -0.7060   -0.1940 na        1 GJW      0.039800
     11 C5         -4.9120    0.0440   -0.3190 cd        1 GJW     -0.099000
     12 C7         -0.8660    0.5760    0.6450 ca        1 GJW      0.066600
     13 N8         -1.7050    1.6640    0.8970 n         1 GJW     -0.468100
     14 C9         -3.0790    1.6380    0.6280 c         1 GJW      0.746100
     15 C10        -0.5130   -1.7180   -0.1520 ca        1 GJW     -0.117000
     16 C13         0.5140    0.6530    0.9330 ca        1 GJW     -0.165000
     17 O20        -3.7650    2.6450    0.8770 o         1 GJW     -0.617500
     18 C21         2.8090   -0.3390    1.0530 c3        1 GJW      0.206100
     19 C24         5.9260    0.3680   -0.4220 c3        1 GJW     -0.097900
     20 C25         4.9490    1.0380   -1.3800 c3        1 GJW     -0.097900
     21 H2         -3.0850   -2.6930   -1.0040 h4        1 GJW      0.173000
     22 H11         1.5120   -2.4590   -0.0510 ha        1 GJW      0.156000
     23 H23         5.2460   -0.5540    1.4510 h1        1 GJW      0.048450
     24 H23A        5.4730   -1.7210    0.0790 h1        1 GJW      0.048450
     25 H26         3.3330   -0.2660   -2.0850 h1        1 GJW      0.048450
     26 H26A        2.7820    1.0840   -1.0010 h1        1 GJW      0.048450
     27 H1         -5.6940   -1.8770   -1.1900 ha        1 GJW      0.161000
     28 H5         -5.7880    0.6840   -0.2430 ha        1 GJW      0.172000
     29 HN8        -1.3100    2.4910    1.2840 hn        1 GJW      0.335500
     30 H10        -0.9010   -2.6550   -0.5810 ha        1 GJW      0.143000
     31 H13         0.9300    1.5810    1.3570 ha        1 GJW      0.141000
     32 H21         3.0110    0.6730    1.5160 h1        1 GJW      0.041700
     33 H21A        3.0110   -1.1180    1.8460 h1        1 GJW      0.041700
     34 H24         6.3680    1.1110    0.2850 hc        1 GJW      0.048200
     35 H24A        6.7660   -0.1160   -0.9760 hc        1 GJW      0.048200
     36 H25         5.2840    0.9300   -2.4400 hc        1 GJW      0.048200
     37 H25A        4.8590    2.1300   -1.1610 hc        1 GJW      0.048200
@<TRIPOS>BOND
     1    1    9 2   
     2    1   10 1   
     3    1   21 1   
     4    2   10 1   
     5    2   11 2   
     6    2   14 1   
     7    3   10 1   
     8    3   12 ar  
     9    3   15 ar  
    10    4    5 ar  
    11    4   15 ar  
    12    4   22 1   
    13    5   16 ar  
    14    5   18 1   
    15    6    7 1   
    16    6    8 1   
    17    6   18 1   
    18    7   19 1   
    19    7   23 1   
    20    7   24 1   
    21    8   20 1   
    22    8   25 1   
    23    8   26 1   
    24    9   11 1   
    25    9   27 1   
    26   11   28 1   
    27   12   13 1   
    28   12   16 ar  
    29   13   14 1   
    30   13   29 1   
    31   14   17 2   
    32   15   30 1   
    33   16   31 1   
    34   18   32 1   
    35   18   33 1   
    36   19   20 1   
    37   19   34 1   
    38   19   35 1   
    39   20   36 1   
    40   20   37 1   
@<TRIPOS>SUBSTRUCTURE
     1 GJW         1 TEMP              0 ****  ****    0 ROOT
