@<TRIPOS>MOLECULE
GJW
   37    32     1     0     0
SMALL
bcc


@<TRIPOS>ATOM
      1 C2          3.8730    0.5670   -2.6640 c1        1 GJW     -0.124000
      2 C4          4.5510    0.4980   -0.5410 c1        1 GJW     -0.124000
      3 C6          2.1220    0.4970   -0.7570 c1        1 GJW      0.005000
      4 C11        -0.2990    0.3620   -1.0280 c1        1 GJW     -0.118000
      5 C12        -0.4520    0.3040    0.3720 c1        1 GJW     -0.047000
      6 N22        -2.7390   -0.5560    0.5490 n3        1 GJW     -0.242000
      7 C23        -4.0660    0.1460   -0.0080 c3        1 GJW     -0.083500
      8 C26        -3.1240   -1.3310    1.5320 c3        1 GJW     -0.083500
      9 C1          5.2560    0.5630   -2.6670 c1        1 GJW     -0.153000
     10 N3          3.4450    0.5260   -1.3440 n2        1 GJW     -0.054000
     11 C5          5.6820    0.5210   -1.3640 c1        1 GJW     -0.153000
     12 C7          1.9700    0.4390    0.6420 c1        1 GJW      0.074000
     13 N8          3.1380    0.4100    1.4960 n2        1 GJW     -0.322000
     14 C9          4.3950    0.4060    0.9380 c1        1 GJW      0.383000
     15 C10         0.9840    0.4580   -1.5920 c1        1 GJW     -0.118000
     16 C13         0.6810    0.3420    1.2070 c2        1 GJW     -0.165000
     17 O20         5.3840    0.3240    1.6550 o         1 GJW     -0.342000
     18 C21        -1.8360    0.4520    1.0580 c3        1 GJW     -0.038000
     19 C24        -5.0330   -0.7740    0.0580 c3        1 GJW     -0.176500
     20 C25        -4.6140   -1.7090    1.2000 c3        1 GJW     -0.176500
     21 H2          3.2910    0.5930   -3.4620 DU        1 GJW      0.168667
     22 H11        -1.1050    0.3340   -1.6220 ha        1 GJW      0.149500
     23 H23        -4.2990    0.9210    0.5500 h1        1 GJW      0.087750
     24 H23A       -3.9310    0.4300   -0.9470 h1        1 GJW      0.087750
     25 H26        -3.0780   -0.8480    2.3830 h1        1 GJW      0.087750
     26 H26A       -2.5710   -2.1330    1.5670 h1        1 GJW      0.087750
     27 H1          5.8300    0.6140   -3.4590 DU        1 GJW      0.168667
     28 H5          6.6110    0.5090   -1.0630 DU        1 GJW      0.168667
     29 HN8         3.0410    0.4830    2.4100 hn        1 GJW      0.249000
     30 H10         1.0880    0.4970   -2.5530 ha        1 GJW      0.149500
     31 H13         0.5750    0.3020    2.1760 ha        1 GJW      0.141000
     32 H21        -1.7330    0.3380    2.0320 h1        1 GJW      0.081000
     33 H21A       -2.2000    1.3430    0.8700 h1        1 GJW      0.081000
     34 H24        -5.0890   -1.2690   -0.7840 hc        1 GJW      0.087500
     35 H24A       -5.8900   -0.3510    0.2640 hc        1 GJW      0.087500
     36 H25        -5.1870   -1.5610    1.9880 hc        1 GJW      0.087500
     37 H25A       -4.6690   -2.6440    0.9100 hc        1 GJW      0.087500
@<TRIPOS>BOND
     1    1    9 1   
     2    1   10 1   
     3    2   10 1   
     4    2   11 1   
     5    3   12 1   
     6    4   15 1   
     7    4   22 1   
     8    5   16 1   
     9    5   18 1   
    10    6    7 1   
    11    6    8 1   
    12    6   18 1   
    13    7   19 1   
    14    7   23 1   
    15    7   24 1   
    16    8   20 1   
    17    8   25 1   
    18    8   26 1   
    19    9   11 1   
    20   12   16 1   
    21   13   14 1   
    22   13   29 1   
    23   14   17 1   
    24   15   30 1   
    25   16   31 1   
    26   18   32 1   
    27   18   33 1   
    28   19   20 1   
    29   19   34 1   
    30   19   35 1   
    31   20   36 1   
    32   20   37 1   
@<TRIPOS>SUBSTRUCTURE
     1 GJW         1 TEMP              0 ****  ****    0 ROOT
