@<TRIPOS>MOLECULE
GJZ
   21    22     1     0     0
SMALL
bcc


@<TRIPOS>ATOM
      1 N1          3.3580    0.4400    0.8870 n3        1 GJZ     -0.880800
      2 C2          1.1940    0.3050   -0.4940 cx        1 GJZ     -0.076400
      3 C3          2.2180   -0.2960    0.4620 cx        1 GJZ      0.130500
      4 C4          2.0320   -0.8700   -0.9290 cx        1 GJZ     -0.177400
      5 C5         -0.2410    0.1570   -0.2180 ca        1 GJZ     -0.044300
      6 C6         -1.1010    1.2390   -0.4600 ca        1 GJZ     -0.125500
      7 C7         -0.7780   -1.0360    0.2830 ca        1 GJZ     -0.125500
      8 C8         -2.4660    1.1260   -0.2080 ca        1 GJZ     -0.127500
      9 C9         -2.1450   -1.1460    0.5340 ca        1 GJZ     -0.127500
     10 C10        -2.9920   -0.0660    0.2900 ca        1 GJZ     -0.132000
     11 HN1         4.0990   -0.1820    1.1440 hn        1 GJZ      0.353800
     12 HN1A        3.6810    1.0690    0.1780 hn        1 GJZ      0.353800
     13 H2          1.4380    1.2880   -0.9520 hc        1 GJZ      0.083700
     14 H3          1.8160   -0.8980    1.3100 h1        1 GJZ      0.096700
     15 H4          1.5580   -1.8610   -1.0360 hc        1 GJZ      0.073200
     16 H4A         2.8030   -0.6980   -1.7010 hc        1 GJZ      0.073200
     17 H6         -0.6930    2.1830   -0.8500 ha        1 GJZ      0.130000
     18 H7         -0.1180   -1.8940    0.4810 ha        1 GJZ      0.130000
     19 H8         -3.1300    1.9820   -0.4010 ha        1 GJZ      0.130500
     20 H9         -2.5540   -2.0880    0.9280 ha        1 GJZ      0.130500
     21 H10        -4.0700   -0.1530    0.4890 ha        1 GJZ      0.131000
@<TRIPOS>BOND
     1    1    3 1   
     2    1   11 1   
     3    1   12 1   
     4    2    3 1   
     5    2    4 1   
     6    2    5 1   
     7    2   13 1   
     8    3    4 1   
     9    3   14 1   
    10    4   15 1   
    11    4   16 1   
    12    5    6 ar  
    13    5    7 ar  
    14    6    8 ar  
    15    6   17 1   
    16    7    9 ar  
    17    7   18 1   
    18    8   10 ar  
    19    8   19 1   
    20    9   10 ar  
    21    9   20 1   
    22   10   21 1   
@<TRIPOS>SUBSTRUCTURE
     1 GJZ         1 TEMP              0 ****  ****    0 ROOT
