@<TRIPOS>MOLECULE
GJZ
   22    23     1     0     0
SMALL
bcc


@<TRIPOS>ATOM
      1 N1          0.0930    0.0060   -0.1980 nz        1 GJZ     -0.797600
      2 C2          2.1800    0.0290    1.3670 cx        1 GJZ      0.000600
      3 C3          1.5400   -0.1610   -0.0090 cx        1 GJZ     -0.033500
      4 C4          2.1000   -1.3410    0.7510 cx        1 GJZ     -0.096400
      5 C5          3.4380    0.7790    1.4560 ca        1 GJZ     -0.120300
      6 C6          3.6060    1.7010    2.5000 ca        1 GJZ     -0.109000
      7 C7          4.4750    0.5900    0.5330 ca        1 GJZ     -0.109000
      8 C8          4.7940    2.4200    2.6150 ca        1 GJZ     -0.117500
      9 C9          5.6600    1.3120    0.6510 ca        1 GJZ     -0.117500
     10 C10         5.8220    2.2280    1.6910 ca        1 GJZ     -0.091000
     11 HN1        -0.4210   -0.3340    0.6220 hn        1 GJZ      0.460133
     12 HN1A       -0.1200    1.0010   -0.3350 hn        1 GJZ      0.460133
     13 H3          2.0890    0.2160   -0.9060 hx        1 GJZ      0.153700
     14 H4          1.4180   -2.0840    1.2060 hc        1 GJZ      0.114700
     15 H4A         3.0130   -1.8210    0.3450 hc        1 GJZ      0.114700
     16 H6          2.8050    1.8530    3.2390 ha        1 GJZ      0.130000
     17 H7          4.3640   -0.1370   -0.2860 ha        1 GJZ      0.130000
     18 H8          4.9210    3.1390    3.4400 ha        1 GJZ      0.154000
     19 H9          6.4720    1.1550   -0.0760 ha        1 GJZ      0.154000
     20 H10         6.7610    2.7960    1.7850 ha        1 GJZ      0.156000
     21 H13        -0.2110   -0.5210   -1.0240 hn        1 GJZ      0.460133
     22 H2          1.5020    0.2250    2.2290 hc        1 GJZ      0.101700
@<TRIPOS>BOND
     1    1    3 1   
     2    1   11 1   
     3    1   12 1   
     4    1   21 1   
     5    2    3 1   
     6    2    4 1   
     7    2    5 1   
     8    2   22 1   
     9    3    4 1   
    10    3   13 1   
    11    4   14 1   
    12    4   15 1   
    13    5    6 ar  
    14    5    7 ar  
    15    6    8 ar  
    16    6   16 1   
    17    7    9 ar  
    18    7   17 1   
    19    8   10 ar  
    20    8   18 1   
    21    9   10 ar  
    22    9   19 1   
    23   10   20 1   
@<TRIPOS>SUBSTRUCTURE
     1 GJZ         1 TEMP              0 ****  ****    0 ROOT
