@<TRIPOS>MOLECULE
GJZ
   22    23     1     0     0
SMALL
bcc


@<TRIPOS>ATOM
      1 N1          0.0870    0.0130   -0.1870 n4        1 GJZ     -0.797600
      2 C2          2.1820    0.0260    1.3680 cx        1 GJZ      0.000600
      3 C3          1.5350   -0.1550   -0.0060 cx        1 GJZ     -0.033500
      4 C4          2.0990   -1.3390    0.7440 cx        1 GJZ     -0.096400
      5 C5          3.4400    0.7760    1.4550 ca        1 GJZ     -0.120300
      6 C6          3.6140    1.6910    2.5040 ca        1 GJZ     -0.109000
      7 C7          4.4720    0.5930    0.5250 ca        1 GJZ     -0.109000
      8 C8          4.8020    2.4100    2.6170 ca        1 GJZ     -0.117500
      9 C9          5.6580    1.3150    0.6410 ca        1 GJZ     -0.117500
     10 C10         5.8250    2.2240    1.6870 ca        1 GJZ     -0.091000
     11 HN1        -0.1270    1.0080   -0.3170 hn        1 GJZ      0.460133
     12 HN1A       -0.4220   -0.3320    0.6340 hn        1 GJZ      0.460133
     13 H3          2.0800    0.2270   -0.9040 hx        1 GJZ      0.153700
     14 H4          1.4200   -2.0860    1.1980 hc        1 GJZ      0.114700
     15 H4A         3.0100   -1.8170    0.3300 hc        1 GJZ      0.114700
     16 H6          2.8160    1.8390    3.2480 ha        1 GJZ      0.130000
     17 H7          4.3580   -0.1290   -0.2980 ha        1 GJZ      0.130000
     18 H8          4.9340    3.1240    3.4460 ha        1 GJZ      0.154000
     19 H9          6.4670    1.1630   -0.0910 ha        1 GJZ      0.154000
     20 H10         6.7650    2.7920    1.7790 ha        1 GJZ      0.156000
     21 H13        -0.2220   -0.5100   -1.0140 hn        1 GJZ      0.460133
     22 H2          1.5090    0.2170    2.2350 hc        1 GJZ      0.101700
@<TRIPOS>BOND
     1    1    3 1   
     2    1   11 1   
     3    1   12 1   
     4    1   21 1   
     5    2    3 1   
     6    2    4 1   
     7    2    5 1   
     8    2   22 1   
     9    3    4 1   
    10    3   13 1   
    11    4   14 1   
    12    4   15 1   
    13    5    6 ar  
    14    5    7 ar  
    15    6    8 ar  
    16    6   16 1   
    17    7    9 ar  
    18    7   17 1   
    19    8   10 ar  
    20    8   18 1   
    21    9   10 ar  
    22    9   19 1   
    23   10   20 1   
@<TRIPOS>SUBSTRUCTURE
     1 GJZ         1 TEMP              0 ****  ****    0 ROOT
