@<TRIPOS>MOLECULE
GJZ
   22    23     1     0     0
SMALL
bcc


@<TRIPOS>ATOM
      1 N1          0.0760   -0.1450   -0.0870 n4        1 GJZ     -0.797600
      2 C2          2.1830    1.2890    0.4720 cx        1 GJZ      0.000600
      3 C3          1.5250   -0.0510    0.1360 cx        1 GJZ     -0.033500
      4 C4          2.0890    0.2080    1.5140 cx        1 GJZ     -0.096400
      5 C5          3.4440    1.6340   -0.1920 ca        1 GJZ     -0.120300
      6 C6          3.6300    2.9440   -0.6580 ca        1 GJZ     -0.109000
      7 C7          4.4690    0.6930   -0.3610 ca        1 GJZ     -0.109000
      8 C8          4.8220    3.3030   -1.2830 ca        1 GJZ     -0.117500
      9 C9          5.6590    1.0560   -0.9890 ca        1 GJZ     -0.117500
     10 C10         5.8380    2.3610   -1.4510 ca        1 GJZ     -0.091000
     11 HN1        -0.1340    0.1010   -1.0620 hn        1 GJZ      0.460133
     12 HN1A       -0.4280    0.4960    0.5340 hn        1 GJZ      0.460133
     13 H2          1.5160    2.1710    0.6120 hc        1 GJZ      0.101700
     14 H3          2.0650   -0.7500   -0.5470 hx        1 GJZ      0.153700
     15 H4          2.9950   -0.3590    1.8080 hc        1 GJZ      0.114700
     16 H4A         1.4100    0.3630    2.3750 hc        1 GJZ      0.114700
     17 H6          2.8380    3.6970   -0.5230 ha        1 GJZ      0.130000
     18 H7          4.3450   -0.3360    0.0080 ha        1 GJZ      0.130000
     19 H8          4.9630    4.3350   -1.6430 ha        1 GJZ      0.154000
     20 H9          6.4610    0.3120   -1.1150 ha        1 GJZ      0.154000
     21 H10         6.7800    2.6470   -1.9440 ha        1 GJZ      0.156000
     22 H13        -0.2400   -1.1040    0.0950 hn        1 GJZ      0.460133
@<TRIPOS>BOND
     1    1    3 1   
     2    1   11 1   
     3    1   12 1   
     4    1   22 1   
     5    2    3 1   
     6    2    4 1   
     7    2    5 1   
     8    2   13 1   
     9    3    4 1   
    10    3   14 1   
    11    4   15 1   
    12    4   16 1   
    13    5    6 ar  
    14    5    7 ar  
    15    6    8 ar  
    16    6   17 1   
    17    7    9 ar  
    18    7   18 1   
    19    8   10 ar  
    20    8   19 1   
    21    9   10 ar  
    22    9   20 1   
    23   10   21 1   
@<TRIPOS>SUBSTRUCTURE
     1 GJZ         1 TEMP              0 ****  ****    0 ROOT
