@<TRIPOS>MOLECULE
GJZ
   21    20     1     0     0
SMALL
bcc


@<TRIPOS>ATOM
      1 N1         -2.1310    0.5240    2.5450 n3        1 GJZ     -0.328000
      2 C2         -0.7540   -0.6250    0.7950 cx        1 GJZ     -0.121000
      3 C3         -1.5760    0.5840    1.2220 cx        1 GJZ     -0.094000
      4 C4         -2.1470   -0.4110    0.2210 cx        1 GJZ     -0.192000
      5 C5          0.4120   -0.3340   -0.1600 c2        1 GJZ     -0.049000
      6 C6          0.3530   -0.7660   -1.4810 c2        1 GJZ     -0.124000
      7 C7          1.5510    0.3140    0.3090 c1        1 GJZ     -0.124000
      8 C8          1.4320   -0.5510   -2.3320 c1        1 GJZ     -0.130000
      9 C9          2.6290    0.5290   -0.5420 c1        1 GJZ     -0.131000
     10 C10         2.5700    0.0960   -1.8620 c1        1 GJZ     -0.131000
     11 HN1        -1.6430    1.0610    3.1060 hn        1 GJZ      0.152000
     12 HN1A       -3.0020    0.8150    2.5250 hn        1 GJZ      0.152000
     13 H2         -0.6730   -1.3430    1.4620 hc        1 GJZ      0.141000
     14 H3         -1.2900    1.4480    0.8490 h1        1 GJZ      0.093000
     15 H4         -2.1820   -0.1050   -0.7110 hc        1 GJZ      0.115000
     16 H4A        -2.8470   -1.0080    0.5660 hc        1 GJZ      0.115000
     17 H6         -0.4490   -1.2230   -1.8120 ha        1 GJZ      0.133000
     18 H7          1.5920    0.6180    1.2390 ha        1 GJZ      0.133000
     19 H8          1.3910   -0.8570   -3.2640 ha        1 GJZ      0.130000
     20 H9          3.4320    0.9850   -0.2110 ha        1 GJZ      0.130000
     21 H10         3.3310    0.2480   -2.4630 ha        1 GJZ      0.130000
@<TRIPOS>BOND
     1    1    3 1   
     2    1   11 1   
     3    1   12 1   
     4    2    3 1   
     5    2    4 1   
     6    2    5 1   
     7    2   13 1   
     8    3    4 1   
     9    3   14 1   
    10    4   15 1   
    11    4   16 1   
    12    5    6 1   
    13    5    7 1   
    14    6    8 1   
    15    6   17 1   
    16    7   18 1   
    17    8   19 1   
    18    9   10 1   
    19    9   20 1   
    20   10   21 1   
@<TRIPOS>SUBSTRUCTURE
     1 GJZ         1 TEMP              0 ****  ****    0 ROOT
