@<TRIPOS>MOLECULE
GK1
   41    44     1     0     0
SMALL
bcc


@<TRIPOS>ATOM
      1 O2         -0.2440    0.3470    0.0210 o         1 GK1     -0.522100
      2 C20         0.9640    0.1100    0.0310 c         1 GK1      0.501400
      3 C19         1.7890    0.2750    1.2440 cc        1 GK1      0.250900
      4 S           1.1710    0.8120    2.7470 ss        1 GK1      0.062700
      5 C18         2.6600    0.6970    3.4420 cc        1 GK1     -0.271400
      6 N3          3.1070    0.0090    1.2520 nd        1 GK1     -0.587000
      7 C17         3.6190    0.2490    2.5170 cd        1 GK1      0.389800
      8 C13         5.0300    0.0490    2.8370 ca        1 GK1     -0.113500
      9 C12         6.0120    0.2340    1.8870 ca        1 GK1     -0.133300
     10 C14         5.3850   -0.3420    4.1550 ca        1 GK1     -0.124000
     11 C15         6.7020   -0.5200    4.4990 ca        1 GK1     -0.111000
     12 C16         7.7410   -0.3170    3.5550 ca        1 GK1     -0.167300
     13 C11         7.3940    0.0540    2.2200 ca        1 GK1      0.411600
     14 N2          8.3380    0.2430    1.2280 nb        1 GK1     -0.679000
     15 C10         9.6070    0.0760    1.5540 ca        1 GK1      0.441200
     16 C9         10.0720   -0.2720    2.8520 ca        1 GK1     -0.326300
     17 C8          9.1480   -0.4780    3.8720 ca        1 GK1      0.207600
     18 N1          9.5140   -0.8450    5.1690 nh        1 GK1     -0.638000
     19 C7         10.8280   -1.1890    5.5350 ca        1 GK1      0.181600
     20 C2         11.4010   -0.6770    6.7280 ca        1 GK1     -0.157300
     21 C1         10.6740    0.2980    7.5740 c3        1 GK1     -0.049800
     22 C6         11.5570   -2.1190    4.7630 ca        1 GK1     -0.240000
     23 C5         12.8300   -2.5180    5.1800 ca        1 GK1      0.145100
     24 O1         13.5870   -3.4180    4.4660 oh        1 GK1     -0.495100
     25 C4         13.4020   -2.0150    6.3590 ca        1 GK1     -0.174000
     26 C3         12.6750   -1.1060    7.1140 ca        1 GK1     -0.072000
     27 H20         1.5090   -0.2440   -0.8730 h4        1 GK1      0.039200
     28 H18         2.8830    0.9460    4.4790 h4        1 GK1      0.188000
     29 H12         5.7530    0.5220    0.8540 ha        1 GK1      0.169000
     30 H14         4.5900   -0.5150    4.8950 ha        1 GK1      0.135000
     31 H15         6.9360   -0.8460    5.5230 ha        1 GK1      0.132000
     32 H10        10.3430    0.2350    0.7440 h4        1 GK1      0.023100
     33 H9         11.1540   -0.3560    3.0220 ha        1 GK1      0.155000
     34 H1          8.9600   -0.4480    5.8990 hn        1 GK1      0.433800
     35 H11        11.3190    0.6600    8.4130 hc        1 GK1      0.042700
     36 H12A       10.3570    1.1890    6.9760 hc        1 GK1      0.042700
     37 H13         9.7610   -0.1710    8.0240 hc        1 GK1      0.042700
     38 H6         11.1230   -2.5420    3.8450 ha        1 GK1      0.148000
     39 H1A        13.0680   -3.7090    3.7020 ho        1 GK1      0.422000
     40 H4         14.4040   -2.3450    6.6650 ha        1 GK1      0.154000
     41 H3         13.1140   -0.7070    8.0430 ha        1 GK1      0.137000
@<TRIPOS>BOND
     1    1    2 2   
     2    2    3 1   
     3    2   27 1   
     4    3    4 1   
     5    3    6 2   
     6    4    5 1   
     7    5    7 2   
     8    5   28 1   
     9    6    7 1   
    10    7    8 1   
    11    8    9 ar  
    12    8   10 ar  
    13    9   13 ar  
    14    9   29 1   
    15   10   11 ar  
    16   10   30 1   
    17   11   12 ar  
    18   11   31 1   
    19   12   13 ar  
    20   12   17 ar  
    21   13   14 ar  
    22   14   15 ar  
    23   15   16 ar  
    24   15   32 1   
    25   16   17 ar  
    26   16   33 1   
    27   17   18 1   
    28   18   19 1   
    29   18   34 1   
    30   19   20 ar  
    31   19   22 ar  
    32   20   21 1   
    33   20   26 ar  
    34   21   35 1   
    35   21   36 1   
    36   21   37 1   
    37   22   23 ar  
    38   22   38 1   
    39   23   24 1   
    40   23   25 ar  
    41   24   39 1   
    42   25   26 ar  
    43   25   40 1   
    44   26   41 1   
@<TRIPOS>SUBSTRUCTURE
     1 GK1         1 TEMP              0 ****  ****    0 ROOT
