@<TRIPOS>MOLECULE
GK1
   42    45     1     0     0
SMALL
bcc


@<TRIPOS>ATOM
      1 O2          0.5820   -1.2880   -0.6090 o         1 GK1     -0.499100
      2 C20         1.7820   -1.0610   -0.4700 c         1 GK1      0.497400
      3 C19         2.3710   -0.7850    0.8610 cc        1 GK1      0.252900
      4 S           1.4590   -0.7350    2.3070 ss        1 GK1      0.133700
      5 C18         2.8030   -0.4050    3.1920 cc        1 GK1     -0.274400
      6 N3          3.6840   -0.5510    1.0270 nd        1 GK1     -0.586000
      7 C17         3.9430   -0.3330    2.3720 cd        1 GK1      0.350800
      8 C13         5.2900   -0.0520    2.8550 ca        1 GK1     -0.080500
      9 C12         6.2220    0.5730    2.0490 ca        1 GK1     -0.115300
     10 C14         5.6460   -0.4370    4.1750 ca        1 GK1     -0.062000
     11 C15         6.9040   -0.1890    4.6680 ca        1 GK1     -0.169000
     12 C16         7.8820    0.4620    3.8760 ca        1 GK1     -0.133300
     13 C11         7.5400    0.8470    2.5360 ca        1 GK1      0.405600
     14 N2          8.4380    1.4700    1.6920 nb        1 GK1     -0.589000
     15 C10         9.6520    1.7210    2.1390 ca        1 GK1      0.415200
     16 C9         10.1060    1.3920    3.4550 ca        1 GK1     -0.193300
     17 C8          9.2140    0.7730    4.3110 ca        1 GK1     -0.000400
     18 N1          9.6410    0.4540    5.6820 n4        1 GK1     -0.506800
     19 C7         10.4620   -0.7650    5.7700 ca        1 GK1     -0.015400
     20 C2         11.7950   -0.6880    6.2220 ca        1 GK1     -0.087300
     21 C1         12.4350    0.5930    6.6020 c3        1 GK1     -0.080800
     22 C6          9.8750   -1.9870    5.4090 ca        1 GK1     -0.140000
     23 C5         10.6410   -3.1580    5.5170 ca        1 GK1      0.159100
     24 O1         10.0080   -4.3170    5.1600 oh        1 GK1     -0.472100
     25 C4         11.9700   -3.1060    5.9700 ca        1 GK1     -0.161000
     26 C3         12.5270   -1.8810    6.3130 ca        1 GK1     -0.066000
     27 H20         2.4970   -1.0480   -1.3210 h4        1 GK1      0.048200
     28 H18         2.8100   -0.2470    4.2700 h4        1 GK1      0.187000
     29 H12         5.9680    0.8700    1.0140 ha        1 GK1      0.194000
     30 H14         4.8990   -0.9540    4.8010 ha        1 GK1      0.158000
     31 H15         7.1300   -0.5250    5.6910 ha        1 GK1      0.122000
     32 H10        10.3490    2.2190    1.4340 h4        1 GK1      0.060100
     33 H9         11.1410    1.6390    3.7370 ha        1 GK1      0.165000
     34 H1          8.8080    0.3260    6.2740 hn        1 GK1      0.462800
     35 H11        11.9160    1.0580    7.4790 hc        1 GK1      0.064033
     36 H12A       13.5040    0.4310    6.8970 hc        1 GK1      0.064033
     37 H13        12.4310    1.3150    5.7470 hc        1 GK1      0.064033
     38 H6          8.8400   -2.0550    5.0340 ha        1 GK1      0.180000
     39 H1A        10.6320   -5.0550    5.2570 ho        1 GK1      0.446000
     40 H4         12.5650   -4.0300    6.0500 ha        1 GK1      0.169000
     41 H3         13.5720   -1.8420    6.6680 ha        1 GK1      0.169000
     42 H121       10.1810    1.2510    6.0470 hn        1 GK1      0.462800
@<TRIPOS>BOND
     1    1    2 2   
     2    2    3 1   
     3    2   27 1   
     4    3    4 1   
     5    3    6 2   
     6    4    5 1   
     7    5    7 2   
     8    5   28 1   
     9    6    7 1   
    10    7    8 1   
    11    8    9 ar  
    12    8   10 ar  
    13    9   13 ar  
    14    9   29 1   
    15   10   11 ar  
    16   10   30 1   
    17   11   12 ar  
    18   11   31 1   
    19   12   13 ar  
    20   12   17 ar  
    21   13   14 ar  
    22   14   15 ar  
    23   15   16 ar  
    24   15   32 1   
    25   16   17 ar  
    26   16   33 1   
    27   17   18 1   
    28   18   19 1   
    29   18   34 1   
    30   18   42 1   
    31   19   20 ar  
    32   19   22 ar  
    33   20   21 1   
    34   20   26 ar  
    35   21   35 1   
    36   21   36 1   
    37   21   37 1   
    38   22   23 ar  
    39   22   38 1   
    40   23   24 1   
    41   23   25 ar  
    42   24   39 1   
    43   25   26 ar  
    44   25   40 1   
    45   26   41 1   
@<TRIPOS>SUBSTRUCTURE
     1 GK1         1 TEMP              0 ****  ****    0 ROOT
