@<TRIPOS>MOLECULE
GK1
   41    44     1     0     0
SMALL
bcc


@<TRIPOS>ATOM
      1 O2         -0.2440    0.3280    0.0160 o         1 GK1     -0.522100
      2 C20         0.9640    0.0900    0.0270 c         1 GK1      0.501400
      3 C19         1.7900    0.2620    1.2390 cc        1 GK1      0.250900
      4 S           1.1710    0.8080    2.7390 ss        1 GK1      0.062700
      5 C18         2.6610    0.6960    3.4350 cc        1 GK1     -0.271400
      6 N3          3.1070   -0.0040    1.2480 nd        1 GK1     -0.587000
      7 C17         3.6190    0.2420    2.5130 cd        1 GK1      0.389800
      8 C13         5.0300    0.0440    2.8330 ca        1 GK1     -0.113500
      9 C12         6.0120    0.2230    1.8820 ca        1 GK1     -0.133300
     10 C14         5.3850   -0.3400    4.1540 ca        1 GK1     -0.124000
     11 C15         6.7020   -0.5170    4.4990 ca        1 GK1     -0.111000
     12 C16         7.7410   -0.3200    3.5540 ca        1 GK1     -0.167300
     13 C11         7.3940    0.0430    2.2160 ca        1 GK1      0.411600
     14 N2          8.3390    0.2260    1.2230 nb        1 GK1     -0.679000
     15 C10         9.6070    0.0600    1.5510 ca        1 GK1      0.441200
     16 C9         10.0720   -0.2810    2.8500 ca        1 GK1     -0.326300
     17 C8          9.1470   -0.4800    3.8720 ca        1 GK1      0.207600
     18 N1          9.5130   -0.8390    5.1710 nu        1 GK1     -0.637000
     19 C7         10.8280   -1.1810    5.5390 ca        1 GK1      0.181600
     20 C2         11.4000   -0.6610    6.7290 ca        1 GK1     -0.157300
     21 C1         10.6730    0.3190    7.5690 c3        1 GK1     -0.049800
     22 C6         11.5570   -2.1170    4.7740 ca        1 GK1     -0.240000
     23 C5         12.8290   -2.5130    5.1930 ca        1 GK1      0.145100
     24 O1         13.5870   -3.4170    4.4850 oh        1 GK1     -0.495100
     25 C4         13.4020   -2.0020    6.3690 ca        1 GK1     -0.174000
     26 C3         12.6740   -1.0880    7.1180 ca        1 GK1     -0.072000
     27 H20         1.5090   -0.2690   -0.8750 h4        1 GK1      0.039200
     28 H18         2.8840    0.9510    4.4700 h4        1 GK1      0.188000
     29 H12         5.7530    0.5050    0.8480 ha        1 GK1      0.169000
     30 H14         4.5890   -0.5080    4.8950 ha        1 GK1      0.135000
     31 H15         6.9360   -0.8370    5.5250 ha        1 GK1      0.132000
     32 H10        10.3440    0.2130    0.7390 h4        1 GK1      0.023100
     33 H9         11.1540   -0.3640    3.0210 ha        1 GK1      0.155000
     34 H1          8.9600   -0.4380    5.8980 hn        1 GK1      0.433800
     35 H11         9.7610   -0.1470    8.0210 hc        1 GK1      0.042700
     36 H12A       11.3190    0.6860    8.4050 hc        1 GK1      0.042700
     37 H13        10.3570    1.2060    6.9650 hc        1 GK1      0.042700
     38 H6         11.1220   -2.5450    3.8580 ha        1 GK1      0.148000
     39 H1A        13.0680   -3.7130    3.7230 ho        1 GK1      0.422000
     40 H4         14.4040   -2.3310    6.6760 ha        1 GK1      0.154000
     41 H3         13.1140   -0.6830    8.0440 ha        1 GK1      0.137000
@<TRIPOS>BOND
     1    1    2 2   
     2    2    3 1   
     3    2   27 1   
     4    3    4 1   
     5    3    6 2   
     6    4    5 1   
     7    5    7 2   
     8    5   28 1   
     9    6    7 1   
    10    7    8 1   
    11    8    9 ar  
    12    8   10 ar  
    13    9   13 ar  
    14    9   29 1   
    15   10   11 ar  
    16   10   30 1   
    17   11   12 ar  
    18   11   31 1   
    19   12   13 ar  
    20   12   17 ar  
    21   13   14 ar  
    22   14   15 ar  
    23   15   16 ar  
    24   15   32 1   
    25   16   17 ar  
    26   16   33 1   
    27   17   18 1   
    28   18   19 1   
    29   18   34 1   
    30   19   20 ar  
    31   19   22 ar  
    32   20   21 1   
    33   20   26 ar  
    34   21   35 1   
    35   21   36 1   
    36   21   37 1   
    37   22   23 ar  
    38   22   38 1   
    39   23   24 1   
    40   23   25 ar  
    41   24   39 1   
    42   25   26 ar  
    43   25   40 1   
    44   26   41 1   
@<TRIPOS>SUBSTRUCTURE
     1 GK1         1 TEMP              0 ****  ****    0 ROOT
