@<TRIPOS>MOLECULE
GK1
   41    33     1     0     0
SMALL
bcc


@<TRIPOS>ATOM
      1 O2         -8.0960    1.7930   -4.1420 o         1 GK1     -0.283000
      2 C20        -7.0610    2.2390   -3.5020 c1        1 GK1      0.259000
      3 C19        -5.9950    1.2670   -3.0320 c1        1 GK1     -0.419000
      4 S          -6.1090   -0.2920   -3.0580 ss        1 GK1      0.653000
      5 C18        -4.8230   -0.8570   -2.4740 c1        1 GK1     -0.473000
      6 N3         -4.7080    1.6110   -2.4620 n2        1 GK1     -0.065000
      7 C17        -3.9550    0.2780   -2.1040 c2        1 GK1     -0.049000
      8 C13        -2.6460    0.1790   -1.4800 c1        1 GK1      0.003000
      9 C12        -1.5940    0.2330   -2.3990 c1        1 GK1     -0.094000
     10 C14        -2.3750    0.1470   -0.1000 c1        1 GK1     -0.106000
     11 C15        -1.0520    0.1700    0.3510 c1        1 GK1     -0.114000
     12 C16         0.0150    0.2250   -0.5810 c1        1 GK1     -0.101000
     13 C11        -0.2540    0.2560   -1.9410 c1        1 GK1      0.020000
     14 N2          0.7840    0.3580   -2.8490 n1        1 GK1     -0.158000
     15 C10         2.0690    0.4290   -2.4100 c1        1 GK1     -0.143000
     16 C9          2.3430    0.3970   -1.0360 c1        1 GK1     -0.143000
     17 C8          1.3180    0.2960   -0.1350 c1        1 GK1      0.128000
     18 N1          1.6690    0.6150    1.1670 n2        1 GK1     -0.269000
     19 C7          2.4000   -0.3240    1.9610 c2        1 GK1      0.100000
     20 C2          3.4730    0.1160    2.7770 c1        1 GK1     -0.148000
     21 C1          3.9350    1.5950    2.7240 c2        1 GK1     -0.176000
     22 C6          2.0380   -1.6720    1.9550 c1        1 GK1     -0.240000
     23 C5          2.7260   -2.5770    2.7430 c1        1 GK1      0.099000
     24 O1          2.3690   -3.8880    2.7380 oh        1 GK1     -0.249000
     25 C4          3.7880   -2.1420    3.5510 c1        1 GK1     -0.173000
     26 C3          4.1560   -0.7880    3.5620 c1        1 GK1     -0.073000
     27 H20        -6.8970    3.2330   -3.4430 ha        1 GK1      0.130000
     28 H18        -4.6010   -1.8480   -2.3570 DU        1 GK1      0.192000
     29 H12        -1.7860    0.2950   -3.3670 ha        1 GK1      0.152000
     30 H14        -3.1430    0.0600    0.5710 ha        1 GK1      0.153000
     31 H15        -0.8650    0.1470    1.2950 ha        1 GK1      0.132000
     32 H10         2.8110    0.5000   -3.0620 ha        1 GK1      0.157000
     33 H9          3.2540    0.4460   -0.7250 ha        1 GK1      0.157000
     34 H1          1.4600    1.4390    1.5090 hn        1 GK1      0.231000
     35 H11         4.7110    1.7250    3.3430 ha        1 GK1      0.082667
     36 H12A        3.2320    2.1510    2.9860 ha        1 GK1      0.082667
     37 H13         4.1870    1.8050    1.8730 ha        1 GK1      0.082667
     38 H6          1.3040   -2.0180    1.2750 ha        1 GK1      0.148000
     39 H1A         2.7350   -4.2940    2.0240 ho        1 GK1      0.220000
     40 H4          4.2930   -2.8130    4.1320 ha        1 GK1      0.154000
     41 H3          4.8910   -0.4880    4.1210 ha        1 GK1      0.137000
@<TRIPOS>BOND
     1    1    2 1   
     2    2   27 1   
     3    3    4 1   
     4    3    6 1   
     5    4    5 1   
     6    5    7 1   
     7    6    7 1   
     8    7    8 1   
     9    8   10 1   
    10    9   13 1   
    11    9   29 1   
    12   10   30 1   
    13   11   12 1   
    14   11   31 1   
    15   12   17 1   
    16   13   14 1   
    17   15   16 1   
    18   15   32 1   
    19   16   33 1   
    20   18   19 1   
    21   18   34 1   
    22   19   20 1   
    23   19   22 1   
    24   20   26 1   
    25   21   35 1   
    26   21   36 1   
    27   21   37 1   
    28   22   38 1   
    29   23   24 1   
    30   23   25 1   
    31   24   39 1   
    32   25   40 1   
    33   26   41 1   
@<TRIPOS>SUBSTRUCTURE
     1 GK1         1 TEMP              0 ****  ****    0 ROOT
