@<TRIPOS>MOLECULE
GK1
   41    44     1     0     0
SMALL
bcc


@<TRIPOS>ATOM
      1 O2         -8.2050   -0.6380    0.2720 o         1 GK1     -0.522100
      2 C20        -7.0530   -1.0710    0.2680 c         1 GK1      0.501400
      3 C19        -5.8820   -0.1940    0.0700 cc        1 GK1      0.250900
      4 S          -5.9930    1.4960   -0.1770 ss        1 GK1      0.062700
      5 C18        -4.3540    1.6250   -0.2850 cc        1 GK1     -0.271400
      6 N3         -4.6250   -0.6710    0.0710 nd        1 GK1     -0.587000
      7 C17        -3.7350    0.3720   -0.1320 cd        1 GK1      0.389800
      8 C13        -2.2900    0.1650   -0.1810 ca        1 GK1     -0.113500
      9 C12        -1.7530   -1.0140   -0.6520 ca        1 GK1     -0.133300
     10 C14        -1.4330    1.2040    0.2670 ca        1 GK1     -0.124000
     11 C15        -0.0700    1.0540    0.2180 ca        1 GK1     -0.111000
     12 C16         0.5200   -0.1350   -0.2810 ca        1 GK1     -0.167300
     13 C11        -0.3330   -1.1970   -0.7120 ca        1 GK1      0.411600
     14 N2          0.1550   -2.4020   -1.1850 nb        1 GK1     -0.679000
     15 C10         1.4660   -2.5500   -1.2370 ca        1 GK1      0.441200
     16 C9          2.4110   -1.5590   -0.8540 ca        1 GK1     -0.326300
     17 C8          1.9540   -0.3370   -0.3670 ca        1 GK1      0.207600
     18 N1          2.8110    0.6840    0.0520 nh        1 GK1     -0.637000
     19 C7          4.2040    0.5270    0.1670 ca        1 GK1      0.181600
     20 C2          5.0830    1.5270   -0.3230 ca        1 GK1     -0.157300
     21 C1          4.5720    2.7170   -1.0440 c3        1 GK1     -0.049800
     22 C6          4.7380   -0.5860    0.8520 ca        1 GK1     -0.240000
     23 C5          6.1200   -0.6900    1.0330 ca        1 GK1      0.145100
     24 O1          6.6960   -1.7540    1.6880 oh        1 GK1     -0.495100
     25 C4          6.9950    0.2960    0.5500 ca        1 GK1     -0.174000
     26 C3          6.4600    1.3900   -0.1160 ca        1 GK1     -0.072000
     27 H20        -6.8220   -2.1500    0.4120 h4        1 GK1      0.039200
     28 H18        -3.8140    2.5540   -0.4640 h4        1 GK1      0.188000
     29 H12        -2.4040   -1.8390   -0.9890 ha        1 GK1      0.169000
     30 H14        -1.8760    2.1280    0.6680 ha        1 GK1      0.135000
     31 H15         0.5610    1.8730    0.5960 ha        1 GK1      0.132000
     32 H10         1.8310   -3.5220   -1.6190 h4        1 GK1      0.023100
     33 H9          3.4820   -1.7760   -0.9670 ha        1 GK1      0.155000
     34 H1          2.5030    1.6110   -0.1500 hn        1 GK1      0.433800
     35 H11         3.9610    3.3610   -0.3610 hc        1 GK1      0.042700
     36 H12A        5.4130    3.3390   -1.4380 hc        1 GK1      0.042700
     37 H13         3.9330    2.4140   -1.9110 hc        1 GK1      0.042700
     38 H6          4.0710   -1.3630    1.2550 ha        1 GK1      0.148000
     39 H1A         5.9870   -2.3380    1.9950 ho        1 GK1      0.422000
     40 H4          8.0770    0.1900    0.7070 ha        1 GK1      0.154000
     41 H3          7.1380    2.1700   -0.4960 ha        1 GK1      0.137000
@<TRIPOS>BOND
     1    1    2 2   
     2    2    3 1   
     3    2   27 1   
     4    3    4 1   
     5    3    6 2   
     6    4    5 1   
     7    5    7 2   
     8    5   28 1   
     9    6    7 1   
    10    7    8 1   
    11    8    9 ar  
    12    8   10 ar  
    13    9   13 ar  
    14    9   29 1   
    15   10   11 ar  
    16   10   30 1   
    17   11   12 ar  
    18   11   31 1   
    19   12   13 ar  
    20   12   17 ar  
    21   13   14 ar  
    22   14   15 ar  
    23   15   16 ar  
    24   15   32 1   
    25   16   17 ar  
    26   16   33 1   
    27   17   18 1   
    28   18   19 1   
    29   18   34 1   
    30   19   20 ar  
    31   19   22 ar  
    32   20   21 1   
    33   20   26 ar  
    34   21   35 1   
    35   21   36 1   
    36   21   37 1   
    37   22   23 ar  
    38   22   38 1   
    39   23   24 1   
    40   23   25 ar  
    41   24   39 1   
    42   25   26 ar  
    43   25   40 1   
    44   26   41 1   
@<TRIPOS>SUBSTRUCTURE
     1 GK1         1 TEMP              0 ****  ****    0 ROOT
