@<TRIPOS>MOLECULE
GK3
   48    51     1     0     0
SMALL
bcc


@<TRIPOS>ATOM
      1 N5         -8.9650   -1.1430   -2.2860 n1        1 GK3     -0.359800
      2 C5         -8.2810   -0.9850   -1.3580 cg        1 GK3      0.234800
      3 C18        -7.4480   -0.7920   -0.2210 ca        1 GK3      0.010000
      4 C2         -8.0040   -0.8540    1.0630 ca        1 GK3     -0.121000
      5 C29        -7.1790   -0.6640    2.1690 ca        1 GK3     -0.107000
      6 C19        -5.8220   -0.4140    2.0100 ca        1 GK3     -0.167000
      7 C22        -6.0830   -0.5440   -0.4050 ca        1 GK3     -0.121000
      8 C15        -5.2480   -0.3490    0.7150 ca        1 GK3      0.070600
      9 N3         -3.8700   -0.1090    0.6110 n         1 GK3     -0.471100
     10 C3         -3.1420    0.1530   -0.5450 c         1 GK3      0.681700
     11 O1         -3.6620    0.2060   -1.6740 o         1 GK3     -0.576100
     12 C25        -1.6810    0.3920   -0.3540 ca        1 GK3     -0.147600
     13 C9         -0.9120   -0.3700    0.5320 ca        1 GK3     -0.090500
     14 C10        -1.0730    1.3910   -1.1230 ca        1 GK3     -0.090500
     15 C16         0.2890    1.6430   -0.9880 ca        1 GK3     -0.125000
     16 C13         1.0640    0.8940   -0.0920 cp        1 GK3     -0.013000
     17 C27         0.4520   -0.1210    0.6590 ca        1 GK3     -0.125000
     18 C28         2.5030    1.1310    0.0450 cp        1 GK3     -0.058000
     19 C14         3.3660    0.0310   -0.0660 ca        1 GK3     -0.067000
     20 C17         4.7500    0.2010    0.0500 ca        1 GK3     -0.142500
     21 C12         5.6250   -0.9450   -0.0640 cc        1 GK3      0.512900
     22 O2          7.0180   -0.7370   -0.0260 os        1 GK3     -0.394800
     23 C7          7.5510   -2.0300   -0.1580 cc        1 GK3      0.458700
     24 C21         9.0140   -2.1700   -0.1580 c3        1 GK3     -0.124400
     25 N4          6.5370   -2.9150   -0.2630 nd        1 GK3     -0.347000
     26 N7          5.3860   -2.2680   -0.2070 nd        1 GK3     -0.345000
     27 C20         5.2790    1.4800    0.2820 ca        1 GK3     -0.084000
     28 C26         4.4220    2.5670    0.4000 ca        1 GK3     -0.142000
     29 C23         3.0330    2.4120    0.2860 ca        1 GK3     -0.033300
     30 C1          2.1700    3.6080    0.4290 c3        1 GK3     -0.064800
     31 H2         -9.0780   -1.0500    1.1950 ha        1 GK3      0.147000
     32 H29        -7.6070   -0.7120    3.1820 ha        1 GK3      0.140000
     33 H19        -5.1970   -0.2680    2.9050 ha        1 GK3      0.134000
     34 H22        -5.6760   -0.5010   -1.4300 ha        1 GK3      0.186000
     35 HN3        -3.3760   -0.0640    1.4750 hn        1 GK3      0.321500
     36 H9         -1.3670   -1.1840    1.1170 ha        1 GK3      0.148500
     37 H10        -1.6790    1.9640   -1.8440 ha        1 GK3      0.148500
     38 H16         0.7640    2.4290   -1.5950 ha        1 GK3      0.145500
     39 H27         1.0570   -0.7270    1.3510 ha        1 GK3      0.145500
     40 H14         2.9450   -0.9710   -0.2520 ha        1 GK3      0.163000
     41 H21         9.3290   -2.8370    0.6840 hc        1 GK3      0.074367
     42 H21A        9.3490   -2.6250   -1.1240 hc        1 GK3      0.074367
     43 H21B        9.4960   -1.1680   -0.0350 hc        1 GK3      0.074367
     44 H20         6.3680    1.6150    0.3700 ha        1 GK3      0.150000
     45 H26         4.8380    3.5690    0.5890 ha        1 GK3      0.141000
     46 H1          2.0660    4.1220   -0.5610 hc        1 GK3      0.052700
     47 H1A         1.1480    3.3320    0.7890 hc        1 GK3      0.052700
     48 H1B         2.6170    4.3330    1.1530 hc        1 GK3      0.052700
@<TRIPOS>BOND
     1    1    2 3   
     2    2    3 1   
     3    3    4 ar  
     4    3    7 ar  
     5    4    5 ar  
     6    4   31 1   
     7    5    6 ar  
     8    5   32 1   
     9    6    8 ar  
    10    6   33 1   
    11    7    8 ar  
    12    7   34 1   
    13    8    9 1   
    14    9   10 1   
    15    9   35 1   
    16   10   11 2   
    17   10   12 1   
    18   12   13 ar  
    19   12   14 ar  
    20   13   17 ar  
    21   13   36 1   
    22   14   15 ar  
    23   14   37 1   
    24   15   16 ar  
    25   15   38 1   
    26   16   17 ar  
    27   16   18 1   
    28   17   39 1   
    29   18   19 ar  
    30   18   29 ar  
    31   19   20 ar  
    32   19   40 1   
    33   20   21 1   
    34   20   27 ar  
    35   21   22 1   
    36   21   26 2   
    37   22   23 1   
    38   23   24 1   
    39   23   25 2   
    40   24   41 1   
    41   24   42 1   
    42   24   43 1   
    43   25   26 1   
    44   27   28 ar  
    45   27   44 1   
    46   28   29 ar  
    47   28   45 1   
    48   29   30 1   
    49   30   46 1   
    50   30   47 1   
    51   30   48 1   
@<TRIPOS>SUBSTRUCTURE
     1 GK3         1 TEMP              0 ****  ****    0 ROOT
