@<TRIPOS>MOLECULE
GK3
   48    51     1     0     0
SMALL
bcc


@<TRIPOS>ATOM
      1 N5         -1.2800    0.0180   -2.2250 n1        1 GK3     -0.378800
      2 C5         -0.7190    0.0000   -1.2380 cg        1 GK3      0.233800
      3 C18         0.0000    0.0000    0.0000 ca        1 GK3      0.024000
      4 C2          1.3970    0.0000    0.0000 ca        1 GK3     -0.103000
      5 C29         2.0870    0.0000    1.1950 ca        1 GK3     -0.088000
      6 C19         1.4010   -0.0010    2.3950 ca        1 GK3     -0.159000
      7 C22        -0.6920    0.0050    1.2110 ca        1 GK3     -0.057000
      8 C15         0.0110   -0.0010    2.4060 ca        1 GK3     -0.060400
      9 N3         -0.6790   -0.0030    3.6240 ns        1 GK3     -0.049100
     10 C3         -1.8610   -0.6420    3.7280 c         1 GK3      0.603700
     11 O1         -2.2810   -1.2970    2.7930 o         1 GK3     -0.614100
     12 C25        -2.6450   -0.5460    4.9760 ca        1 GK3     -0.147600
     13 C9         -2.1640    0.2110    6.0460 ca        1 GK3     -0.042500
     14 C10        -3.8700   -1.2090    5.0840 ca        1 GK3     -0.042500
     15 C16        -4.5990   -1.1190    6.2480 ca        1 GK3     -0.122500
     16 C13        -4.1160   -0.3670    7.3180 cp        1 GK3     -0.017000
     17 C27        -2.8950    0.2990    7.2100 ca        1 GK3     -0.122500
     18 C28        -4.9030   -0.2710    8.5720 cp        1 GK3     -0.055000
     19 C14        -5.2650    0.9760    9.0720 ca        1 GK3     -0.043000
     20 C17        -6.0060    1.0580   10.2510 ca        1 GK3     -0.099500
     21 C12        -6.3960    2.3780   10.7900 cc        1 GK3      0.491900
     22 O2         -7.1070    2.6050   11.9120 os        1 GK3     -0.314800
     23 C7         -7.2280    3.9390   12.0210 cc        1 GK3      0.391700
     24 C21        -7.9440    4.6810   13.1200 c3        1 GK3      0.021600
     25 N4         -6.6130    4.4750   11.0040 nd        1 GK3     -0.349000
     26 N7         -6.1090    3.5480   10.2680 nd        1 GK3     -0.344000
     27 C20        -6.3790   -0.1090   10.9200 ca        1 GK3     -0.095000
     28 C26        -6.0150   -1.3430   10.4170 ca        1 GK3     -0.137000
     29 C23        -5.2850   -1.4300    9.2470 ca        1 GK3     -0.025300
     30 C1         -4.8940   -2.7800    8.7040 c3        1 GK3      0.028200
     31 H2          1.6880   -0.0710   -1.0410 ha        1 GK3      0.119000
     32 H29         3.1700    0.0110    1.1620 ha        1 GK3      0.108000
     33 H19         2.2420    0.3490    2.9810 ha        1 GK3      0.136000
     34 H22        -1.7010    0.3980    1.2030 ha        1 GK3      0.131000
     35 HN3        -0.0280    0.2780    4.3300 hn        1 GK3      0.179500
     36 H9         -1.2440    0.7630    5.8930 ha        1 GK3      0.115500
     37 H10        -4.5370   -1.7480    4.4220 ha        1 GK3      0.115500
     38 H16        -5.6400   -1.3230    6.4670 ha        1 GK3      0.121000
     39 H27        -2.6500    1.1090    7.8860 ha        1 GK3      0.121000
     40 H14        -5.1290    1.8720    8.4800 ha        1 GK3      0.135000
     41 H21        -7.0960    4.9590   13.7330 hc        1 GK3      0.034700
     42 H21A       -8.3480    5.5490   12.6120 hc        1 GK3      0.034700
     43 H21B       -8.3900    3.8560   13.6620 hc        1 GK3      0.034700
     44 H20        -6.7840   -0.4720   11.8570 ha        1 GK3      0.131000
     45 H26        -6.4310   -2.2200   10.8960 ha        1 GK3      0.113000
     46 H1         -5.5730   -3.0200    7.8950 hc        1 GK3      0.014700
     47 H1A        -4.0130   -2.7170    8.0770 hc        1 GK3      0.014700
     48 H1B        -4.8050   -3.6730    9.3120 hc        1 GK3      0.014700
@<TRIPOS>BOND
     1    1    2 3   
     2    2    3 1   
     3    3    4 ar  
     4    3    7 ar  
     5    4    5 ar  
     6    4   31 1   
     7    5    6 ar  
     8    5   32 1   
     9    6    8 ar  
    10    6   33 1   
    11    7    8 ar  
    12    7   34 1   
    13    8    9 1   
    14    9   10 1   
    15    9   35 1   
    16   10   11 2   
    17   10   12 1   
    18   12   13 ar  
    19   12   14 ar  
    20   13   17 ar  
    21   13   36 1   
    22   14   15 ar  
    23   14   37 1   
    24   15   16 ar  
    25   15   38 1   
    26   16   17 ar  
    27   16   18 1   
    28   17   39 1   
    29   18   19 ar  
    30   18   29 ar  
    31   19   20 ar  
    32   19   40 1   
    33   20   21 1   
    34   20   27 ar  
    35   21   22 1   
    36   21   26 2   
    37   22   23 1   
    38   23   24 1   
    39   23   25 2   
    40   24   41 1   
    41   24   42 1   
    42   24   43 1   
    43   25   26 1   
    44   27   28 ar  
    45   27   44 1   
    46   28   29 ar  
    47   28   45 1   
    48   29   30 1   
    49   30   46 1   
    50   30   47 1   
    51   30   48 1   
@<TRIPOS>SUBSTRUCTURE
     1 GK3         1 TEMP              0 ****  ****    0 ROOT
