@<TRIPOS>MOLECULE
GK3
   49    52     1     0     0
SMALL
bcc


@<TRIPOS>ATOM
      1 N5         -2.6120    3.7940    1.3810 n1        1 GK3     -0.271800
      2 C5         -2.0400    2.7850    1.4570 cg        1 GK3      0.189800
      3 C18        -1.3410    1.5510    1.5440 ca        1 GK3      0.029000
      4 C2         -1.1850    0.7460    0.4060 ca        1 GK3     -0.042000
      5 C29        -0.4990   -0.4650    0.5000 ca        1 GK3     -0.106000
      6 C19         0.0360   -0.8860    1.7140 ca        1 GK3     -0.084000
      7 C22        -0.8090    1.1480    2.7760 ca        1 GK3     -0.074000
      8 C15        -0.1190   -0.0720    2.8520 ca        1 GK3     -0.055400
      9 N3          0.4600   -0.5020    4.1280 n4        1 GK3     -0.551200
     10 C3         -0.3070   -1.6950    4.7130 c         1 GK3      0.589700
     11 O1          0.0390   -2.7780    4.2680 o         1 GK3     -0.423100
     12 C25        -1.3420   -1.3760    5.6900 ca        1 GK3     -0.212600
     13 C9         -1.1930   -0.3670    6.6550 ca        1 GK3     -0.065500
     14 C10        -2.5110   -2.1560    5.6690 ca        1 GK3     -0.065500
     15 C16        -3.5300   -1.9050    6.5830 ca        1 GK3     -0.123500
     16 C13        -3.3970   -0.8870    7.5380 cp        1 GK3      0.067000
     17 C27        -2.2110   -0.1270    7.5670 ca        1 GK3     -0.123500
     18 C28        -4.4740   -0.5750    8.4770 cp        1 GK3     -0.102000
     19 C14        -4.8490    0.7710    8.6060 ca        1 GK3     -0.066000
     20 C17        -5.8810    1.1390    9.4740 ca        1 GK3     -0.126500
     21 C12        -6.2510    2.5330    9.5870 cc        1 GK3      0.490900
     22 O2         -7.3180    2.8900   10.4310 os        1 GK3     -0.388800
     23 C7         -7.3930    4.2870   10.2990 cc        1 GK3      0.480700
     24 C21        -8.4280    4.9930   11.0680 c3        1 GK3     -0.131400
     25 N4         -6.4350    4.6990    9.4410 nd        1 GK3     -0.347000
     26 N7         -5.7520    3.6530    9.0150 nd        1 GK3     -0.343000
     27 C20        -6.5410    0.1560   10.2270 ca        1 GK3     -0.064000
     28 C26        -6.1580   -1.1740   10.1080 ca        1 GK3     -0.136000
     29 C23        -5.1270   -1.5610    9.2380 ca        1 GK3     -0.021300
     30 C1         -4.7600   -2.9940    9.1710 c3        1 GK3     -0.071800
     31 H2         -1.6050    1.0730   -0.5620 ha        1 GK3      0.182000
     32 H29        -0.3780   -1.0990   -0.3960 ha        1 GK3      0.179000
     33 H19         0.5670   -1.8530    1.7740 ha        1 GK3      0.172000
     34 H22        -0.9430    1.7960    3.6590 ha        1 GK3      0.166000
     35 HN3         1.4350   -0.7830    3.9600 hn        1 GK3      0.460800
     36 H9         -0.2650    0.2190    6.7380 ha        1 GK3      0.147000
     37 H10        -2.6200   -2.9640    4.9260 ha        1 GK3      0.147000
     38 H16        -4.4520   -2.5100    6.5530 ha        1 GK3      0.172000
     39 H27        -2.0920    0.6610    8.3300 ha        1 GK3      0.172000
     40 H14        -4.3330    1.5410    8.0100 ha        1 GK3      0.157000
     41 H21        -7.9470    5.7310   11.7590 hc        1 GK3      0.081367
     42 H21A       -9.0290    4.2640   11.6660 hc        1 GK3      0.081367
     43 H21B       -9.1060    5.5440   10.3680 hc        1 GK3      0.081367
     44 H20        -7.3560    0.4450   10.9120 ha        1 GK3      0.164000
     45 H26        -6.6710   -1.9430   10.7080 ha        1 GK3      0.154000
     46 H1         -5.4250   -3.5250    8.4430 hc        1 GK3      0.057033
     47 H1A        -3.6990   -3.1320    8.8470 hc        1 GK3      0.057033
     48 H1B        -4.8860   -3.4810   10.1710 hc        1 GK3      0.057033
     49 H32         0.4430    0.2820    4.7890 hn        1 GK3      0.460800
@<TRIPOS>BOND
     1    1    2 3   
     2    2    3 1   
     3    3    4 ar  
     4    3    7 ar  
     5    4    5 ar  
     6    4   31 1   
     7    5    6 ar  
     8    5   32 1   
     9    6    8 ar  
    10    6   33 1   
    11    7    8 ar  
    12    7   34 1   
    13    8    9 1   
    14    9   10 1   
    15    9   35 1   
    16    9   49 1   
    17   10   11 2   
    18   10   12 1   
    19   12   13 ar  
    20   12   14 ar  
    21   13   17 ar  
    22   13   36 1   
    23   14   15 ar  
    24   14   37 1   
    25   15   16 ar  
    26   15   38 1   
    27   16   17 ar  
    28   16   18 1   
    29   17   39 1   
    30   18   19 ar  
    31   18   29 ar  
    32   19   20 ar  
    33   19   40 1   
    34   20   21 1   
    35   20   27 ar  
    36   21   22 1   
    37   21   26 2   
    38   22   23 1   
    39   23   24 1   
    40   23   25 2   
    41   24   41 1   
    42   24   42 1   
    43   24   43 1   
    44   25   26 1   
    45   27   28 ar  
    46   27   44 1   
    47   28   29 ar  
    48   28   45 1   
    49   29   30 1   
    50   30   46 1   
    51   30   47 1   
    52   30   48 1   
@<TRIPOS>SUBSTRUCTURE
     1 GK3         1 TEMP              0 ****  ****    0 ROOT
