@<TRIPOS>MOLECULE
GK3
   48    39     1     0     0
SMALL
bcc


@<TRIPOS>ATOM
      1 N5          2.0900   -2.5920   -8.6830 n1        1 GK3     -0.035000
      2 C5          2.4260   -1.8200   -7.9130 c1        1 GK3     -0.095000
      3 C18         2.8720   -0.7950   -6.8920 c1        1 GK3      0.013000
      4 C2          3.9010    0.0830   -7.1950 c2        1 GK3     -0.121000
      5 C29         4.3270    1.0040   -6.2520 c1        1 GK3     -0.108000
      6 C19         3.7230    1.0480   -5.0040 c1        1 GK3     -0.165000
      7 C22         2.2690   -0.7510   -5.6450 c1        1 GK3     -0.120000
      8 C15         2.6940    0.1710   -4.7010 c1        1 GK3      0.076000
      9 N3          2.0210    0.2710   -3.4530 n         1 GK3     -0.325000
     10 C3          2.1660   -0.7540   -2.4860 c2        1 GK3      0.355000
     11 O1          2.8650   -1.7180   -2.7230 o         1 GK3     -0.336000
     12 C25         1.4210   -0.6650   -1.1710 c2        1 GK3     -0.127000
     13 C9          1.9200    0.1200   -0.1440 c2        1 GK3     -0.107000
     14 C10         0.2690   -1.4120   -0.9760 c1        1 GK3     -0.077000
     15 C16        -0.3830   -1.3730    0.2470 c1        1 GK3     -0.094000
     16 C13         0.1160   -0.5880    1.2740 c1        1 GK3     -0.026000
     17 C27         1.2680    0.1590    1.0790 c1        1 GK3     -0.125000
     18 C28        -0.5700   -0.5010    2.4760 c1        1 GK3     -0.043500
     19 C14        -1.5520    0.4630    2.6450 c1        1 GK3     -0.094000
     20 C17        -2.1920    0.5960    3.8690 c1        1 GK3     -0.026000
     21 C12        -3.1770    1.5570    4.0360 c1        1 GK3     -0.007000
     22 O2         -4.5070    1.3270    4.0870 os        1 GK3     -0.136000
     23 C7         -5.1220    2.5000    4.3450 c1        1 GK3     -0.007000
     24 C21        -6.6090    2.7000    4.5360 c2        1 GK3     -0.169000
     25 N4         -4.1780    3.4490    4.4530 n2        1 GK3     -0.083500
     26 N7         -2.9730    2.8650    4.2610 n2        1 GK3     -0.083500
     27 C20        -1.8500   -0.2360    4.9230 c1        1 GK3     -0.113000
     28 C26        -0.8680   -1.2010    4.7550 c1        1 GK3     -0.113000
     29 C23        -0.2280   -1.3330    3.5310 c1        1 GK3     -0.043500
     30 C1          0.7970   -2.4270    3.3290 c2        1 GK3     -0.169000
     31 H2          4.3260    0.0520   -8.0730 ha        1 GK3      0.147000
     32 H29         5.0510    1.6220   -6.4650 ha        1 GK3      0.140000
     33 H19         4.0230    1.6970   -4.3400 ha        1 GK3      0.135000
     34 H22         1.5440   -1.3690   -5.4320 ha        1 GK3      0.185000
     35 HN3         1.5050    1.0000   -3.2710 hn        1 GK3      0.235000
     36 H9          2.7300    0.6460   -0.2820 ha        1 GK3      0.139000
     37 H10        -0.0820   -1.9650   -1.6980 ha        1 GK3      0.158000
     38 H16        -1.1930   -1.8990    0.3840 ha        1 GK3      0.155000
     39 H27         1.6190    0.7120    1.8010 ha        1 GK3      0.144000
     40 H14        -1.7980    1.0450    1.9000 ha        1 GK3      0.155000
     41 H21        -6.8590    2.4420    5.4480 ha        1 GK3      0.103500
     42 H21A       -6.8330    3.6430    4.3900 ha        1 GK3      0.103500
     43 H21B       -7.0980    2.1450    3.8930 ha        1 GK3      0.103500
     44 H20        -2.3000   -0.1430    5.7850 ha        1 GK3      0.146000
     45 H26        -0.6270   -1.7860    5.4970 ha        1 GK3      0.146000
     46 H1          1.5810   -2.0590    2.8680 ha        1 GK3      0.103500
     47 H1A         1.0680   -2.7850    4.1990 ha        1 GK3      0.103500
     48 H1B         0.4060   -3.1450    2.7870 ha        1 GK3      0.103500
@<TRIPOS>BOND
     1    1    2 1   
     2    3    4 1   
     3    3    7 1   
     4    4    5 1   
     5    4   31 1   
     6    5   32 1   
     7    6    8 1   
     8    6   33 1   
     9    7   34 1   
    10    8    9 1   
    11    9   10 1   
    12    9   35 1   
    13   10   11 1   
    14   10   12 1   
    15   12   13 1   
    16   12   14 1   
    17   13   17 1   
    18   13   36 1   
    19   14   37 1   
    20   15   16 1   
    21   15   38 1   
    22   17   39 1   
    23   18   29 1   
    24   19   20 1   
    25   19   40 1   
    26   21   22 1   
    27   21   26 1   
    28   22   23 1   
    29   23   25 1   
    30   24   41 1   
    31   24   42 1   
    32   24   43 1   
    33   25   26 1   
    34   27   28 1   
    35   27   44 1   
    36   28   45 1   
    37   30   46 1   
    38   30   47 1   
    39   30   48 1   
@<TRIPOS>SUBSTRUCTURE
     1 GK3         1 TEMP              0 ****  ****    0 ROOT
