@<TRIPOS>MOLECULE
GK4
   47    50     1     0     0
SMALL
bcc


@<TRIPOS>ATOM
      1 O2          5.0650   -1.8380   -0.4480 o         1 GK4     -0.603100
      2 C17         4.3560   -0.8140   -0.3740 c         1 GK4      0.666700
      3 N3          4.8980    0.4500   -0.5120 n         1 GK4     -0.558900
      4 C18         6.3160    0.6820   -0.5440 c3        1 GK4      0.111000
      5 C19         6.8550    1.3800    0.6810 cx        1 GK4     -0.157700
      6 C21         8.0440    2.2880    0.5210 cx        1 GK4     -0.128900
      7 C20         6.6950    2.8710    0.8200 cx        1 GK4     -0.128900
      8 C14         2.8750   -0.9060   -0.2080 ca        1 GK4     -0.135600
      9 C13         2.1710   -0.0390    0.6320 ca        1 GK4     -0.093500
     10 C12         0.7910   -0.1720    0.7710 ca        1 GK4     -0.125000
     11 C15         2.1930   -1.9130   -0.8990 ca        1 GK4     -0.093500
     12 C16         0.8140   -2.0450   -0.7600 ca        1 GK4     -0.125000
     13 C11         0.1000   -1.1750    0.0760 cp        1 GK4     -0.020000
     14 C9         -1.3540   -1.2850    0.2140 cp        1 GK4     -0.054000
     15 C7         -1.9870   -2.4950    0.5480 ca        1 GK4     -0.032300
     16 C8         -1.2230   -3.7410    0.7920 c3        1 GK4     -0.065800
     17 C6         -3.3850   -2.5290    0.6590 ca        1 GK4     -0.143000
     18 C5         -4.1500   -1.3890    0.4480 ca        1 GK4     -0.086000
     19 C10        -2.1250   -0.1310    0.0100 ca        1 GK4     -0.069000
     20 C4         -3.5190   -0.1790    0.1230 ca        1 GK4     -0.145500
     21 C3         -4.2980    1.0200   -0.0910 cc        1 GK4      0.515900
     22 N2         -3.9530    2.3000   -0.3610 nd        1 GK4     -0.348000
     23 N1         -5.0480    3.0330   -0.4680 nd        1 GK4     -0.348000
     24 O1         -5.7020    0.9340   -0.0220 os        1 GK4     -0.395800
     25 C2         -6.1280    2.2500   -0.2710 cc        1 GK4      0.456700
     26 C1         -7.5750    2.5100   -0.2710 c3        1 GK4     -0.124400
     27 HN3         4.3190    1.2380   -0.3380 hn        1 GK4      0.308500
     28 H18         6.8470   -0.3080   -0.6620 h1        1 GK4      0.066200
     29 H18A        6.5390    1.3100   -1.4570 h1        1 GK4      0.066200
     30 H19         6.7890    0.7600    1.5960 hc        1 GK4      0.088700
     31 H21         8.8190    2.2900    1.3080 hc        1 GK4      0.071950
     32 H21A        8.4790    2.4300   -0.4840 hc        1 GK4      0.071950
     33 H20         6.1670    3.4280    0.0260 hc        1 GK4      0.071950
     34 H20A        6.5020    3.2970    1.8200 hc        1 GK4      0.071950
     35 H13         2.6960    0.7430    1.2010 ha        1 GK4      0.146500
     36 H12         0.2380    0.5120    1.4330 ha        1 GK4      0.143000
     37 H15         2.7590   -2.6040   -1.5450 ha        1 GK4      0.146500
     38 H16         0.2790   -2.8340   -1.3100 ha        1 GK4      0.143000
     39 H8         -1.1570   -4.3380   -0.1530 hc        1 GK4      0.053700
     40 H8A        -0.1840   -3.5200    1.1400 hc        1 GK4      0.053700
     41 H8B        -1.7300   -4.3700    1.5660 hc        1 GK4      0.053700
     42 H6         -3.8810   -3.4760    0.9210 ha        1 GK4      0.140000
     43 H5         -5.2470   -1.4290    0.5350 ha        1 GK4      0.149000
     44 H10        -1.6230    0.8170   -0.2460 ha        1 GK4      0.161000
     45 H1         -7.8210    3.2720    0.5110 hc        1 GK4      0.073367
     46 H1A        -7.8860    2.9070   -1.2700 hc        1 GK4      0.073367
     47 H1B        -8.1360    1.5670   -0.0570 hc        1 GK4      0.073367
@<TRIPOS>BOND
     1    1    2 2   
     2    2    3 1   
     3    2    8 1   
     4    3    4 1   
     5    3   27 1   
     6    4    5 1   
     7    4   28 1   
     8    4   29 1   
     9    5    6 1   
    10    5    7 1   
    11    5   30 1   
    12    6    7 1   
    13    6   31 1   
    14    6   32 1   
    15    7   33 1   
    16    7   34 1   
    17    8    9 ar  
    18    8   11 ar  
    19    9   10 ar  
    20    9   35 1   
    21   10   13 ar  
    22   10   36 1   
    23   11   12 ar  
    24   11   37 1   
    25   12   13 ar  
    26   12   38 1   
    27   13   14 1   
    28   14   15 ar  
    29   14   19 ar  
    30   15   16 1   
    31   15   17 ar  
    32   16   39 1   
    33   16   40 1   
    34   16   41 1   
    35   17   18 ar  
    36   17   42 1   
    37   18   20 ar  
    38   18   43 1   
    39   19   20 ar  
    40   19   44 1   
    41   20   21 1   
    42   21   22 2   
    43   21   24 1   
    44   22   23 1   
    45   23   25 2   
    46   24   25 1   
    47   25   26 1   
    48   26   45 1   
    49   26   46 1   
    50   26   47 1   
@<TRIPOS>SUBSTRUCTURE
     1 GK4         1 TEMP              0 ****  ****    0 ROOT
