@<TRIPOS>MOLECULE
GK4
   48    51     1     0     0
SMALL
bcc


@<TRIPOS>ATOM
      1 O2          0.1590    0.9950    0.2340 o         1 GK4     -0.429100
      2 C17         1.3290    0.6830    0.0580 c         1 GK4      0.574700
      3 N3          2.1230    0.3690    1.3180 ny        1 GK4     -0.677800
      4 C18         1.2640    0.1760    2.5290 c3        1 GK4      0.145800
      5 C19         2.0880   -0.1690    3.7310 cx        1 GK4     -0.213700
      6 C21         1.5010   -1.1310    4.7370 cx        1 GK4     -0.101400
      7 C20         2.6490   -1.5630    3.8820 cx        1 GK4     -0.101400
      8 C14         2.0540    0.5520   -1.2010 ca        1 GK4     -0.223600
      9 C13         3.4560    0.5180   -1.2950 ca        1 GK4     -0.061000
     10 C12         4.0640    0.3880   -2.5350 ca        1 GK4     -0.127000
     11 C15         1.2780    0.4710   -2.3720 ca        1 GK4     -0.061000
     12 C16         1.8950    0.3390   -3.6110 ca        1 GK4     -0.127000
     13 C11         3.2930    0.2910   -3.7110 cp        1 GK4      0.073000
     14 C9          3.9630    0.1040   -4.9960 cp        1 GK4     -0.103000
     15 C7          3.6450    0.8630   -6.1370 ca        1 GK4     -0.020300
     16 C8          2.6220    1.9340   -6.1230 c3        1 GK4     -0.071800
     17 C6          4.3300    0.6080   -7.3350 ca        1 GK4     -0.136000
     18 C5          5.3110   -0.3730   -7.4110 ca        1 GK4     -0.063000
     19 C10         4.9630   -0.8790   -5.0670 ca        1 GK4     -0.066000
     20 C4          5.6340   -1.1230   -6.2690 ca        1 GK4     -0.126500
     21 C3          6.6590   -2.1420   -6.3170 cc        1 GK4      0.490900
     22 N2          7.1820   -2.9470   -5.3640 nd        1 GK4     -0.342000
     23 N1          8.1070   -3.7180   -5.9060 nd        1 GK4     -0.347000
     24 O1          7.2910   -2.4170   -7.5430 os        1 GK4     -0.388800
     25 C2          8.2080   -3.4330   -7.2230 cc        1 GK4      0.480700
     26 C1          9.0490   -3.9610   -8.3060 c3        1 GK4     -0.131400
     27 HN3         2.6720   -0.4830    1.1580 hn        1 GK4      0.456300
     28 H18         0.5210   -0.6400    2.2900 hx        1 GK4      0.114700
     29 H18A        0.6890    1.1330    2.7010 hx        1 GK4      0.114700
     30 H19         2.6810    0.6850    4.1190 hc        1 GK4      0.106700
     31 H21         1.6690   -0.9260    5.8110 hc        1 GK4      0.094200
     32 H21A        0.4970   -1.5580    4.5530 hc        1 GK4      0.094200
     33 H20         2.4700   -2.3070    3.0840 hc        1 GK4      0.094200
     34 H20A        3.6480   -1.6830    4.3400 hc        1 GK4      0.094200
     35 H13         4.1000    0.6140   -0.4080 ha        1 GK4      0.147000
     36 H12         5.1650    0.3650   -2.6070 ha        1 GK4      0.172000
     37 H15         0.1760    0.5090   -2.3030 ha        1 GK4      0.147000
     38 H16         1.2790    0.2640   -4.5240 ha        1 GK4      0.172000
     39 H8          2.9140    2.7660   -6.8120 hc        1 GK4      0.056700
     40 H8A         2.4870    2.3610   -5.0990 hc        1 GK4      0.056700
     41 H8B         1.6380    1.5270   -6.4710 hc        1 GK4      0.056700
     42 H6          4.0850    1.2020   -8.2310 ha        1 GK4      0.154000
     43 H5          5.8380   -0.5660   -8.3600 ha        1 GK4      0.164000
     44 H10         5.2110   -1.4710   -4.1710 ha        1 GK4      0.157000
     45 H1          8.8150   -3.4400   -9.2670 hc        1 GK4      0.081367
     46 H1A         8.8630   -5.0590   -8.4260 hc        1 GK4      0.081367
     47 H1B        10.1290   -3.8060   -8.0540 hc        1 GK4      0.081367
     48 H32         2.7780    1.1390    1.4900 hn        1 GK4      0.456300
@<TRIPOS>BOND
     1    1    2 2   
     2    2    3 1   
     3    2    8 1   
     4    3    4 1   
     5    3   27 1   
     6    3   48 1   
     7    4    5 1   
     8    4   28 1   
     9    4   29 1   
    10    5    6 1   
    11    5    7 1   
    12    5   30 1   
    13    6    7 1   
    14    6   31 1   
    15    6   32 1   
    16    7   33 1   
    17    7   34 1   
    18    8    9 ar  
    19    8   11 ar  
    20    9   10 ar  
    21    9   35 1   
    22   10   13 ar  
    23   10   36 1   
    24   11   12 ar  
    25   11   37 1   
    26   12   13 ar  
    27   12   38 1   
    28   13   14 1   
    29   14   15 ar  
    30   14   19 ar  
    31   15   16 1   
    32   15   17 ar  
    33   16   39 1   
    34   16   40 1   
    35   16   41 1   
    36   17   18 ar  
    37   17   42 1   
    38   18   20 ar  
    39   18   43 1   
    40   19   20 ar  
    41   19   44 1   
    42   20   21 1   
    43   21   22 2   
    44   21   24 1   
    45   22   23 1   
    46   23   25 2   
    47   24   25 1   
    48   25   26 1   
    49   26   45 1   
    50   26   46 1   
    51   26   47 1   
@<TRIPOS>SUBSTRUCTURE
     1 GK4         1 TEMP              0 ****  ****    0 ROOT
