@<TRIPOS>MOLECULE
GK4
   48    51     1     0     0
SMALL
bcc


@<TRIPOS>ATOM
      1 O2          0.1590    1.0030    0.2310 o         1 GK4     -0.429100
      2 C17         1.3290    0.6890    0.0560 c         1 GK4      0.574700
      3 N3          2.1210    0.3740    1.3160 n4        1 GK4     -0.677800
      4 C18         1.2620    0.1820    2.5260 c3        1 GK4      0.145800
      5 C19         2.0850   -0.1630    3.7290 cx        1 GK4     -0.213700
      6 C21         1.4970   -1.1240    4.7350 cx        1 GK4     -0.101400
      7 C20         2.6460   -1.5560    3.8810 cx        1 GK4     -0.101400
      8 C14         2.0530    0.5550   -1.2030 ca        1 GK4     -0.223600
      9 C13         3.4550    0.5200   -1.2970 ca        1 GK4     -0.061000
     10 C12         4.0640    0.3870   -2.5360 ca        1 GK4     -0.127000
     11 C15         1.2780    0.4740   -2.3740 ca        1 GK4     -0.061000
     12 C16         1.8950    0.3390   -3.6130 ca        1 GK4     -0.127000
     13 C11         3.2930    0.2890   -3.7120 cp        1 GK4      0.073000
     14 C9          3.9630    0.1000   -4.9980 cp        1 GK4     -0.103000
     15 C7          3.6460    0.8570   -6.1400 ca        1 GK4     -0.020300
     16 C8          2.6240    1.9300   -6.1270 c3        1 GK4     -0.071800
     17 C6          4.3310    0.6000   -7.3370 ca        1 GK4     -0.136000
     18 C5          5.3100   -0.3830   -7.4110 ca        1 GK4     -0.063000
     19 C10         4.9620   -0.8840   -5.0670 ca        1 GK4     -0.066000
     20 C4          5.6330   -1.1310   -6.2690 ca        1 GK4     -0.126500
     21 C3          6.6570   -2.1510   -6.3140 cc        1 GK4      0.490900
     22 N2          7.1780   -2.9560   -5.3600 nd        1 GK4     -0.342000
     23 N1          8.1020   -3.7280   -5.9010 nd        1 GK4     -0.347000
     24 O1          7.2890   -2.4290   -7.5400 os        1 GK4     -0.388800
     25 C2          8.2040   -3.4460   -7.2180 cc        1 GK4      0.480700
     26 C1          9.0450   -3.9770   -8.3000 c3        1 GK4     -0.131400
     27 HN3         2.7770    1.1440    1.4880 hn        1 GK4      0.456300
     28 H18         0.6870    1.1390    2.6980 hx        1 GK4      0.114700
     29 H18A        0.5190   -0.6330    2.2880 hx        1 GK4      0.114700
     30 H19         2.6780    0.6910    4.1170 hc        1 GK4      0.106700
     31 H21         1.6650   -0.9190    5.8090 hc        1 GK4      0.094200
     32 H21A        0.4940   -1.5510    4.5500 hc        1 GK4      0.094200
     33 H20         3.6460   -1.6760    4.3390 hc        1 GK4      0.094200
     34 H20A        2.4670   -2.3000    3.0830 hc        1 GK4      0.094200
     35 H13         4.1000    0.6160   -0.4100 ha        1 GK4      0.147000
     36 H12         5.1650    0.3630   -2.6090 ha        1 GK4      0.172000
     37 H15         0.1760    0.5130   -2.3050 ha        1 GK4      0.147000
     38 H16         1.2790    0.2630   -4.5260 ha        1 GK4      0.172000
     39 H8          2.9170    2.7600   -6.8170 hc        1 GK4      0.056700
     40 H8A         1.6400    1.5230   -6.4750 hc        1 GK4      0.056700
     41 H8B         2.4890    2.3580   -5.1040 hc        1 GK4      0.056700
     42 H6          4.0870    1.1920   -8.2340 ha        1 GK4      0.154000
     43 H5          5.8380   -0.5770   -8.3600 ha        1 GK4      0.164000
     44 H10         5.2090   -1.4750   -4.1690 ha        1 GK4      0.157000
     45 H1          8.8580   -5.0750   -8.4170 hc        1 GK4      0.081367
     46 H1A         8.8100   -3.4580   -9.2620 hc        1 GK4      0.081367
     47 H1B        10.1250   -3.8210   -8.0490 hc        1 GK4      0.081367
     48 H32         2.6710   -0.4780    1.1560 hn        1 GK4      0.456300
@<TRIPOS>BOND
     1    1    2 2   
     2    2    3 1   
     3    2    8 1   
     4    3    4 1   
     5    3   27 1   
     6    3   48 1   
     7    4    5 1   
     8    4   28 1   
     9    4   29 1   
    10    5    6 1   
    11    5    7 1   
    12    5   30 1   
    13    6    7 1   
    14    6   31 1   
    15    6   32 1   
    16    7   33 1   
    17    7   34 1   
    18    8    9 ar  
    19    8   11 ar  
    20    9   10 ar  
    21    9   35 1   
    22   10   13 ar  
    23   10   36 1   
    24   11   12 ar  
    25   11   37 1   
    26   12   13 ar  
    27   12   38 1   
    28   13   14 1   
    29   14   15 ar  
    30   14   19 ar  
    31   15   16 1   
    32   15   17 ar  
    33   16   39 1   
    34   16   40 1   
    35   16   41 1   
    36   17   18 ar  
    37   17   42 1   
    38   18   20 ar  
    39   18   43 1   
    40   19   20 ar  
    41   19   44 1   
    42   20   21 1   
    43   21   22 2   
    44   21   24 1   
    45   22   23 1   
    46   23   25 2   
    47   24   25 1   
    48   25   26 1   
    49   26   45 1   
    50   26   46 1   
    51   26   47 1   
@<TRIPOS>SUBSTRUCTURE
     1 GK4         1 TEMP              0 ****  ****    0 ROOT
