@<TRIPOS>MOLECULE
GK4
   47    39     1     0     0
SMALL
bcc


@<TRIPOS>ATOM
      1 O2         -2.4620   -0.2600    3.3560 o         1 GK4     -0.362000
      2 C17        -2.0640    0.7360    2.7790 c1        1 GK4      0.339000
      3 N3         -2.4910    2.0360    3.2130 n2        1 GK4     -0.364000
      4 C18        -2.4620    2.3730    4.6130 c3        1 GK4     -0.006000
      5 C19        -3.8830    2.7180    5.0870 cx        1 GK4     -0.205000
      6 C21        -4.4810    1.7760    6.1200 cx        1 GK4     -0.202500
      7 C20        -4.0060    3.1590    6.5370 cx        1 GK4     -0.202500
      8 C14        -1.1520    0.5990    1.5570 c1        1 GK4     -0.115000
      9 C13         0.2300    0.5640    1.7210 c1        1 GK4     -0.100000
     10 C12         1.0570    0.3410    0.6230 c1        1 GK4     -0.100000
     11 C15        -1.7070    0.4110    0.2930 c1        1 GK4     -0.109000
     12 C16        -0.8800    0.1890   -0.8050 c1        1 GK4     -0.105000
     13 C11         0.5020    0.1540   -0.6400 c1        1 GK4     -0.035750
     14 C9          1.3380   -0.0910   -1.7480 c1        1 GK4     -0.035750
     15 C7          1.9600    0.9720   -2.3990 c1        1 GK4     -0.035750
     16 C8          1.6260    2.4120   -2.0020 c2        1 GK4     -0.168000
     17 C6          2.8350    0.7270   -3.4530 c1        1 GK4     -0.105000
     18 C5          3.0890   -0.5820   -3.8570 c1        1 GK4     -0.105000
     19 C10         1.5930   -1.3990   -2.1510 c1        1 GK4     -0.105000
     20 C4          2.4690   -1.6440   -3.2060 c1        1 GK4     -0.035750
     21 C3          2.7240   -2.9590   -3.6130 c1        1 GK4     -0.007500
     22 N2          3.3950   -3.8890   -2.9080 n2        1 GK4     -0.083000
     23 N1          3.4990   -5.0020   -3.6740 n2        1 GK4     -0.083000
     24 O1          2.4110   -3.4930   -4.8160 os        1 GK4     -0.137000
     25 C2          2.8920   -4.7570   -4.8500 c1        1 GK4     -0.007500
     26 C1          2.7730   -5.7300   -6.0190 c2        1 GK4     -0.168000
     27 HN3        -2.7900    2.6490    2.6000 hn        1 GK4      0.217000
     28 H18        -2.1210    1.6090    5.1270 h1        1 GK4      0.106000
     29 H18A       -1.8730    3.1490    4.7500 h1        1 GK4      0.106000
     30 H19        -4.5220    3.1260    4.4620 hc        1 GK4      0.114000
     31 H21        -5.4550    1.6560    6.0740 hc        1 GK4      0.114250
     32 H21A       -3.9090    1.0290    6.3960 hc        1 GK4      0.114250
     33 H20        -3.1680    3.1860    7.0470 hc        1 GK4      0.114250
     34 H20A       -4.7140    3.8140    6.7250 hc        1 GK4      0.114250
     35 H13         0.6220    0.6950    2.6110 ha        1 GK4      0.152500
     36 H12         2.0310    0.3160    0.7400 ha        1 GK4      0.152500
     37 H15        -2.6810    0.4360    0.1760 ha        1 GK4      0.134000
     38 H16        -1.2710    0.0570   -1.6950 ha        1 GK4      0.148750
     39 H8          0.7090    2.6260   -2.2840 ha        1 GK4      0.102167
     40 H8A         1.7010    2.5090   -1.0280 ha        1 GK4      0.102167
     41 H8B         2.2550    3.0270   -2.4410 ha        1 GK4      0.102167
     42 H6          3.2720    1.4760   -3.9120 ha        1 GK4      0.148750
     43 H5          3.7070   -0.7550   -4.6010 ha        1 GK4      0.148750
     44 H10         1.1560   -2.1470   -1.6930 ha        1 GK4      0.148750
     45 H1          3.5420   -5.6150   -6.6200 ha        1 GK4      0.102167
     46 H1A         2.7600   -6.6520   -5.6780 ha        1 GK4      0.102167
     47 H1B         1.9430   -5.5510   -6.5110 ha        1 GK4      0.102167
@<TRIPOS>BOND
     1    1    2 1   
     2    2    8 1   
     3    3    4 1   
     4    3   27 1   
     5    4    5 1   
     6    4   28 1   
     7    4   29 1   
     8    5    6 1   
     9    5    7 1   
    10    5   30 1   
    11    6    7 1   
    12    6   31 1   
    13    6   32 1   
    14    7   33 1   
    15    7   34 1   
    16    8   11 1   
    17    9   10 1   
    18    9   35 1   
    19   10   36 1   
    20   11   37 1   
    21   12   13 1   
    22   12   38 1   
    23   14   19 1   
    24   15   17 1   
    25   16   39 1   
    26   16   40 1   
    27   16   41 1   
    28   17   42 1   
    29   18   20 1   
    30   18   43 1   
    31   19   44 1   
    32   21   22 1   
    33   21   24 1   
    34   22   23 1   
    35   23   25 1   
    36   24   25 1   
    37   26   45 1   
    38   26   46 1   
    39   26   47 1   
@<TRIPOS>SUBSTRUCTURE
     1 GK4         1 TEMP              0 ****  ****    0 ROOT
