@<TRIPOS>MOLECULE
GK5
   52    55     1     0     0
SMALL
bcc


@<TRIPOS>ATOM
      1 C9         -0.0180    0.0540   -0.1190 c3        1 GK5     -0.088800
      2 C22         8.4190    0.4670    2.5950 cx        1 GK5     -0.097900
      3 C21         7.8550    1.3440    1.5220 cx        1 GK5     -0.097900
      4 C18         7.6340   -0.1530    1.4550 cx        1 GK5     -0.011500
      5 C26        -2.3060   -2.1310  -10.0780 cx        1 GK5     -0.096900
      6 C25        -2.0090   -2.9930   -8.8950 cx        1 GK5     -0.096900
      7 C24        -0.9870   -1.9800   -9.3540 cx        1 GK5     -0.222700
      8 C4          1.4280   -0.2440   -0.0070 ca        1 GK5      0.032700
      9 C8          1.9820   -0.3980    1.2770 ca        1 GK5     -0.125000
     10 C13         3.3310   -0.6730    1.4530 ca        1 GK5     -0.073000
     11 C7          4.1650   -0.8040    0.3310 ca        1 GK5     -0.209600
     12 C12         5.5910   -1.1270    0.4140 c         1 GK5      0.576700
     13 O16         6.2790   -1.6740   -0.4360 o         1 GK5     -0.415100
     14 N15         6.3040   -0.7380    1.7010 n4        1 GK5     -0.637800
     15 C3          3.6210   -0.6730   -0.9570 ca        1 GK5     -0.023000
     16 C1          2.2610   -0.3860   -1.1320 cp        1 GK5     -0.075000
     17 C2          1.7480   -0.2490   -2.5000 cp        1 GK5      0.020000
     18 C5          1.0700    0.9100   -2.8980 ca        1 GK5     -0.114500
     19 C10         0.6040    1.0420   -4.2040 ca        1 GK5     -0.062000
     20 C14         0.7990    0.0010   -5.1300 ca        1 GK5     -0.194600
     21 C11         1.4790   -1.1600   -4.7360 ca        1 GK5     -0.062000
     22 C6          1.9530   -1.2790   -3.4330 ca        1 GK5     -0.114500
     23 C17         0.2940    0.2290   -6.4890 c         1 GK5      0.562700
     24 O20         0.0240    1.3040   -7.0050 o         1 GK5     -0.403100
     25 N19         0.0600   -1.0010   -7.3390 n4        1 GK5     -0.675800
     26 C23        -0.7670   -0.7280   -8.5620 c3        1 GK5      0.148800
     27 H9         -0.4260   -0.2510   -1.1150 hc        1 GK5      0.075700
     28 H9A        -0.5960   -0.4800    0.6770 hc        1 GK5      0.075700
     29 H9B        -0.1870    1.1550    0.0110 hc        1 GK5      0.075700
     30 H21         7.0160    2.0220    1.7690 hc        1 GK5      0.113950
     31 H21A        8.5280    1.7920    0.7640 hc        1 GK5      0.113950
     32 H18         8.1780   -0.7500    0.6830 hx        1 GK5      0.163700
     33 H26        -3.0640   -1.3300   -9.9910 hc        1 GK5      0.096950
     34 H26A       -2.2920   -2.5730  -11.0930 hc        1 GK5      0.096950
     35 H25        -2.5610   -2.8140   -7.9540 hc        1 GK5      0.096950
     36 H25A       -1.7940   -4.0670   -9.0490 hc        1 GK5      0.096950
     37 H24        -0.0740   -2.3440   -9.8680 hc        1 GK5      0.109700
     38 H8          1.3250   -0.3050    2.1590 ha        1 GK5      0.177000
     39 H13         3.7070   -0.8150    2.4780 ha        1 GK5      0.140000
     40 HN15        5.7260   -0.0730    2.2260 hn        1 GK5      0.459800
     41 H3          4.2740   -0.7980   -1.8390 ha        1 GK5      0.168000
     42 H5          0.9060    1.7300   -2.1780 ha        1 GK5      0.168500
     43 H10         0.0860    1.9660   -4.5160 ha        1 GK5      0.159000
     44 H11         1.6720   -1.9860   -5.4380 ha        1 GK5      0.159000
     45 H6          2.4910   -2.1930   -3.1300 ha        1 GK5      0.168500
     46 HN19       -0.4100   -1.7160   -6.7720 hn        1 GK5      0.458300
     47 H23        -0.2240    0.0440   -9.1810 hx        1 GK5      0.117700
     48 H23A       -1.7440   -0.2810   -8.2170 hx        1 GK5      0.117700
     49 H22         9.5090    0.2640    2.6280 hc        1 GK5      0.113950
     50 H152        6.4310   -1.5870    2.2690 hn        1 GK5      0.459800
     51 H192        0.9700   -1.3760   -7.6310 hn        1 GK5      0.458300
     52 H22A        7.9860    0.5130    3.6120 hc        1 GK5      0.113950
@<TRIPOS>BOND
     1    1    8 1   
     2    1   27 1   
     3    1   28 1   
     4    1   29 1   
     5    2    3 1   
     6    2    4 1   
     7    2   49 1   
     8    2   52 1   
     9    3    4 1   
    10    3   30 1   
    11    3   31 1   
    12    4   14 1   
    13    4   32 1   
    14    5    6 1   
    15    5    7 1   
    16    5   33 1   
    17    5   34 1   
    18    6    7 1   
    19    6   35 1   
    20    6   36 1   
    21    7   26 1   
    22    7   37 1   
    23    8    9 ar  
    24    8   16 ar  
    25    9   10 ar  
    26    9   38 1   
    27   10   11 ar  
    28   10   39 1   
    29   11   12 1   
    30   11   15 ar  
    31   12   13 2   
    32   12   14 1   
    33   14   40 1   
    34   14   50 1   
    35   15   16 ar  
    36   15   41 1   
    37   16   17 1   
    38   17   18 ar  
    39   17   22 ar  
    40   18   19 ar  
    41   18   42 1   
    42   19   20 ar  
    43   19   43 1   
    44   20   21 ar  
    45   20   23 1   
    46   21   22 ar  
    47   21   44 1   
    48   22   45 1   
    49   23   24 2   
    50   23   25 1   
    51   25   26 1   
    52   25   46 1   
    53   25   51 1   
    54   26   47 1   
    55   26   48 1   
@<TRIPOS>SUBSTRUCTURE
     1 GK5         1 TEMP              0 ****  ****    0 ROOT
