@<TRIPOS>MOLECULE
GK5
   50    53     1     0     0
SMALL
bcc


@<TRIPOS>ATOM
      1 C9          0.8880    3.6210    0.8930 c3        1 GK5     -0.064800
      2 C22         8.0120   -1.7290    0.0880 cx        1 GK5     -0.154400
      3 C21         7.4100   -2.0610   -1.2460 cx        1 GK5     -0.154400
      4 C18         6.5140   -1.9320   -0.0290 cx        1 GK5      0.053700
      5 C26        -8.2310   -2.1930    0.3240 cx        1 GK5     -0.129400
      6 C25        -7.0890   -2.3180    1.2870 cx        1 GK5     -0.129400
      7 C24        -6.8400   -1.8190   -0.1120 cx        1 GK5     -0.157700
      8 C4          1.7510    2.4200    0.8030 ca        1 GK5     -0.036300
      9 C8          3.1080    2.5390    1.1360 ca        1 GK5     -0.143000
     10 C13         3.9640    1.4440    1.0710 ca        1 GK5     -0.097000
     11 C7          3.4650    0.2000    0.6740 ca        1 GK5     -0.148600
     12 C12         4.3280   -1.0160    0.6130 c         1 GK5      0.679700
     13 O16         3.9110   -2.1310    0.9850 o         1 GK5     -0.600100
     14 N15         5.6090   -0.8490    0.1190 n         1 GK5     -0.541900
     15 C3          2.1130    0.0630    0.3540 ca        1 GK5     -0.064000
     16 C1          1.2500    1.1680    0.4040 cp        1 GK5     -0.053000
     17 C2         -0.1560    0.9640    0.0480 cp        1 GK5     -0.019000
     18 C5         -0.7880    1.7790   -0.9000 ca        1 GK5     -0.126000
     19 C10        -2.1180    1.5570   -1.2450 ca        1 GK5     -0.093500
     20 C14        -2.8380    0.5220   -0.6370 ca        1 GK5     -0.136600
     21 C11        -2.2110   -0.3020    0.3010 ca        1 GK5     -0.093500
     22 C6         -0.8770   -0.0850    0.6380 ca        1 GK5     -0.126000
     23 C17        -4.2590    0.3190   -1.0460 c         1 GK5      0.665700
     24 O20        -4.6240    0.4930   -2.2270 o         1 GK5     -0.602100
     25 N19        -5.1670    0.0030   -0.0510 n         1 GK5     -0.557900
     26 C23        -6.5280   -0.3600   -0.3400 c3        1 GK5      0.110000
     27 H9          0.9330    4.1950   -0.0670 hc        1 GK5      0.052033
     28 H9A        -0.1770    3.3420    1.0850 hc        1 GK5      0.052033
     29 H9B         1.2320    4.2940    1.7170 hc        1 GK5      0.052033
     30 H22A        8.4210   -0.7150    0.2480 hc        1 GK5      0.073950
     31 H21         7.3920   -1.2820   -2.0280 hc        1 GK5      0.073950
     32 H21A        7.5600   -3.0680   -1.6730 hc        1 GK5      0.073950
     33 H18         6.0840   -2.8700    0.3970 h1        1 GK5      0.122700
     34 H26        -8.6880   -3.1080   -0.0920 hc        1 GK5      0.071950
     35 H26A       -8.9780   -1.3930    0.4780 hc        1 GK5      0.071950
     36 H25        -7.0200   -1.6070    2.1290 hc        1 GK5      0.071950
     37 H25A       -6.7290   -3.3240    1.5670 hc        1 GK5      0.071950
     38 H24        -6.3150   -2.4890   -0.8210 hc        1 GK5      0.089700
     39 H8          3.4980    3.5160    1.4590 ha        1 GK5      0.138000
     40 H13         5.0210    1.5640    1.3520 ha        1 GK5      0.137000
     41 HN15        5.8830    0.0360   -0.2330 hn        1 GK5      0.311500
     42 H3          1.7240   -0.9280    0.0640 ha        1 GK5      0.159000
     43 H5         -0.2250    2.5940   -1.3810 ha        1 GK5      0.144000
     44 H10        -2.6120    2.1830   -2.0060 ha        1 GK5      0.146000
     45 H11        -2.7510   -1.1400    0.7670 ha        1 GK5      0.146000
     46 H6         -0.3820   -0.7400    1.3730 ha        1 GK5      0.144000
     47 HN19       -4.8200   -0.2460    0.8450 hn        1 GK5      0.306500
     48 H23        -6.7550   -0.1030   -1.4160 h1        1 GK5      0.066200
     49 H23A       -7.1950    0.2710    0.3200 h1        1 GK5      0.066200
     50 H22         8.5970   -2.4950    0.6260 hc        1 GK5      0.073950
@<TRIPOS>BOND
     1    1    8 1   
     2    1   27 1   
     3    1   28 1   
     4    1   29 1   
     5    2    3 1   
     6    2    4 1   
     7    2   30 1   
     8    2   50 1   
     9    3    4 1   
    10    3   31 1   
    11    3   32 1   
    12    4   14 1   
    13    4   33 1   
    14    5    6 1   
    15    5    7 1   
    16    5   34 1   
    17    5   35 1   
    18    6    7 1   
    19    6   36 1   
    20    6   37 1   
    21    7   26 1   
    22    7   38 1   
    23    8    9 ar  
    24    8   16 ar  
    25    9   10 ar  
    26    9   39 1   
    27   10   11 ar  
    28   10   40 1   
    29   11   12 1   
    30   11   15 ar  
    31   12   13 2   
    32   12   14 1   
    33   14   41 1   
    34   15   16 ar  
    35   15   42 1   
    36   16   17 1   
    37   17   18 ar  
    38   17   22 ar  
    39   18   19 ar  
    40   18   43 1   
    41   19   20 ar  
    42   19   44 1   
    43   20   21 ar  
    44   20   23 1   
    45   21   22 ar  
    46   21   45 1   
    47   22   46 1   
    48   23   24 2   
    49   23   25 1   
    50   25   26 1   
    51   25   47 1   
    52   26   48 1   
    53   26   49 1   
@<TRIPOS>SUBSTRUCTURE
     1 GK5         1 TEMP              0 ****  ****    0 ROOT
