@<TRIPOS>MOLECULE
GK5
   52    55     1     0     0
SMALL
bcc


@<TRIPOS>ATOM
      1 C9         -0.0220    0.1300   -0.1400 c3        1 GK5     -0.088800
      2 C22         8.4040    0.4160    2.6190 cx        1 GK5     -0.097900
      3 C21         7.8610    1.2900    1.5320 cx        1 GK5     -0.097900
      4 C18         7.6140   -0.2030    1.4820 cx        1 GK5     -0.011500
      5 C26        -2.2970   -2.1280  -10.0830 cx        1 GK5     -0.096900
      6 C25        -2.0210   -2.9820   -8.8880 cx        1 GK5     -0.096900
      7 C24        -0.9790   -1.9940   -9.3540 cx        1 GK5     -0.222700
      8 C4          1.4170   -0.1950   -0.0140 ca        1 GK5      0.032700
      9 C8          1.9610   -0.3450    1.2740 ca        1 GK5     -0.125000
     10 C13         3.3020   -0.6440    1.4610 ca        1 GK5     -0.073000
     11 C7          4.1400   -0.8030    0.3460 ca        1 GK5     -0.209600
     12 C12         5.5590   -1.1530    0.4420 c         1 GK5      0.576700
     13 O16         6.2420   -1.7240   -0.3970 o         1 GK5     -0.415100
     14 N15         6.2720   -0.7620    1.7280 n4        1 GK5     -0.637800
     15 C3          3.6070   -0.6780   -0.9460 ca        1 GK5     -0.023000
     16 C1          2.2540   -0.3660   -1.1330 cp        1 GK5     -0.075000
     17 C2          1.7520   -0.2350   -2.5060 cp        1 GK5      0.020000
     18 C5          1.0980    0.9320   -2.9210 ca        1 GK5     -0.114500
     19 C10         0.6420    1.0570   -4.2320 ca        1 GK5     -0.062000
     20 C14         0.8230    0.0030   -5.1440 ca        1 GK5     -0.194600
     21 C11         1.4780   -1.1670   -4.7320 ca        1 GK5     -0.062000
     22 C6          1.9420   -1.2800   -3.4260 ca        1 GK5     -0.114500
     23 C17         0.3300    0.2240   -6.5080 c         1 GK5      0.562700
     24 O20         0.0840    1.2980   -7.0390 o         1 GK5     -0.403100
     25 N19         0.0770   -1.0110   -7.3460 n4        1 GK5     -0.675800
     26 C23        -0.7390   -0.7370   -8.5760 c3        1 GK5      0.148800
     27 H9         -0.1710    1.2350   -0.0230 hc        1 GK5      0.075700
     28 H9A        -0.6150   -0.3830    0.6600 hc        1 GK5      0.075700
     29 H9B        -0.4300   -0.1780   -1.1330 hc        1 GK5      0.075700
     30 H21         7.0320    1.9850    1.7670 hc        1 GK5      0.113950
     31 H21A        8.5460    1.7180    0.7730 hc        1 GK5      0.113950
     32 H18         8.1510   -0.8190    0.7200 hx        1 GK5      0.163700
     33 H26        -3.0410   -1.3130  -10.0090 hc        1 GK5      0.096950
     34 H26A       -2.2860   -2.5830  -11.0920 hc        1 GK5      0.096950
     35 H25        -2.5740   -2.7830   -7.9520 hc        1 GK5      0.096950
     36 H25A       -1.8250   -4.0620   -9.0290 hc        1 GK5      0.096950
     37 H24        -0.0700   -2.3800   -9.8600 hc        1 GK5      0.109700
     38 H8          1.3000   -0.2280    2.1510 ha        1 GK5      0.177000
     39 H13         3.6700   -0.7810    2.4900 ha        1 GK5      0.140000
     40 HN15        5.7030   -0.0810    2.2420 hn        1 GK5      0.459800
     41 H3          4.2630   -0.8260   -1.8230 ha        1 GK5      0.168000
     42 H5          0.9460    1.7630   -2.2110 ha        1 GK5      0.168500
     43 H10         0.1440    1.9880   -4.5570 ha        1 GK5      0.159000
     44 H11         1.6590   -2.0050   -5.4240 ha        1 GK5      0.159000
     45 H6          2.4600   -2.2010   -3.1090 ha        1 GK5      0.168500
     46 HN19        0.9810   -1.4060   -7.6290 hn        1 GK5      0.458300
     47 H23        -1.7090   -0.2670   -8.2400 hx        1 GK5      0.117700
     48 H23A       -0.1780    0.0180   -9.2010 hx        1 GK5      0.117700
     49 H22         7.9660    0.4820    3.6330 hc        1 GK5      0.113950
     50 H152        6.3820   -1.6070    2.3060 hn        1 GK5      0.459800
     51 H192       -0.4080   -1.7110   -6.7730 hn        1 GK5      0.458300
     52 H22A        9.4900    0.1940    2.6600 hc        1 GK5      0.113950
@<TRIPOS>BOND
     1    1    8 1   
     2    1   27 1   
     3    1   28 1   
     4    1   29 1   
     5    2    3 1   
     6    2    4 1   
     7    2   49 1   
     8    2   52 1   
     9    3    4 1   
    10    3   30 1   
    11    3   31 1   
    12    4   14 1   
    13    4   32 1   
    14    5    6 1   
    15    5    7 1   
    16    5   33 1   
    17    5   34 1   
    18    6    7 1   
    19    6   35 1   
    20    6   36 1   
    21    7   26 1   
    22    7   37 1   
    23    8    9 ar  
    24    8   16 ar  
    25    9   10 ar  
    26    9   38 1   
    27   10   11 ar  
    28   10   39 1   
    29   11   12 1   
    30   11   15 ar  
    31   12   13 2   
    32   12   14 1   
    33   14   40 1   
    34   14   50 1   
    35   15   16 ar  
    36   15   41 1   
    37   16   17 1   
    38   17   18 ar  
    39   17   22 ar  
    40   18   19 ar  
    41   18   42 1   
    42   19   20 ar  
    43   19   43 1   
    44   20   21 ar  
    45   20   23 1   
    46   21   22 ar  
    47   21   44 1   
    48   22   45 1   
    49   23   24 2   
    50   23   25 1   
    51   25   26 1   
    52   25   46 1   
    53   25   51 1   
    54   26   47 1   
    55   26   48 1   
@<TRIPOS>SUBSTRUCTURE
     1 GK5         1 TEMP              0 ****  ****    0 ROOT
