@<TRIPOS>MOLECULE
GK5
   52    55     1     0     0
SMALL
bcc


@<TRIPOS>ATOM
      1 C9         -0.0200    0.1010   -0.1320 c3        1 GK5     -0.088800
      2 C22         8.4100    0.4440    2.6080 cx        1 GK5     -0.097900
      3 C21         7.8570    1.3190    1.5270 cx        1 GK5     -0.097900
      4 C18         7.6220   -0.1760    1.4700 cx        1 GK5     -0.011500
      5 C26        -2.2960   -2.1350  -10.0830 cx        1 GK5     -0.096900
      6 C25        -2.0120   -2.9920   -8.8920 cx        1 GK5     -0.096900
      7 C24        -0.9790   -1.9920   -9.3550 cx        1 GK5     -0.222700
      8 C4          1.4210   -0.2120   -0.0120 ca        1 GK5      0.032700
      9 C8          1.9700   -0.3630    1.2750 ca        1 GK5     -0.125000
     10 C13         3.3140   -0.6520    1.4580 ca        1 GK5     -0.073000
     11 C7          4.1500   -0.8000    0.3400 ca        1 GK5     -0.209600
     12 C12         5.5720   -1.1380    0.4310 c         1 GK5      0.576700
     13 O16         6.2580   -1.6990   -0.4130 o         1 GK5     -0.415100
     14 N15         6.2860   -0.7470    1.7160 ny        1 GK5     -0.637800
     15 C3          3.6130   -0.6730   -0.9510 ca        1 GK5     -0.023000
     16 C1          2.2570   -0.3720   -1.1330 cp        1 GK5     -0.075000
     17 C2          1.7500   -0.2400   -2.5040 cp        1 GK5      0.020000
     18 C5          1.0850    0.9240   -2.9130 ca        1 GK5     -0.114500
     19 C10         0.6260    1.0500   -4.2220 ca        1 GK5     -0.062000
     20 C14         0.8130    0.0010   -5.1380 ca        1 GK5     -0.194600
     21 C11         1.4790   -1.1650   -4.7340 ca        1 GK5     -0.062000
     22 C6          1.9480   -1.2790   -3.4290 ca        1 GK5     -0.114500
     23 C17         0.3150    0.2240   -6.5010 c         1 GK5      0.562700
     24 O20         0.0570    1.2980   -7.0260 o         1 GK5     -0.403100
     25 N19         0.0710   -1.0090   -7.3430 ny        1 GK5     -0.675800
     26 C23        -0.7500   -0.7370   -8.5720 c3        1 GK5      0.148800
     27 H9         -0.6080   -0.4200    0.6670 hc        1 GK5      0.075700
     28 H9A        -0.1780    1.2040   -0.0110 hc        1 GK5      0.075700
     29 H9B        -0.4290   -0.2070   -1.1260 hc        1 GK5      0.075700
     30 H21         8.5370    1.7560    0.7680 hc        1 GK5      0.113950
     31 H21A        7.0230    2.0060    1.7670 hc        1 GK5      0.113950
     32 H18         8.1620   -0.7840    0.7040 hx        1 GK5      0.163700
     33 H26        -3.0470   -1.3270  -10.0050 hc        1 GK5      0.096950
     34 H26A       -2.2830   -2.5850  -11.0950 hc        1 GK5      0.096950
     35 H25        -1.8070   -4.0690   -9.0390 hc        1 GK5      0.096950
     36 H25A       -2.5660   -2.8020   -7.9550 hc        1 GK5      0.096950
     37 H24        -0.0670   -2.3690   -9.8640 hc        1 GK5      0.109700
     38 H8          1.3100   -0.2560    2.1540 ha        1 GK5      0.177000
     39 H13         3.6850   -0.7900    2.4850 ha        1 GK5      0.140000
     40 HN15        6.4030   -1.5930    2.2910 hn        1 GK5      0.459800
     41 H3          4.2680   -0.8120   -1.8300 ha        1 GK5      0.168000
     42 H5          0.9280    1.7500   -2.1990 ha        1 GK5      0.168500
     43 H10         0.1180    1.9780   -4.5420 ha        1 GK5      0.159000
     44 H11         1.6650   -1.9980   -5.4290 ha        1 GK5      0.159000
     45 H6          2.4740   -2.1970   -3.1170 ha        1 GK5      0.168500
     46 HN19       -0.4070   -1.7160   -6.7730 hn        1 GK5      0.458300
     47 H23        -1.7230   -0.2780   -8.2320 hx        1 GK5      0.117700
     48 H23A       -0.1960    0.0260   -9.1940 hx        1 GK5      0.117700
     49 H22         7.9740    0.5020    3.6230 hc        1 GK5      0.113950
     50 H152        5.7120   -0.0730    2.2350 hn        1 GK5      0.459800
     51 H192        0.9780   -1.3950   -7.6300 hn        1 GK5      0.458300
     52 H22A        9.4980    0.2310    2.6450 hc        1 GK5      0.113950
@<TRIPOS>BOND
     1    1    8 1   
     2    1   27 1   
     3    1   28 1   
     4    1   29 1   
     5    2    3 1   
     6    2    4 1   
     7    2   49 1   
     8    2   52 1   
     9    3    4 1   
    10    3   30 1   
    11    3   31 1   
    12    4   14 1   
    13    4   32 1   
    14    5    6 1   
    15    5    7 1   
    16    5   33 1   
    17    5   34 1   
    18    6    7 1   
    19    6   35 1   
    20    6   36 1   
    21    7   26 1   
    22    7   37 1   
    23    8    9 ar  
    24    8   16 ar  
    25    9   10 ar  
    26    9   38 1   
    27   10   11 ar  
    28   10   39 1   
    29   11   12 1   
    30   11   15 ar  
    31   12   13 2   
    32   12   14 1   
    33   14   40 1   
    34   14   50 1   
    35   15   16 ar  
    36   15   41 1   
    37   16   17 1   
    38   17   18 ar  
    39   17   22 ar  
    40   18   19 ar  
    41   18   42 1   
    42   19   20 ar  
    43   19   43 1   
    44   20   21 ar  
    45   20   23 1   
    46   21   22 ar  
    47   21   44 1   
    48   22   45 1   
    49   23   24 2   
    50   23   25 1   
    51   25   26 1   
    52   25   46 1   
    53   25   51 1   
    54   26   47 1   
    55   26   48 1   
@<TRIPOS>SUBSTRUCTURE
     1 GK5         1 TEMP              0 ****  ****    0 ROOT
