@<TRIPOS>MOLECULE
GK6
   66    70     1     0     0
SMALL
bcc


@<TRIPOS>ATOM
      1 O3         -0.0170   -0.4480   -0.1650 o         1 GK6     -0.433100
      2 C24         1.1920   -0.2580   -0.1970 c         1 GK6      0.574700
      3 N4          1.8650   -0.0840    1.1570 ny        1 GK6     -0.677800
      4 C25         0.9000    0.1570    2.2760 c3        1 GK6      0.144800
      5 C26         1.6070    0.2570    3.5930 cx        1 GK6     -0.213700
      6 C28         0.9020   -0.2830    4.8140 cx        1 GK6     -0.101400
      7 C27         2.1010   -0.9950    4.2760 cx        1 GK6     -0.101400
      8 C21         2.0620   -0.1600   -1.3610 ca        1 GK6     -0.226600
      9 C20         1.4310    0.0030   -2.6100 ca        1 GK6     -0.061000
     10 C19         2.1910    0.0990   -3.7690 ca        1 GK6     -0.129000
     11 C22         3.4650   -0.2380   -1.3020 ca        1 GK6     -0.061000
     12 C23         4.2160   -0.1400   -2.4630 ca        1 GK6     -0.129000
     13 C18         3.5920    0.0350   -3.7140 cp        1 GK6      0.078000
     14 C17         4.3810    0.1190   -4.9420 cp        1 GK6     -0.068000
     15 C2          5.4790    0.9860   -5.0640 ca        1 GK6     -0.075300
     16 C1          5.9100    1.8960   -3.9770 c3        1 GK6     -0.057800
     17 C16         4.0030   -0.6970   -6.0170 ca        1 GK6     -0.169000
     18 C5          4.7250   -0.6860   -7.2310 ca        1 GK6      0.083600
     19 C4          5.8350    0.1850   -7.3390 ca        1 GK6     -0.123000
     20 C3          6.1860    1.0000   -6.2740 ca        1 GK6     -0.103000
     21 N1          4.3160   -1.5420   -8.2610 ns        1 GK6     -0.474100
     22 C6          4.7920   -1.5690   -9.5720 c         1 GK6      0.682700
     23 O1          5.6610   -0.7850   -9.9870 o         1 GK6     -0.563100
     24 C7          4.1700   -2.5940  -10.4630 ca        1 GK6     -0.089600
     25 C11         3.8900   -2.2340  -11.7800 ca        1 GK6     -0.226300
     26 C10         3.3080   -3.2040  -12.6580 ca        1 GK6      0.636200
     27 N2          3.0310   -4.4740  -12.2170 nb        1 GK6     -0.697000
     28 C9          3.3390   -4.7870  -10.9510 ca        1 GK6      0.432200
     29 C8          3.9010   -3.8940  -10.0230 ca        1 GK6     -0.273300
     30 N3          3.1110   -2.8610  -14.0200 nh        1 GK6     -0.730300
     31 C15         2.6900   -3.9270  -14.9220 c3        1 GK6      0.151800
     32 C14         2.6720   -3.4660  -16.3860 c3        1 GK6      0.121400
     33 O2          1.9120   -2.2750  -16.5540 os        1 GK6     -0.407600
     34 C13         2.3970   -1.2180  -15.7380 c3        1 GK6      0.121400
     35 C12         2.4020   -1.6080  -14.2530 c3        1 GK6      0.151800
     36 HN4         2.5200    0.7020    1.0970 hn        1 GK6      0.455300
     37 H25         0.3440    1.1120    2.0490 hx        1 GK6      0.115200
     38 H25A        0.1550   -0.6920    2.2740 hx        1 GK6      0.115200
     39 H26         2.1970    1.1900    3.7070 hc        1 GK6      0.105700
     40 H28        -0.0970   -0.7420    4.7010 hc        1 GK6      0.094200
     41 H28A        0.9870    0.2890    5.7580 hc        1 GK6      0.094200
     42 H27         3.0540   -0.9510    4.8360 hc        1 GK6      0.094200
     43 H27A        1.9620   -1.9720    3.7780 hc        1 GK6      0.094200
     44 H20         0.3290    0.0540   -2.6620 ha        1 GK6      0.146000
     45 H19         1.6890    0.2330   -4.7430 ha        1 GK6      0.171500
     46 H22         3.9970   -0.4000   -0.3530 ha        1 GK6      0.146000
     47 H23         5.3160   -0.2080   -2.4170 ha        1 GK6      0.171500
     48 H1          5.0640    2.1470   -3.2910 hc        1 GK6      0.048033
     49 H1A         6.7250    1.4180   -3.3770 hc        1 GK6      0.048033
     50 H1B         6.3090    2.8510   -4.4020 hc        1 GK6      0.048033
     51 H16         3.1340   -1.3620   -5.8940 ha        1 GK6      0.132000
     52 H4          6.4290    0.2290   -8.2700 ha        1 GK6      0.189000
     53 H3          7.0480    1.6790   -6.3820 ha        1 GK6      0.150000
     54 HN1         3.5780   -2.1720   -8.0370 hn        1 GK6      0.323500
     55 H11         4.1540   -1.2260  -12.1330 ha        1 GK6      0.169000
     56 H9          3.1110   -5.8300  -10.6600 h4        1 GK6      0.030100
     57 H8          4.1390   -4.2310   -9.0070 ha        1 GK6      0.144000
     58 H15         3.4180   -4.7800  -14.8310 h1        1 GK6      0.056450
     59 H15A        1.6630   -4.3060  -14.6520 h1        1 GK6      0.056450
     60 H14         3.7150   -3.3040  -16.7670 h1        1 GK6      0.061700
     61 H14A        2.1430   -4.2280  -17.0170 h1        1 GK6      0.061700
     62 H13         1.6750   -0.3760  -15.9070 h1        1 GK6      0.061700
     63 H13A        3.4260   -0.9210  -16.0730 h1        1 GK6      0.061700
     64 H12         2.9050   -0.7830  -13.6780 h1        1 GK6      0.056450
     65 H12A        1.3330   -1.6840  -13.9000 h1        1 GK6      0.056450
     66 H42         2.4060   -0.9310    1.3640 hn        1 GK6      0.455300
@<TRIPOS>BOND
     1    1    2 2   
     2    2    3 1   
     3    2    8 1   
     4    3    4 1   
     5    3   36 1   
     6    3   66 1   
     7    4    5 1   
     8    4   37 1   
     9    4   38 1   
    10    5    6 1   
    11    5    7 1   
    12    5   39 1   
    13    6    7 1   
    14    6   40 1   
    15    6   41 1   
    16    7   42 1   
    17    7   43 1   
    18    8    9 ar  
    19    8   11 ar  
    20    9   10 ar  
    21    9   44 1   
    22   10   13 ar  
    23   10   45 1   
    24   11   12 ar  
    25   11   46 1   
    26   12   13 ar  
    27   12   47 1   
    28   13   14 1   
    29   14   15 ar  
    30   14   17 ar  
    31   15   16 1   
    32   15   20 ar  
    33   16   48 1   
    34   16   49 1   
    35   16   50 1   
    36   17   18 ar  
    37   17   51 1   
    38   18   19 ar  
    39   18   21 1   
    40   19   20 ar  
    41   19   52 1   
    42   20   53 1   
    43   21   22 1   
    44   21   54 1   
    45   22   23 2   
    46   22   24 1   
    47   24   25 ar  
    48   24   29 ar  
    49   25   26 ar  
    50   25   55 1   
    51   26   27 ar  
    52   26   30 1   
    53   27   28 ar  
    54   28   29 ar  
    55   28   56 1   
    56   29   57 1   
    57   30   31 1   
    58   30   35 1   
    59   31   32 1   
    60   31   58 1   
    61   31   59 1   
    62   32   33 1   
    63   32   60 1   
    64   32   61 1   
    65   33   34 1   
    66   34   35 1   
    67   34   62 1   
    68   34   63 1   
    69   35   64 1   
    70   35   65 1   
@<TRIPOS>SUBSTRUCTURE
     1 GK6         1 TEMP              0 ****  ****    0 ROOT
