@<TRIPOS>MOLECULE
GK6
   65    69     1     0     0
SMALL
bcc


@<TRIPOS>ATOM
      1 O3          6.6270   -2.2970    1.1480 o         1 GK6     -0.603100
      2 C24         6.6690   -1.0790    0.8820 c         1 GK6      0.666700
      3 N4          7.8630   -0.3800    0.8880 n         1 GK6     -0.555900
      4 C25         9.1370   -1.0400    0.9780 c3        1 GK6      0.110000
      5 C26         9.9180   -1.0770   -0.3140 cx        1 GK6     -0.164700
      6 C28        10.9380   -2.1700   -0.4950 cx        1 GK6     -0.124400
      7 C27         9.6740   -2.1880   -1.3000 cx        1 GK6     -0.124400
      8 C21         5.4240   -0.2980    0.6220 ca        1 GK6     -0.138600
      9 C20         4.2890   -0.5870    1.3890 ca        1 GK6     -0.094000
     10 C19         3.1020    0.1050    1.1670 ca        1 GK6     -0.127000
     11 C22         5.3580    0.6780   -0.3750 ca        1 GK6     -0.094000
     12 C23         4.1690    1.3700   -0.5960 ca        1 GK6     -0.127000
     13 C18         3.0320    1.0930    0.1740 cp        1 GK6     -0.016000
     14 C17         1.7700    1.7990   -0.0680 cp        1 GK6     -0.021000
     15 C2          1.6900    3.2010   -0.0820 ca        1 GK6     -0.083300
     16 C1          2.8710    4.0630    0.1530 c3        1 GK6     -0.053800
     17 C16         0.6210    1.0300   -0.2820 ca        1 GK6     -0.169000
     18 C5         -0.6290    1.6390   -0.5320 ca        1 GK6      0.062600
     19 C4         -0.6990    3.0480   -0.5500 ca        1 GK6     -0.143000
     20 C3          0.4470    3.7990   -0.3230 ca        1 GK6     -0.110000
     21 N1         -1.7400    0.8090   -0.7620 n         1 GK6     -0.466100
     22 C6         -3.0690    1.1920   -0.8620 c         1 GK6      0.676700
     23 O1         -3.4540    2.3700   -0.7550 o         1 GK6     -0.576100
     24 C7         -4.0460    0.0810   -1.0940 ca        1 GK6     -0.087600
     25 C11        -5.2550    0.1120   -0.4010 ca        1 GK6     -0.219300
     26 C10        -6.2060   -0.9330   -0.6170 ca        1 GK6      0.621200
     27 N2         -5.9480   -1.9530   -1.4960 nb        1 GK6     -0.699000
     28 C9         -4.7840   -1.9330   -2.1610 ca        1 GK6      0.424200
     29 C8         -3.7900   -0.9530   -1.9990 ca        1 GK6     -0.261300
     30 N3         -7.4680   -0.8430    0.0360 nh        1 GK6     -0.728300
     31 C15        -8.4960   -1.7890   -0.3810 c3        1 GK6      0.149300
     32 C14        -9.8450   -1.4950    0.2890 c3        1 GK6      0.122400
     33 O2         -9.7260   -1.4160    1.7050 os        1 GK6     -0.412600
     34 C13        -8.7730   -0.4400    2.1060 c3        1 GK6      0.122400
     35 C12        -7.3940   -0.7070    1.4870 c3        1 GK6      0.149300
     36 HN4         7.8650    0.5520    0.5470 hn        1 GK6      0.304500
     37 H25         9.7550   -0.4880    1.7450 h1        1 GK6      0.066200
     38 H25A        8.9720   -2.0930    1.3510 h1        1 GK6      0.066200
     39 H26        10.1560   -0.0700   -0.7110 hc        1 GK6      0.074700
     40 H28        11.8920   -1.9260   -0.9930 hc        1 GK6      0.074700
     41 H28A       11.0710   -2.9150    0.3100 hc        1 GK6      0.074700
     42 H27         8.9010   -2.9440   -1.0680 hc        1 GK6      0.074700
     43 H27A        9.7200   -1.9620   -2.3800 hc        1 GK6      0.074700
     44 H20         4.3440   -1.3740    2.1590 ha        1 GK6      0.144500
     45 H19         2.2120   -0.1220    1.7730 ha        1 GK6      0.142000
     46 H22         6.2320    0.8970   -1.0060 ha        1 GK6      0.144500
     47 H23         4.1180    2.1370   -1.3840 ha        1 GK6      0.142000
     48 H1          3.3420    4.3420   -0.8240 hc        1 GK6      0.046033
     49 H1A         2.5740    5.0050    0.6770 hc        1 GK6      0.046033
     50 H1B         3.6380    3.5390    0.7750 hc        1 GK6      0.046033
     51 H16         0.7140   -0.0680   -0.2590 ha        1 GK6      0.135000
     52 H4         -1.6550    3.5640   -0.7380 ha        1 GK6      0.174000
     53 H3          0.3740    4.8990   -0.3330 ha        1 GK6      0.138000
     54 HN1        -1.5440   -0.1680   -0.8100 hn        1 GK6      0.321500
     55 H11        -5.4720    0.9550    0.2730 ha        1 GK6      0.168000
     56 H9         -4.6360   -2.7710   -2.8680 h4        1 GK6      0.027100
     57 H8         -2.8660   -1.0000   -2.5880 ha        1 GK6      0.150000
     58 H15        -8.6270   -1.7030   -1.4960 h1        1 GK6      0.055950
     59 H15A       -8.2010   -2.8510   -0.1400 h1        1 GK6      0.055950
     60 H14       -10.2860   -0.5410   -0.1040 h1        1 GK6      0.058450
     61 H14A      -10.5500   -2.3490    0.1140 h1        1 GK6      0.058450
     62 H13        -9.1400    0.5830    1.8290 h1        1 GK6      0.058450
     63 H13A       -8.7160   -0.5440    3.2210 h1        1 GK6      0.058450
     64 H12        -6.9660   -1.6400    1.9570 h1        1 GK6      0.055950
     65 H12A       -6.7200    0.1570    1.7420 h1        1 GK6      0.055950
@<TRIPOS>BOND
     1    1    2 2   
     2    2    3 1   
     3    2    8 1   
     4    3    4 1   
     5    3   36 1   
     6    4    5 1   
     7    4   37 1   
     8    4   38 1   
     9    5    6 1   
    10    5    7 1   
    11    5   39 1   
    12    6    7 1   
    13    6   40 1   
    14    6   41 1   
    15    7   42 1   
    16    7   43 1   
    17    8    9 ar  
    18    8   11 ar  
    19    9   10 ar  
    20    9   44 1   
    21   10   13 ar  
    22   10   45 1   
    23   11   12 ar  
    24   11   46 1   
    25   12   13 ar  
    26   12   47 1   
    27   13   14 1   
    28   14   15 ar  
    29   14   17 ar  
    30   15   16 1   
    31   15   20 ar  
    32   16   48 1   
    33   16   49 1   
    34   16   50 1   
    35   17   18 ar  
    36   17   51 1   
    37   18   19 ar  
    38   18   21 1   
    39   19   20 ar  
    40   19   52 1   
    41   20   53 1   
    42   21   22 1   
    43   21   54 1   
    44   22   23 2   
    45   22   24 1   
    46   24   25 ar  
    47   24   29 ar  
    48   25   26 ar  
    49   25   55 1   
    50   26   27 ar  
    51   26   30 1   
    52   27   28 ar  
    53   28   29 ar  
    54   28   56 1   
    55   29   57 1   
    56   30   31 1   
    57   30   35 1   
    58   31   32 1   
    59   31   58 1   
    60   31   59 1   
    61   32   33 1   
    62   32   60 1   
    63   32   61 1   
    64   33   34 1   
    65   34   35 1   
    66   34   62 1   
    67   34   63 1   
    68   35   64 1   
    69   35   65 1   
@<TRIPOS>SUBSTRUCTURE
     1 GK6         1 TEMP              0 ****  ****    0 ROOT
