@<TRIPOS>MOLECULE
GK6
   66    70     1     0     0
SMALL
bcc


@<TRIPOS>ATOM
      1 O3         -0.0220   -0.4270   -0.1690 o         1 GK6     -0.433100
      2 C24         1.1880   -0.2460   -0.1990 c         1 GK6      0.574700
      3 N4          1.8610   -0.0800    1.1560 n4        1 GK6     -0.677800
      4 C25         0.8970    0.1560    2.2760 c3        1 GK6      0.144800
      5 C26         1.6040    0.2480    3.5930 cx        1 GK6     -0.213700
      6 C28         0.8980   -0.2980    4.8120 cx        1 GK6     -0.101400
      7 C27         2.0960   -1.0090    4.2700 cx        1 GK6     -0.101400
      8 C21         2.0600   -0.1500   -1.3630 ca        1 GK6     -0.226600
      9 C20         1.4300    0.0140   -2.6110 ca        1 GK6     -0.061000
     10 C19         2.1920    0.1070   -3.7700 ca        1 GK6     -0.129000
     11 C22         3.4620   -0.2340   -1.3020 ca        1 GK6     -0.061000
     12 C23         4.2150   -0.1390   -2.4630 ca        1 GK6     -0.129000
     13 C18         3.5930    0.0380   -3.7140 cp        1 GK6      0.079000
     14 C17         4.3840    0.1190   -4.9410 cp        1 GK6     -0.068000
     15 C2          5.4840    0.9810   -5.0620 ca        1 GK6     -0.075300
     16 C1          5.9180    1.8900   -3.9760 c3        1 GK6     -0.057800
     17 C16         4.0040   -0.6960   -6.0160 ca        1 GK6     -0.169000
     18 C5          4.7260   -0.6890   -7.2300 ca        1 GK6      0.083600
     19 C4          5.8400    0.1780   -7.3370 ca        1 GK6     -0.123000
     20 C3          6.1930    0.9920   -6.2720 ca        1 GK6     -0.103000
     21 N1          4.3150   -1.5430   -8.2600 n         1 GK6     -0.474100
     22 C6          4.7920   -1.5730   -9.5700 c         1 GK6      0.682700
     23 O1          5.6660   -0.7940   -9.9840 o         1 GK6     -0.563100
     24 C7          4.1670   -2.5970  -10.4610 ca        1 GK6     -0.089600
     25 C11         3.8900   -2.2360  -11.7790 ca        1 GK6     -0.226300
     26 C10         3.3050   -3.2040  -12.6570 ca        1 GK6      0.636200
     27 N2          3.0210   -4.4730  -12.2150 nb        1 GK6     -0.697000
     28 C9          3.3260   -4.7850  -10.9490 ca        1 GK6      0.432200
     29 C8          3.8910   -3.8940  -10.0200 ca        1 GK6     -0.273300
     30 N3          3.1120   -2.8610  -14.0200 nh        1 GK6     -0.730300
     31 C15         2.6870   -3.9260  -14.9210 c3        1 GK6      0.151800
     32 C14         2.6740   -3.4660  -16.3860 c3        1 GK6      0.121400
     33 O2          1.9190   -2.2720  -16.5550 os        1 GK6     -0.407600
     34 C13         2.4090   -1.2160  -15.7400 c3        1 GK6      0.121400
     35 C12         2.4090   -1.6050  -14.2550 c3        1 GK6      0.151800
     36 HN4         2.5170    0.7060    1.1010 hn        1 GK6      0.455300
     37 H25         0.1500   -0.6920    2.2690 hx        1 GK6      0.115200
     38 H25A        0.3410    1.1130    2.0540 hx        1 GK6      0.115200
     39 H26         2.1940    1.1800    3.7130 hc        1 GK6      0.105700
     40 H28         0.9830    0.2680    5.7590 hc        1 GK6      0.094200
     41 H28A       -0.1020   -0.7560    4.6960 hc        1 GK6      0.094200
     42 H27         3.0490   -0.9680    4.8300 hc        1 GK6      0.094200
     43 H27A        1.9560   -1.9830    3.7660 hc        1 GK6      0.094200
     44 H20         0.3290    0.0700   -2.6650 ha        1 GK6      0.145500
     45 H19         1.6920    0.2430   -4.7450 ha        1 GK6      0.171500
     46 H22         3.9940   -0.3960   -0.3520 ha        1 GK6      0.145500
     47 H23         5.3150   -0.2100   -2.4150 ha        1 GK6      0.171500
     48 H1          6.3210    2.8440   -4.4000 hc        1 GK6      0.048033
     49 H1A         5.0730    2.1450   -3.2910 hc        1 GK6      0.048033
     50 H1B         6.7310    1.4100   -3.3740 hc        1 GK6      0.048033
     51 H16         3.1320   -1.3590   -5.8930 ha        1 GK6      0.132000
     52 H4          6.4340    0.2200   -8.2670 ha        1 GK6      0.189000
     53 H3          7.0570    1.6680   -6.3800 ha        1 GK6      0.150000
     54 HN1         3.5730   -2.1700   -8.0360 hn        1 GK6      0.323500
     55 H11         4.1600   -1.2300  -12.1330 ha        1 GK6      0.169000
     56 H9          3.0920   -5.8270  -10.6570 h4        1 GK6      0.030100
     57 H8          4.1260   -4.2320   -9.0040 ha        1 GK6      0.144000
     58 H15         1.6580   -4.3000  -14.6520 h1        1 GK6      0.056450
     59 H15A        3.4120   -4.7820  -14.8280 h1        1 GK6      0.056450
     60 H14         3.7180   -3.3100  -16.7650 h1        1 GK6      0.061700
     61 H14A        2.1420   -4.2260  -17.0160 h1        1 GK6      0.061700
     62 H13         1.6910   -0.3710  -15.9110 h1        1 GK6      0.061700
     63 H13A        3.4390   -0.9240  -16.0740 h1        1 GK6      0.061700
     64 H12         2.9150   -0.7820  -13.6800 h1        1 GK6      0.056450
     65 H12A        1.3390   -1.6760  -13.9030 h1        1 GK6      0.056450
     66 H42         2.4010   -0.9290    1.3580 hn        1 GK6      0.455300
@<TRIPOS>BOND
     1    1    2 2   
     2    2    3 1   
     3    2    8 1   
     4    3    4 1   
     5    3   36 1   
     6    3   66 1   
     7    4    5 1   
     8    4   37 1   
     9    4   38 1   
    10    5    6 1   
    11    5    7 1   
    12    5   39 1   
    13    6    7 1   
    14    6   40 1   
    15    6   41 1   
    16    7   42 1   
    17    7   43 1   
    18    8    9 ar  
    19    8   11 ar  
    20    9   10 ar  
    21    9   44 1   
    22   10   13 ar  
    23   10   45 1   
    24   11   12 ar  
    25   11   46 1   
    26   12   13 ar  
    27   12   47 1   
    28   13   14 1   
    29   14   15 ar  
    30   14   17 ar  
    31   15   16 1   
    32   15   20 ar  
    33   16   48 1   
    34   16   49 1   
    35   16   50 1   
    36   17   18 ar  
    37   17   51 1   
    38   18   19 ar  
    39   18   21 1   
    40   19   20 ar  
    41   19   52 1   
    42   20   53 1   
    43   21   22 1   
    44   21   54 1   
    45   22   23 2   
    46   22   24 1   
    47   24   25 ar  
    48   24   29 ar  
    49   25   26 ar  
    50   25   55 1   
    51   26   27 ar  
    52   26   30 1   
    53   27   28 ar  
    54   28   29 ar  
    55   28   56 1   
    56   29   57 1   
    57   30   31 1   
    58   30   35 1   
    59   31   32 1   
    60   31   58 1   
    61   31   59 1   
    62   32   33 1   
    63   32   60 1   
    64   32   61 1   
    65   33   34 1   
    66   34   35 1   
    67   34   62 1   
    68   34   63 1   
    69   35   64 1   
    70   35   65 1   
@<TRIPOS>SUBSTRUCTURE
     1 GK6         1 TEMP              0 ****  ****    0 ROOT
