@<TRIPOS>MOLECULE
GK6
   67    71     1     0     0
SMALL
bcc


@<TRIPOS>ATOM
      1 O3          0.2660   -1.1300   -0.3110 o         1 GK6     -0.404100
      2 C24         1.3880   -0.6540   -0.4120 c         1 GK6      0.565700
      3 N4          1.8820    0.1290    0.7850 n4        1 GK6     -0.677800
      4 C25         0.8520    1.0990    1.2930 c3        1 GK6      0.148800
      5 C26         1.3070    1.7570    2.5580 cx        1 GK6     -0.225700
      6 C28         0.2640    2.0640    3.6100 cx        1 GK6     -0.095900
      7 C27         1.2710    0.9900    3.8590 cx        1 GK6     -0.095900
      8 C21         2.2930   -0.7470   -1.5640 ca        1 GK6     -0.191600
      9 C20         1.6990   -0.8770   -2.8300 ca        1 GK6     -0.064000
     10 C19         2.4980   -1.0140   -3.9630 ca        1 GK6     -0.113500
     11 C22         3.6900   -0.7650   -1.4430 ca        1 GK6     -0.064000
     12 C23         4.4820   -0.9020   -2.5790 ca        1 GK6     -0.113500
     13 C18         3.8950   -1.0270   -3.8490 cp        1 GK6      0.017000
     14 C17         4.7280   -1.2000   -5.0450 cp        1 GK6     -0.056000
     15 C2          5.7620   -0.3030   -5.3720 ca        1 GK6      0.010700
     16 C1          6.0780    0.8820   -4.5420 c3        1 GK6     -0.083800
     17 C16         4.4650   -2.2980   -5.8760 ca        1 GK6     -0.070000
     18 C5          5.2460   -2.5140   -7.0210 ca        1 GK6     -0.059400
     19 C4          6.2840   -1.6230   -7.3530 ca        1 GK6     -0.078000
     20 C3          6.5240   -0.5320   -6.5290 ca        1 GK6     -0.111000
     21 N1          4.9890   -3.6770   -7.8720 n4        1 GK6     -0.551200
     22 C6          3.7430   -3.4990   -8.7510 c         1 GK6      0.585700
     23 O1          2.6990   -3.3200   -8.1460 o         1 GK6     -0.415100
     24 C7          3.9920   -3.5750  -10.1960 ca        1 GK6     -0.103600
     25 C11         3.2480   -2.7340  -11.0230 ca        1 GK6     -0.262300
     26 C10         3.4580   -2.7940  -12.4470 ca        1 GK6      0.693200
     27 N2          4.3550   -3.7080  -12.9740 nb        1 GK6     -0.680000
     28 C9          5.0290   -4.4990  -12.1430 ca        1 GK6      0.481200
     29 C8          4.9070   -4.4840  -10.7370 ca        1 GK6     -0.319300
     30 N3          2.8200   -1.9040  -13.3010 nh        1 GK6     -0.727300
     31 C15         2.8530   -2.1680  -14.7350 c3        1 GK6      0.162800
     32 C14         2.2660   -1.0390  -15.5890 c3        1 GK6      0.116400
     33 O2          1.0180   -0.5900  -15.0770 os        1 GK6     -0.387600
     34 C13         1.1560   -0.0840  -13.7610 c3        1 GK6      0.116400
     35 C12         1.6910   -1.1470  -12.7900 c3        1 GK6      0.162800
     36 HN4         2.7350    0.6410    0.5410 hn        1 GK6      0.458800
     37 H25         0.6790    1.8670    0.4860 hx        1 GK6      0.115700
     38 H25A       -0.1060    0.5200    1.4550 hx        1 GK6      0.115700
     39 H26         2.1160    2.5000    2.4030 hc        1 GK6      0.107700
     40 H28        -0.7900    1.7870    3.4220 hc        1 GK6      0.098450
     41 H28A        0.3450    3.0250    4.1540 hc        1 GK6      0.098450
     42 H27         0.9380   -0.0640    3.8560 hc        1 GK6      0.098450
     43 H27A        2.0780    1.1650    4.5970 hc        1 GK6      0.098450
     44 H20         0.5980   -0.8790   -2.9260 ha        1 GK6      0.160000
     45 H19         2.0230   -1.1100   -4.9540 ha        1 GK6      0.168500
     46 H22         4.1860   -0.7070   -0.4620 ha        1 GK6      0.160000
     47 H23         5.5800   -0.9210   -2.4800 ha        1 GK6      0.168500
     48 H1          6.9290    0.6450   -3.8520 hc        1 GK6      0.072367
     49 H1A         6.3870    1.7450   -5.1860 hc        1 GK6      0.072367
     50 H1B         5.2000    1.2000   -3.9270 hc        1 GK6      0.072367
     51 H16         3.6340   -2.9790   -5.6220 ha        1 GK6      0.166000
     52 H4          6.9090   -1.7710   -8.2510 ha        1 GK6      0.167000
     53 H3          7.3350    0.1730   -6.7890 ha        1 GK6      0.179000
     54 HN1         5.8050   -3.8400   -8.4760 hn        1 GK6      0.466300
     55 H11         2.5040   -2.0570  -10.5810 ha        1 GK6      0.167000
     56 H9          5.7220   -5.2140  -12.6340 h4        1 GK6      0.056100
     57 H8          5.4720   -5.2090  -10.1410 ha        1 GK6      0.143000
     58 H15         3.9240   -2.3140  -15.0560 h1        1 GK6      0.065450
     59 H15A        2.2840   -3.1190  -14.9490 h1        1 GK6      0.065450
     60 H14         2.0280   -1.4290  -16.6150 h1        1 GK6      0.072950
     61 H14A        2.9820   -0.1780  -15.6590 h1        1 GK6      0.072950
     62 H13         1.8280    0.8150  -13.7640 h1        1 GK6      0.072950
     63 H13A        0.1160    0.2100  -13.4570 h1        1 GK6      0.072950
     64 H12         0.8510   -1.8530  -12.5240 h1        1 GK6      0.065450
     65 H12A        2.0130   -0.6010  -11.8570 h1        1 GK6      0.065450
     66 H42         2.1050   -0.5270    1.5460 hn        1 GK6      0.458800
     67 H121        4.8510   -4.4980   -7.2690 hn        1 GK6      0.466300
@<TRIPOS>BOND
     1    1    2 2   
     2    2    3 1   
     3    2    8 1   
     4    3    4 1   
     5    3   36 1   
     6    3   66 1   
     7    4    5 1   
     8    4   37 1   
     9    4   38 1   
    10    5    6 1   
    11    5    7 1   
    12    5   39 1   
    13    6    7 1   
    14    6   40 1   
    15    6   41 1   
    16    7   42 1   
    17    7   43 1   
    18    8    9 ar  
    19    8   11 ar  
    20    9   10 ar  
    21    9   44 1   
    22   10   13 ar  
    23   10   45 1   
    24   11   12 ar  
    25   11   46 1   
    26   12   13 ar  
    27   12   47 1   
    28   13   14 1   
    29   14   15 ar  
    30   14   17 ar  
    31   15   16 1   
    32   15   20 ar  
    33   16   48 1   
    34   16   49 1   
    35   16   50 1   
    36   17   18 ar  
    37   17   51 1   
    38   18   19 ar  
    39   18   21 1   
    40   19   20 ar  
    41   19   52 1   
    42   20   53 1   
    43   21   22 1   
    44   21   54 1   
    45   21   67 1   
    46   22   23 2   
    47   22   24 1   
    48   24   25 ar  
    49   24   29 ar  
    50   25   26 ar  
    51   25   55 1   
    52   26   27 ar  
    53   26   30 1   
    54   27   28 ar  
    55   28   29 ar  
    56   28   56 1   
    57   29   57 1   
    58   30   31 1   
    59   30   35 1   
    60   31   32 1   
    61   31   58 1   
    62   31   59 1   
    63   32   33 1   
    64   32   60 1   
    65   32   61 1   
    66   33   34 1   
    67   34   35 1   
    68   34   62 1   
    69   34   63 1   
    70   35   64 1   
    71   35   65 1   
@<TRIPOS>SUBSTRUCTURE
     1 GK6         1 TEMP              0 ****  ****    0 ROOT
