@<TRIPOS>MOLECULE
GKK
   46    48     1     0     0
SMALL
bcc


@<TRIPOS>ATOM
      1 CL1         0.0550    0.7710    0.8460 cl        1 GKK     -0.071400
      2 C1          2.7810    1.3450   -5.1030 c3        1 GKK      0.151100
      3 C2          2.2140   -0.4040   -3.5010 c3        1 GKK      0.154800
      4 C3          3.2500   -1.1330   -2.6330 c3        1 GKK     -0.124400
      5 C4          4.3430   -0.0900   -2.3080 c3        1 GKK      0.215500
      6 C5          3.7930    1.2570   -2.8880 c3        1 GKK      0.137800
      7 C9          6.7610   -3.8770   -0.8630 ca        1 GKK     -0.096000
      8 C10         7.9390   -4.0210   -0.1310 ca        1 GKK     -0.133000
      9 C8          6.1940   -2.6150   -1.0350 ca        1 GKK     -0.129000
     10 C7          6.7870   -1.4770   -0.4760 ca        1 GKK     -0.060300
     11 C6          6.2040   -0.1040   -0.6950 c3        1 GKK      0.251100
     12 N1          2.6210    0.9860   -3.7140 n3        1 GKK     -0.720600
     13 C12         7.9750   -1.6320    0.2580 ca        1 GKK     -0.168300
     14 C13         8.6760   -0.4380    0.9010 c3        1 GKK      0.685200
     15 C14         3.9050   -0.0180    0.1490 ca        1 GKK      0.221600
     16 C15         4.3590   -0.3360    1.4580 ca        1 GKK     -0.207000
     17 N2          4.7850   -0.0100   -0.9340 nh        1 GKK     -0.683000
     18 C16         3.4970   -0.2990    2.5410 ca        1 GKK     -0.044000
     19 C17         2.1460    0.0410    2.3820 ca        1 GKK     -0.066000
     20 C18         1.2850    0.0630    3.5080 cg        1 GKK      0.244800
     21 N3          0.5840    0.0790    4.4370 n1        1 GKK     -0.365800
     22 C19         1.6820    0.3520    1.0930 ca        1 GKK      0.089400
     23 C20         2.5380    0.3270   -0.0050 ca        1 GKK     -0.207000
     24 C11         8.5450   -2.8970    0.4270 ca        1 GKK     -0.082000
     25 F1          9.9080   -0.7130    1.4430 f         1 GKK     -0.236633
     26 F2          7.9790    0.1300    1.9430 f         1 GKK     -0.236633
     27 F3          8.9220    0.6120    0.0490 f         1 GKK     -0.236633
     28 H1          1.8090    1.1620   -5.6320 h1        1 GKK      0.034700
     29 H1A         3.5900    0.7720   -5.6330 h1        1 GKK      0.034700
     30 H1B         3.0220    2.4390   -5.1630 h1        1 GKK      0.034700
     31 H2          2.0680   -0.9530   -4.4710 h1        1 GKK      0.052200
     32 H2A         1.2210   -0.3750   -2.9720 h1        1 GKK      0.052200
     33 H3          2.7680   -1.5480   -1.7140 hc        1 GKK      0.059200
     34 H3A         3.6990   -1.9880   -3.1960 hc        1 GKK      0.059200
     35 H4          5.2530   -0.3640   -2.9250 h1        1 GKK      0.057700
     36 H5          3.4660    1.9510   -2.0650 h1        1 GKK      0.059700
     37 H5A         4.6100    1.7690   -3.4640 h1        1 GKK      0.059700
     38 H10         8.3900   -5.0140    0.0070 ha        1 GKK      0.146000
     39 H8          5.2630   -2.5210   -1.6180 ha        1 GKK      0.146000
     40 H6          6.7490    0.3450   -1.5800 h1        1 GKK      0.077200
     41 H6A         6.4470    0.5490    0.1970 h1        1 GKK      0.077200
     42 H15         5.4090   -0.6220    1.6360 ha        1 GKK      0.149000
     43 H16         3.8770   -0.5460    3.5460 ha        1 GKK      0.149000
     44 H20         2.1350    0.5890   -0.9970 ha        1 GKK      0.170000
     45 H11         9.4780   -3.0060    1.0050 ha        1 GKK      0.156000
     46 H9          6.2760   -4.7600   -1.3060 ha        1 GKK      0.142000
@<TRIPOS>BOND
     1    1   22 1   
     2    2   12 1   
     3    2   28 1   
     4    2   29 1   
     5    2   30 1   
     6    3    4 1   
     7    3   12 1   
     8    3   31 1   
     9    3   32 1   
    10    4    5 1   
    11    4   33 1   
    12    4   34 1   
    13    5    6 1   
    14    5   17 1   
    15    5   35 1   
    16    6   12 1   
    17    6   36 1   
    18    6   37 1   
    19    7    8 ar  
    20    7    9 ar  
    21    7   46 1   
    22    8   24 ar  
    23    8   38 1   
    24    9   10 ar  
    25    9   39 1   
    26   10   11 1   
    27   10   13 ar  
    28   11   17 1   
    29   11   40 1   
    30   11   41 1   
    31   13   14 1   
    32   13   24 ar  
    33   14   25 1   
    34   14   26 1   
    35   14   27 1   
    36   15   16 ar  
    37   15   17 1   
    38   15   23 ar  
    39   16   18 ar  
    40   16   42 1   
    41   18   19 ar  
    42   18   43 1   
    43   19   20 1   
    44   19   22 ar  
    45   20   21 3   
    46   22   23 ar  
    47   23   44 1   
    48   24   45 1   
@<TRIPOS>SUBSTRUCTURE
     1 GKK         1 TEMP              0 ****  ****    0 ROOT
