@<TRIPOS>MOLECULE
GKK
   46    48     1     0     0
SMALL
bcc


@<TRIPOS>ATOM
      1 Cl1         0.1650    1.4980    0.8370 cl        1 GKK      0.029000
      2 C1          2.5550    1.2060   -4.8770 c3        1 GKK     -0.125000
      3 C2          2.3170   -0.4320   -3.0800 c3        1 GKK     -0.089000
      4 C3          3.3780   -1.2380   -2.3150 c3        1 GKK     -0.185000
      5 C4          4.6100   -0.3250   -2.2110 c3        1 GKK     -0.076000
      6 C5          4.3560    0.7560   -3.3050 c3        1 GKK     -0.099000
      7 C9          6.8460   -3.6720   -0.5360 ca        1 GKK     -0.049000
      8 C10         8.2020   -3.7240   -0.1970 ca        1 GKK     -0.234000
      9 C8          6.1790   -2.4630   -0.5910 ca        1 GKK     -0.278000
     10 C7          6.8390   -1.2320   -0.3170 ca        1 GKK      0.165000
     11 C6          6.2020    0.0150   -0.3730 c2        1 GKK     -0.592000
     12 N1          2.9140    0.8280   -3.5330 n3        1 GKK     -0.263000
     13 C12         8.2160   -1.3110    0.0330 ca        1 GKK     -0.260000
     14 C13         9.0130   -0.0590    0.3510 c3        1 GKK      0.479000
     15 C14         3.8100    0.0670    0.1410 ca        1 GKK     -0.075000
     16 C15         4.0160   -0.7910    1.2320 ca        1 GKK     -0.083000
     17 N2          4.8820    0.2990   -0.8550 nx        1 GKK      0.192000
     18 C16         3.0170   -0.9420    2.1920 ca        1 GKK     -0.086000
     19 C17         1.8100   -0.2400    2.0860 ca        1 GKK      0.016000
     20 C18         0.8080   -0.4090    3.0790 c1        1 GKK     -0.106000
     21 N3         -0.0090   -0.5530    3.8950 n1        1 GKK     -0.001000
     22 C19         1.6100    0.6260    0.9950 ca        1 GKK     -0.035000
     23 C20         2.6020    0.7810    0.0260 ca        1 GKK     -0.135000
     24 C11         8.8720   -2.5420    0.0890 ca        1 GKK     -0.028000
     25 F1          8.5750    0.6570    1.4430 f         1 GKK     -0.180667
     26 F2         10.3440   -0.2700    0.6360 f         1 GKK     -0.180667
     27 F3          9.0600    0.8840   -0.6510 f         1 GKK     -0.180667
     28 H1          2.8970    0.4740   -5.6590 h1        1 GKK      0.080667
     29 H1A         1.4390    1.2960   -4.9340 h1        1 GKK      0.080667
     30 H1B         3.0130    2.2060   -5.1000 h1        1 GKK      0.080667
     31 H2          1.4600   -0.1660   -2.4030 h1        1 GKK      0.093500
     32 H2A         1.9080   -1.0450   -3.9300 h1        1 GKK      0.093500
     33 H3          3.6670   -2.1520   -2.8940 hc        1 GKK      0.115000
     34 H3A         2.9840   -1.5820   -1.3280 hc        1 GKK      0.115000
     35 H4          5.5460   -0.9010   -2.4760 hx        1 GKK      0.174000
     36 H5          4.7150    1.7810   -3.0180 h1        1 GKK      0.101500
     37 H5A         4.9290    0.4470   -4.2240 h1        1 GKK      0.101500
     38 H10         8.7280   -4.6860   -0.1540 ha        1 GKK      0.130000
     39 H8          5.1080   -2.4570   -0.8340 ha        1 GKK      0.106000
     40 H6          6.7090    0.9160   -0.0020 hx        1 GKK      0.167000
     41 H6A         4.8690    1.3220   -1.0020 hn        1 GKK      0.230000
     42 H15         4.9720   -1.3370    1.3440 ha        1 GKK      0.197000
     43 H16         3.1850   -1.6170    3.0470 ha        1 GKK      0.165000
     44 H20         2.4250    1.4590   -0.8280 ha        1 GKK      0.175000
     45 H11         9.9400   -2.5740    0.3620 ha        1 GKK      0.138000
     46 H9          6.3060   -4.6060   -0.7550 ha        1 GKK      0.118000
@<TRIPOS>BOND
     1    1   22 1   
     2    2   12 1   
     3    2   28 1   
     4    2   29 1   
     5    2   30 1   
     6    3    4 1   
     7    3   12 1   
     8    3   31 1   
     9    3   32 1   
    10    4    5 1   
    11    4   33 1   
    12    4   34 1   
    13    5    6 1   
    14    5   17 1   
    15    5   35 1   
    16    6   12 1   
    17    6   36 1   
    18    6   37 1   
    19    7    8 1   
    20    7    9 1   
    21    7   46 1   
    22    8   24 1   
    23    8   38 1   
    24    9   10 1   
    25    9   39 1   
    26   10   11 1   
    27   10   13 1   
    28   11   17 1   
    29   11   40 1   
    30   13   14 1   
    31   13   24 1   
    32   14   25 1   
    33   14   26 1   
    34   14   27 1   
    35   15   16 1   
    36   15   17 1   
    37   15   23 1   
    38   16   18 1   
    39   16   42 1   
    40   17   41 1   
    41   18   19 1   
    42   18   43 1   
    43   19   20 1   
    44   19   22 1   
    45   20   21 1   
    46   22   23 1   
    47   23   44 1   
    48   24   45 1   
@<TRIPOS>SUBSTRUCTURE
     1 GKK         1 TEMP              0 ****  ****    0 ROOT
