@<TRIPOS>MOLECULE
GKK
   47    49     1     0     0
SMALL
bcc


@<TRIPOS>ATOM
      1 CL1         0.9520   -1.8230    2.1880 cl        1 GKK     -0.003400
      2 C1          3.2250    2.5800   -4.0260 c3        1 GKK      0.143100
      3 C2          2.2500    0.4680   -3.2770 c3        1 GKK      0.151800
      4 C3          2.8530   -0.9170   -2.9920 c3        1 GKK     -0.108400
      5 C4          4.3370   -0.6700   -2.6570 c3        1 GKK      0.122500
      6 C5          4.5840    0.8090   -3.0590 c3        1 GKK      0.147800
      7 C9          7.6950   -4.1710   -1.1100 ca        1 GKK     -0.087000
      8 C10         8.3440   -4.2700    0.1200 ca        1 GKK     -0.090000
      9 C8          6.9760   -3.0180   -1.4240 ca        1 GKK     -0.139000
     10 C7          6.8920   -1.9560   -0.5140 ca        1 GKK     -0.117300
     11 C6          6.1430   -0.7260   -0.9270 c3        1 GKK      0.160100
     12 N1          3.2900    1.4830   -3.0890 n3        1 GKK     -0.727600
     13 C12         7.5540   -2.0580    0.7190 ca        1 GKK     -0.129300
     14 C13         7.5320   -0.9260    1.7500 c3        1 GKK      0.682200
     15 C14         3.7810   -0.4330   -0.2270 ca        1 GKK     -0.007400
     16 C15         3.8030    0.9380    0.0760 ca        1 GKK     -0.079000
     17 N2          4.6900   -1.0180   -1.2270 n4        1 GKK     -0.556800
     18 C16         2.9290    1.4430    1.0370 ca        1 GKK     -0.066000
     19 C17         2.0340    0.6010    1.7070 ca        1 GKK      0.056000
     20 C18         1.1550    1.1430    2.6830 cg        1 GKK      0.194800
     21 N3          0.4370    1.5910    3.4810 n1        1 GKK     -0.266800
     22 C19         2.0150   -0.7750    1.4030 ca        1 GKK      0.053400
     23 C20         2.8850   -1.2920    0.4400 ca        1 GKK     -0.126000
     24 C11         8.2770   -3.2130    1.0290 ca        1 GKK     -0.073000
     25 F1          8.0120    0.2720    1.2760 f         1 GKK     -0.225967
     26 F2          6.2740   -0.6210    2.2140 f         1 GKK     -0.225967
     27 F3          8.2640   -1.1650    2.8820 f         1 GKK     -0.225967
     28 H1          4.0140    3.3300   -3.7550 h1        1 GKK      0.053367
     29 H1A         3.3750    2.2680   -5.0950 h1        1 GKK      0.053367
     30 H1B         2.2160    3.0630   -3.9290 h1        1 GKK      0.053367
     31 H2          1.4220    0.7000   -2.5520 h1        1 GKK      0.070200
     32 H2A         1.8130    0.4860   -4.3150 h1        1 GKK      0.070200
     33 H3          2.7890   -1.5680   -3.9010 hc        1 GKK      0.080700
     34 H3A         2.2940   -1.4250   -2.1670 hc        1 GKK      0.080700
     35 H4          5.0020   -1.3390   -3.2800 hx        1 GKK      0.094700
     36 H5          5.1000    0.8010   -4.0640 h1        1 GKK      0.066200
     37 H5A         5.2500    1.3590   -2.3420 h1        1 GKK      0.066200
     38 H8          6.4950   -2.9380   -2.4110 ha        1 GKK      0.132000
     39 H6          6.1880    0.0720   -0.1290 hx        1 GKK      0.118700
     40 H6A         6.6230   -0.3100   -1.8620 hx        1 GKK      0.118700
     41 H15         4.4840    1.6350   -0.4390 ha        1 GKK      0.169000
     42 H16         2.9470    2.5220    1.2720 ha        1 GKK      0.183000
     43 H20         2.8560   -2.3740    0.2240 ha        1 GKK      0.164000
     44 H11         8.8030   -3.2890    1.9980 ha        1 GKK      0.180000
     45 H9          7.7550   -4.9970   -1.8370 ha        1 GKK      0.165000
     46 H21         4.5680   -2.0440   -1.1610 hn        1 GKK      0.449800
     47 H10         8.9170   -5.1770    0.3750 ha        1 GKK      0.171000
@<TRIPOS>BOND
     1    1   22 1   
     2    2   12 1   
     3    2   28 1   
     4    2   29 1   
     5    2   30 1   
     6    3    4 1   
     7    3   12 1   
     8    3   31 1   
     9    3   32 1   
    10    4    5 1   
    11    4   33 1   
    12    4   34 1   
    13    5    6 1   
    14    5   17 1   
    15    5   35 1   
    16    6   12 1   
    17    6   36 1   
    18    6   37 1   
    19    7    8 ar  
    20    7    9 ar  
    21    7   45 1   
    22    8   24 ar  
    23    8   47 1   
    24    9   10 ar  
    25    9   38 1   
    26   10   11 1   
    27   10   13 ar  
    28   11   17 1   
    29   11   39 1   
    30   11   40 1   
    31   13   14 1   
    32   13   24 ar  
    33   14   25 1   
    34   14   26 1   
    35   14   27 1   
    36   15   16 ar  
    37   15   17 1   
    38   15   23 ar  
    39   16   18 ar  
    40   16   41 1   
    41   17   46 1   
    42   18   19 ar  
    43   18   42 1   
    44   19   20 1   
    45   19   22 ar  
    46   20   21 3   
    47   22   23 ar  
    48   23   43 1   
    49   24   44 1   
@<TRIPOS>SUBSTRUCTURE
     1 GKK         1 TEMP              0 ****  ****    0 ROOT
