@<TRIPOS>MOLECULE
GKK
   46    48     1     0     0
SMALL
bcc


@<TRIPOS>ATOM
      1 CL1         4.8120   -1.2320   -0.4640 cl        1 GKK     -0.071400
      2 C1          2.5050    4.9160   -0.4870 c3        1 GKK      0.151100
      3 C2          2.6090    2.9970    1.0150 c3        1 GKK      0.154800
      4 C3          1.4060    2.0990    1.3340 c3        1 GKK     -0.124400
      5 C4          0.5600    2.0440    0.0430 c3        1 GKK      0.215500
      6 C5          1.4150    2.8040   -1.0270 c3        1 GKK      0.137800
      7 C9         -2.6870    0.1530    2.8980 ca        1 GKK     -0.096000
      8 C10        -3.8930   -0.5010    2.6530 ca        1 GKK     -0.133000
      9 C8         -1.8500    0.4980    1.8390 ca        1 GKK     -0.129000
     10 C7         -2.1970    0.1910    0.5180 ca        1 GKK     -0.060300
     11 C6         -1.3170    0.6010   -0.6360 c3        1 GKK      0.251100
     12 N1          2.5290    3.4780   -0.3650 n3        1 GKK     -0.720600
     13 C12        -3.4150   -0.4660    0.2810 ca        1 GKK     -0.168300
     14 C13        -3.8570   -0.8380   -1.1330 c3        1 GKK      0.685200
     15 C14         0.9120   -0.3900   -0.3910 ca        1 GKK      0.221600
     16 C15         0.3500   -1.6950   -0.4260 ca        1 GKK     -0.207000
     17 N2          0.0950    0.7430   -0.3830 nh        1 GKK     -0.683000
     18 C16         1.1580   -2.8190   -0.4800 ca        1 GKK     -0.044000
     19 C17         2.5550   -2.7070   -0.4910 ca        1 GKK     -0.066000
     20 C18         3.3580   -3.8750   -0.5400 cg        1 GKK      0.244800
     21 N3          4.0100   -4.8380   -0.5800 n1        1 GKK     -0.365800
     22 C19         3.1240   -1.4230   -0.4520 ca        1 GKK      0.089400
     23 C20         2.3250   -0.2840   -0.4050 ca        1 GKK     -0.207000
     24 C11        -4.2560   -0.8090    1.3430 ca        1 GKK     -0.082000
     25 F1         -3.8350    0.1990   -2.0340 f         1 GKK     -0.236633
     26 F2         -3.0900   -1.8150   -1.7240 f         1 GKK     -0.236633
     27 F3         -5.1380   -1.3250   -1.2290 f         1 GKK     -0.236633
     28 H1          3.4310    5.3290   -0.0070 h1        1 GKK      0.034700
     29 H1A         2.5150    5.1830   -1.5760 h1        1 GKK      0.034700
     30 H1B         1.6100    5.4000   -0.0090 h1        1 GKK      0.034700
     31 H2          2.6650    3.8440    1.7520 h1        1 GKK      0.052200
     32 H2A         3.5630    2.4060    1.0990 h1        1 GKK      0.052200
     33 H3          1.7490    1.0870    1.6640 hc        1 GKK      0.059200
     34 H3A         0.7990    2.5380    2.1640 hc        1 GKK      0.059200
     35 H4         -0.3640    2.6720    0.2280 h1        1 GKK      0.057700
     36 H5          1.8570    2.0910   -1.7760 h1        1 GKK      0.059700
     37 H5A         0.7540    3.5210   -1.5830 h1        1 GKK      0.059700
     38 H10        -4.5580   -0.7750    3.4860 ha        1 GKK      0.146000
     39 H8         -0.9010    1.0170    2.0530 ha        1 GKK      0.146000
     40 H6         -1.4420   -0.1430   -1.4800 h1        1 GKK      0.077200
     41 H6A        -1.7160    1.5890   -1.0170 h1        1 GKK      0.077200
     42 H15        -0.7430   -1.8390   -0.4060 ha        1 GKK      0.149000
     43 H16         0.6950   -3.8180   -0.5110 ha        1 GKK      0.149000
     44 H20         2.8130    0.7050   -0.3860 ha        1 GKK      0.170000
     45 H11        -5.2100   -1.3250    1.1440 ha        1 GKK      0.156000
     46 H9         -2.3940    0.4000    3.9310 ha        1 GKK      0.142000
@<TRIPOS>BOND
     1    1   22 1   
     2    2   12 1   
     3    2   28 1   
     4    2   29 1   
     5    2   30 1   
     6    3    4 1   
     7    3   12 1   
     8    3   31 1   
     9    3   32 1   
    10    4    5 1   
    11    4   33 1   
    12    4   34 1   
    13    5    6 1   
    14    5   17 1   
    15    5   35 1   
    16    6   12 1   
    17    6   36 1   
    18    6   37 1   
    19    7    8 ar  
    20    7    9 ar  
    21    7   46 1   
    22    8   24 ar  
    23    8   38 1   
    24    9   10 ar  
    25    9   39 1   
    26   10   11 1   
    27   10   13 ar  
    28   11   17 1   
    29   11   40 1   
    30   11   41 1   
    31   13   14 1   
    32   13   24 ar  
    33   14   25 1   
    34   14   26 1   
    35   14   27 1   
    36   15   16 ar  
    37   15   17 1   
    38   15   23 ar  
    39   16   18 ar  
    40   16   42 1   
    41   18   19 ar  
    42   18   43 1   
    43   19   20 1   
    44   19   22 ar  
    45   20   21 3   
    46   22   23 ar  
    47   23   44 1   
    48   24   45 1   
@<TRIPOS>SUBSTRUCTURE
     1 GKK         1 TEMP              0 ****  ****    0 ROOT
