@<TRIPOS>MOLECULE
GKK
   46    43     1     0     0
SMALL
bcc


@<TRIPOS>ATOM
      1 CL1        -3.1450    2.6080    3.9750 cl        1 GKK      0.013000
      2 C1          1.3480    2.1700   -3.3320 c3        1 GKK     -0.126000
      3 C2         -0.4440    2.7570   -2.1080 c3        1 GKK     -0.086000
      4 C3         -1.5240    1.9500   -1.3620 c3        1 GKK     -0.191000
      5 C4         -0.9450    0.4920   -1.2350 c3        1 GKK      0.012000
      6 C5          0.0760    0.4710   -2.0190 c3        1 GKK     -0.111000
      7 C9          1.1170   -3.6770    0.2290 c1        1 GKK     -0.122000
      8 C10         2.4870   -3.8860    0.0820 c1        1 GKK     -0.122000
      9 C8          0.6190   -2.3770    0.3700 c1        1 GKK     -0.131000
     10 C7          1.4910   -1.2970    0.3640 c1        1 GKK     -0.043000
     11 C6          0.9310    0.1870    0.5300 c2        1 GKK     -0.003000
     12 N1          0.6190    1.9900   -2.1040 n3        1 GKK     -0.242000
     13 C12         2.8730   -1.5120    0.2160 c2        1 GKK     -0.161000
     14 C13         3.8370   -0.3250    0.2140 c3        1 GKK      0.465000
     15 C14        -1.5120    0.1330    1.2230 c1        1 GKK      0.129000
     16 C15        -2.3090   -1.0150    1.3360 c1        1 GKK     -0.122000
     17 N2         -0.5190    0.2200    0.1810 n3        1 GKK     -0.282000
     18 C16        -3.3290   -1.0680    2.2900 c1        1 GKK     -0.122000
     19 C17        -3.5540    0.0200    3.1290 c1        1 GKK     -0.052000
     20 C18        -4.7430   -0.0010    4.1200 c1        1 GKK     -0.089000
     21 N3         -5.6420   -0.0170    4.8690 n1        1 GKK     -0.034000
     22 C19        -2.7580    1.1680    3.0170 c2        1 GKK      0.007000
     23 C20        -1.7360    1.2200    2.0610 c2        1 GKK     -0.181000
     24 C11         3.3630   -2.7990    0.0770 c1        1 GKK     -0.080000
     25 F1          4.2740   -0.1110   -1.0280 f         1 GKK     -0.166667
     26 F2          3.2040    0.7660    0.6580 f         1 GKK     -0.166667
     27 F3          4.8850   -0.5950    1.0200 f         1 GKK     -0.166667
     28 H1          1.6740    1.3060   -3.6450 h1        1 GKK      0.073333
     29 H1A         2.1140    2.7740   -3.1760 h1        1 GKK      0.073333
     30 H1B         0.7460    2.5670   -4.0220 h1        1 GKK      0.073333
     31 H2         -0.2630    3.5850   -1.6420 h1        1 GKK      0.092500
     32 H2A        -0.7290    2.9390   -3.0260 h1        1 GKK      0.092500
     33 H3         -2.3650    1.9390   -1.8870 hc        1 GKK      0.100500
     34 H3A        -1.6870    2.3420   -0.4510 hc        1 GKK      0.100500
     35 H4         -1.6040   -0.1590   -1.5200 h1        1 GKK      0.107000
     36 H5         -0.1940    0.1580   -2.9160 h1        1 GKK      0.093000
     37 H5A         0.7860   -0.1280   -1.6450 h1        1 GKK      0.093000
     38 H9          0.4760   -4.4740    0.2330 ha        1 GKK      0.144000
     39 H10         2.8270   -4.7720   -0.0140 ha        1 GKK      0.144000
     40 H8         -0.3210   -2.2330    0.4700 ha        1 GKK      0.146000
     41 H6          1.4270    0.7920   -0.0710 h4        1 GKK      0.119000
     42 H6A         1.0510    0.4800    1.4620 h4        1 GKK      0.119000
     43 H15        -2.1520   -1.7720    0.7520 ha        1 GKK      0.144000
     44 H16        -3.8980   -1.8890    2.3700 ha        1 GKK      0.144000
     45 H20        -1.1790    2.0230    1.9830 ha        1 GKK      0.162000
     46 H11         4.3280   -2.9480   -0.0270 ha        1 GKK      0.155000
@<TRIPOS>BOND
     1    1   22 1   
     2    2   12 1   
     3    2   28 1   
     4    2   29 1   
     5    2   30 1   
     6    3    4 1   
     7    3   12 1   
     8    3   31 1   
     9    3   32 1   
    10    4    5 1   
    11    4   33 1   
    12    4   34 1   
    13    5    6 1   
    14    5   17 1   
    15    5   35 1   
    16    6   12 1   
    17    6   36 1   
    18    6   37 1   
    19    7    8 1   
    20    7   38 1   
    21    8   39 1   
    22    9   10 1   
    23    9   40 1   
    24   10   13 1   
    25   11   17 1   
    26   11   41 1   
    27   11   42 1   
    28   13   14 1   
    29   13   24 1   
    30   14   25 1   
    31   14   26 1   
    32   14   27 1   
    33   15   17 1   
    34   15   23 1   
    35   16   18 1   
    36   16   43 1   
    37   18   44 1   
    38   19   20 1   
    39   19   22 1   
    40   20   21 1   
    41   22   23 1   
    42   23   45 1   
    43   24   46 1   
@<TRIPOS>SUBSTRUCTURE
     1 GKK         1 TEMP              0 ****  ****    0 ROOT
