@<TRIPOS>MOLECULE
GKL
   42    41     1     0     0
SMALL
bcc


@<TRIPOS>ATOM
      1 O1          0.2780   -0.4190    1.0810 oh        1 GKL     -0.633800
      2 C1          0.8890   -1.0000   -0.0470 c3        1 GKL      0.132100
      3 C2         -0.0440   -1.2620   -1.2480 c3        1 GKL      0.143800
      4 C3          2.0760   -0.1030   -0.5270 c3        1 GKL      0.134500
      5 N1          1.7530    1.3080   -0.6510 n3        1 GKL     -0.905800
      6 C4          3.2580   -0.3590    0.4190 c3        1 GKL     -0.065400
      7 C5          4.5480    0.3310    0.0050 c3        1 GKL     -0.068700
      8 C6          5.5510    0.2670    1.1400 c3        1 GKL     -0.086100
      9 C7          5.1370   -0.2950   -1.2420 c3        1 GKL     -0.086100
     10 N2         -1.3590   -1.7560   -0.9030 n3        1 GKL     -0.815200
     11 C8         -2.4400   -0.7810   -0.7800 c3        1 GKL      0.056500
     12 C          -2.0940    0.6670   -1.2530 c         1 GKL      0.902600
     13 O          -1.2370    1.3480   -0.6100 o         1 GKL     -0.842300
     14 C10        -3.0080   -0.7210    0.6550 c3        1 GKL     -0.052700
     15 C11        -4.1860    0.2330    0.6890 c3        1 GKL     -0.082100
     16 C12        -3.4350   -2.0870    1.1480 c3        1 GKL     -0.082100
     17 OXT        -2.6920    1.0910   -2.2770 o         1 GKL     -0.842300
     18 H1         -0.0940   -0.3270   -1.8780 h1        1 GKL      0.031700
     19 H2          0.4750   -2.0480   -1.8730 h1        1 GKL      0.031700
     20 H3          2.3690   -0.4600   -1.5590 h1        1 GKL      0.038700
     21 H4          0.9240    1.4150   -1.2150 hn        1 GKL      0.365800
     22 H5          1.5360    1.6760    0.2580 hn        1 GKL      0.365800
     23 H6          2.9690   -0.0240    1.4510 hc        1 GKL      0.037700
     24 H7          3.4370   -1.4660    0.4650 hc        1 GKL      0.037700
     25 H8          4.3290    1.4140   -0.2120 hc        1 GKL      0.071700
     26 H9          5.7790   -0.7940    1.4030 hc        1 GKL      0.024533
     27 H10         6.5040    0.7710    0.8460 hc        1 GKL      0.024533
     28 H11         5.1460    0.7770    2.0470 hc        1 GKL      0.024533
     29 H12         6.1010    0.2020   -1.5070 hc        1 GKL      0.024533
     30 H13         5.3330   -1.3830   -1.0840 hc        1 GKL      0.024533
     31 H14         4.4330   -0.1820   -2.1020 hc        1 GKL      0.024533
     32 H15        -1.6280   -2.4360   -1.5900 hn        1 GKL      0.337800
     33 H16        -3.2930   -1.1240   -1.4430 h1        1 GKL      0.028700
     34 H17        -2.2070   -0.3240    1.3380 hc        1 GKL      0.064700
     35 H18        -5.0190   -0.1470    0.0490 hc        1 GKL      0.022867
     36 H19        -4.5650    0.3420    1.7340 hc        1 GKL      0.022867
     37 H20        -3.8780    1.2380    0.3080 hc        1 GKL      0.022867
     38 H21        -4.1300   -2.5680    0.4180 hc        1 GKL      0.022867
     39 H22        -2.5500   -2.7520    1.2860 hc        1 GKL      0.022867
     40 H23        -3.9640   -1.9970    2.1280 hc        1 GKL      0.022867
     41 H25        -0.3650    0.2430    0.7650 ho        1 GKL      0.456000
     42 H26         1.2910   -1.9840    0.3280 h1        1 GKL      0.039700
@<TRIPOS>BOND
     1    1    2 1   
     2    1   41 1   
     3    2    3 1   
     4    2    4 1   
     5    2   42 1   
     6    3   10 1   
     7    3   18 1   
     8    3   19 1   
     9    4    5 1   
    10    4    6 1   
    11    4   20 1   
    12    5   21 1   
    13    5   22 1   
    14    6    7 1   
    15    6   23 1   
    16    6   24 1   
    17    7    8 1   
    18    7    9 1   
    19    7   25 1   
    20    8   26 1   
    21    8   27 1   
    22    8   28 1   
    23    9   29 1   
    24    9   30 1   
    25    9   31 1   
    26   10   11 1   
    27   10   32 1   
    28   11   12 1   
    29   11   14 1   
    30   11   33 1   
    31   12   13 1   
    32   12   17 1   
    33   14   15 1   
    34   14   16 1   
    35   14   34 1   
    36   15   35 1   
    37   15   36 1   
    38   15   37 1   
    39   16   38 1   
    40   16   39 1   
    41   16   40 1   
@<TRIPOS>SUBSTRUCTURE
     1 GKL         1 TEMP              0 ****  ****    0 ROOT
