@<TRIPOS>MOLECULE
GKR
   22    21     1     0     0
SMALL
bcc


@<TRIPOS>ATOM
      1 O1B         2.7570   -1.3730   -1.7440 o         1 GKR     -0.852300
      2 O1A         3.9970   -0.6140   -0.0500 o         1 GKR     -0.852300
      3 C1          2.9490   -0.6000   -0.7660 c         1 GKR      0.889100
      4 C2          1.8850    0.4700   -0.4240 c3        1 GKR     -0.002400
      5 O2          2.4800    1.5240    0.3250 oh        1 GKR     -0.630800
      6 C3          0.7050   -0.1090    0.3830 c3        1 GKR      0.122600
      7 O3          0.7400    0.3810    1.7150 oh        1 GKR     -0.632800
      8 C4         -0.6590    0.2210   -0.2620 c3        1 GKR      0.122600
      9 O4         -0.8460    1.6230   -0.1220 oh        1 GKR     -0.632800
     10 O5         -1.5480   -1.9610    0.2970 oh        1 GKR     -0.630800
     11 C5         -1.8010   -0.5710    0.4040 c3        1 GKR     -0.002400
     12 C6         -3.1790   -0.2170   -0.2000 c         1 GKR      0.889100
     13 O6A        -3.7770   -1.1170   -0.8600 o         1 GKR     -0.852300
     14 O6B        -3.6550    0.9400   -0.0020 o         1 GKR     -0.852300
     15 H21         1.5100    0.9530   -1.3650 h1        1 GKR      0.059200
     16 HO21        3.1610    1.1070    0.8750 ho        1 GKR      0.414000
     17 H31         0.7950   -1.2260    0.4770 h1        1 GKR      0.065200
     18 HO31        0.7020    1.3450    1.6430 ho        1 GKR      0.420000
     19 H42        -0.6210   -0.0320   -1.3580 h1        1 GKR      0.065200
     20 H41        -1.8010    1.7930   -0.1220 ho        1 GKR      0.420000
     21 HO51       -2.0430   -2.2750   -0.4740 ho        1 GKR      0.414000
     22 H51        -1.7970   -0.3440    1.5050 h1        1 GKR      0.059200
@<TRIPOS>BOND
     1    1    3 1   
     2    2    3 1   
     3    3    4 1   
     4    4    5 1   
     5    4    6 1   
     6    4   15 1   
     7    5   16 1   
     8    6    7 1   
     9    6    8 1   
    10    6   17 1   
    11    7   18 1   
    12    8    9 1   
    13    8   11 1   
    14    8   19 1   
    15    9   20 1   
    16   10   11 1   
    17   10   21 1   
    18   11   12 1   
    19   11   22 1   
    20   12   13 1   
    21   12   14 1   
@<TRIPOS>SUBSTRUCTURE
     1 GKR         1 TEMP              0 ****  ****    0 ROOT
