@<TRIPOS>MOLECULE
GKR
   22    21     1     0     0
SMALL
bcc


@<TRIPOS>ATOM
      1 O1B        -0.2580    0.1670   -0.0890 o         1 GKR     -0.853800
      2 O1A         1.7100   -0.4170   -0.9670 o         1 GKR     -0.853800
      3 C1          0.9740   -0.0810    0.0130 c         1 GKR      0.893600
      4 C2          1.6580    0.0360    1.3980 c3        1 GKR     -0.008400
      5 O2          2.7880    0.8870    1.2930 oh        1 GKR     -0.624800
      6 C3          2.0480   -1.3590    1.9160 c3        1 GKR      0.127100
      7 O3          3.0400   -1.9620    1.0950 oh        1 GKR     -0.620300
      8 C4          2.6060   -1.3470    3.3570 c3        1 GKR      0.127100
      9 O4          3.9820   -1.0230    3.3620 oh        1 GKR     -0.620300
     10 O5          0.9860   -2.6950    4.5260 oh        1 GKR     -0.624800
     11 C5          2.3230   -2.6950    4.0500 c3        1 GKR     -0.008400
     12 C6          3.3180   -3.0070    5.1930 c         1 GKR      0.893600
     13 O6A         2.8680   -2.9620    6.3780 o         1 GKR     -0.853800
     14 O6B         4.5020   -3.3270    4.8960 o         1 GKR     -0.853800
     15 H21         0.9790    0.5420    2.1320 h1        1 GKR      0.058200
     16 HO21        3.3720    0.4660    0.6480 ho        1 GKR      0.408500
     17 H31         1.1200   -2.0010    1.8960 h1        1 GKR      0.047200
     18 HO31        2.8070   -1.7510    0.1760 ho        1 GKR      0.427000
     19 H42         2.1070   -0.5140    3.9260 h1        1 GKR      0.047200
     20 H41         4.4650   -1.8480    3.2080 ho        1 GKR      0.427000
     21 HO51        1.0330   -2.5360    5.4820 ho        1 GKR      0.408500
     22 H51         2.3800   -3.5190    3.2870 h1        1 GKR      0.058200
@<TRIPOS>BOND
     1    1    3 1   
     2    2    3 1   
     3    3    4 1   
     4    4    5 1   
     5    4    6 1   
     6    4   15 1   
     7    5   16 1   
     8    6    7 1   
     9    6    8 1   
    10    6   17 1   
    11    7   18 1   
    12    8    9 1   
    13    8   11 1   
    14    8   19 1   
    15    9   20 1   
    16   10   11 1   
    17   10   21 1   
    18   11   12 1   
    19   11   22 1   
    20   12   13 1   
    21   12   14 1   
@<TRIPOS>SUBSTRUCTURE
     1 GKR         1 TEMP              0 ****  ****    0 ROOT
