@<TRIPOS>MOLECULE
GL0
   24    24     1     0     0
SMALL
bcc


@<TRIPOS>ATOM
      1 O2         -2.9500   -0.7140   -0.5110 oh        1 GL0     -0.605800
      2 C1         -1.0210    0.4930   -1.2870 c3        1 GL0      0.315900
      3 C2         -1.5110   -0.7140   -0.5110 c3        1 GL0      0.054100
      4 C3         -1.0300   -0.7140    0.8950 c3        1 GL0      0.118100
      5 C4          0.4500   -0.5310    0.9860 c3        1 GL0      0.114100
      6 C5          0.9330    0.6790    0.1990 c3        1 GL0      0.119100
      7 C6          2.4300    0.6850    0.1920 c3        1 GL0      0.141400
      8 O1         -1.3610    0.3380   -2.6140 oh        1 GL0     -0.598800
      9 O4          1.0940   -1.7040    0.4760 oh        1 GL0     -0.588800
     10 O5          0.4530    0.6760   -1.1860 os        1 GL0     -0.451600
     11 O6          2.8910    1.9040   -0.3460 oh        1 GL0     -0.597800
     12 HO2        -3.2460   -1.4670   -0.8760 ho        1 GL0      0.426000
     13 H1         -1.4620    1.2910   -0.9390 h2        1 GL0      0.090700
     14 H2         -1.1940   -1.5240   -0.9540 h1        1 GL0      0.066700
     15 H4          0.6960   -0.4170    1.9240 h1        1 GL0      0.065700
     16 H5          0.6160    1.4890    0.6400 h1        1 GL0      0.075700
     17 H61         2.7600    0.5870    1.1060 h1        1 GL0      0.064200
     18 H62         2.7560   -0.0550   -0.3530 h1        1 GL0      0.064200
     19 HO4         1.3220   -2.2340    1.1510 ho        1 GL0      0.406000
     20 HO6         3.7730    1.9510   -0.2580 ho        1 GL0      0.413000
     21 H3         -1.2710   -1.5630    1.3120 h1        1 GL0      0.049700
     22 O3         -1.6830    0.3660    1.6140 oh        1 GL0     -0.600800
     23 HO3        -2.0640    0.0450    2.3480 ho        1 GL0      0.430000
     24 HO1        -1.3830    1.1330   -3.0080 ho        1 GL0      0.429000
@<TRIPOS>BOND
     1    1    3 1   
     2    1   12 1   
     3    2    3 1   
     4    2    8 1   
     5    2   10 1   
     6    2   13 1   
     7    3    4 1   
     8    3   14 1   
     9    4    5 1   
    10    4   21 1   
    11    4   22 1   
    12    5    6 1   
    13    5    9 1   
    14    5   15 1   
    15    6    7 1   
    16    6   10 1   
    17    6   16 1   
    18    7   11 1   
    19    7   17 1   
    20    7   18 1   
    21    8   24 1   
    22    9   19 1   
    23   11   20 1   
    24   22   23 1   
@<TRIPOS>SUBSTRUCTURE
     1 GL0         1 TEMP              0 ****  ****    0 ROOT
