@<TRIPOS>MOLECULE
GL0
   24    24     1     0     0
SMALL
bcc


@<TRIPOS>ATOM
      1 O2          2.8920    0.1870   -0.0920 oh        1 GL0     -0.605800
      2 C1          0.6840    1.1820   -0.3260 c3        1 GL0      0.315900
      3 C2          1.5460    0.0880    0.3390 c3        1 GL0      0.054100
      4 C3          1.0490   -1.3040   -0.0710 c3        1 GL0      0.118100
      5 C4         -0.4660   -1.4280    0.1850 c3        1 GL0      0.114100
      6 C5         -1.2280   -0.2330   -0.4040 c3        1 GL0      0.119100
      7 C6         -2.6890   -0.2160    0.0530 c3        1 GL0      0.141400
      8 O1          0.9910    2.4530    0.1760 oh        1 GL0     -0.598800
      9 O4         -0.7220   -1.4770    1.5790 oh        1 GL0     -0.588800
     10 O5         -0.6840    1.0220    0.0140 os        1 GL0     -0.451600
     11 O6         -3.4240    0.7720   -0.6340 oh        1 GL0     -0.597800
     12 HO2         3.1440    1.1170   -0.0010 ho        1 GL0      0.426000
     13 H1          0.8450    1.2110   -1.4390 h2        1 GL0      0.090700
     14 H2          1.4900    0.1910    1.4580 h1        1 GL0      0.066700
     15 H4         -0.8400   -2.3680   -0.3110 h1        1 GL0      0.065700
     16 H5         -1.1580   -0.2980   -1.5270 h1        1 GL0      0.075700
     17 H61        -3.1770   -1.1900   -0.2140 h1        1 GL0      0.064200
     18 H62        -2.7360   -0.0510    1.1620 h1        1 GL0      0.064200
     19 HO4        -0.3080   -2.2830    1.9110 ho        1 GL0      0.406000
     20 HO6        -3.0080    1.6210   -0.4400 ho        1 GL0      0.413000
     21 H3          1.6040   -2.0790    0.5290 h1        1 GL0      0.049700
     22 O3          1.2510   -1.5500   -1.4520 oh        1 GL0     -0.600800
     23 HO3         2.1770   -1.3380   -1.6380 ho        1 GL0      0.430000
     24 HO1         0.5320    2.5630    1.0220 ho        1 GL0      0.429000
@<TRIPOS>BOND
     1    1    3 1   
     2    1   12 1   
     3    2    3 1   
     4    2    8 1   
     5    2   10 1   
     6    2   13 1   
     7    3    4 1   
     8    3   14 1   
     9    4    5 1   
    10    4   21 1   
    11    4   22 1   
    12    5    6 1   
    13    5    9 1   
    14    5   15 1   
    15    6    7 1   
    16    6   10 1   
    17    6   16 1   
    18    7   11 1   
    19    7   17 1   
    20    7   18 1   
    21    8   24 1   
    22    9   19 1   
    23   11   20 1   
    24   22   23 1   
@<TRIPOS>SUBSTRUCTURE
     1 GL0         1 TEMP              0 ****  ****    0 ROOT
