@<TRIPOS>MOLECULE
GL1
   27    27     1     0     0
SMALL
bcc


@<TRIPOS>ATOM
      1 C1         -0.1660    0.2500    0.1680 c3        1 GL1      0.376900
      2 C2          1.3880    0.1330    0.1250 c3        1 GL1      0.081100
      3 C3          1.9210    0.0000    1.5650 c3        1 GL1      0.082100
      4 C4          1.4670    1.1890    2.4250 c3        1 GL1      0.124100
      5 C5         -0.0720    1.2400    2.3470 c3        1 GL1      0.076100
      6 C6         -0.6340    2.4390    3.1080 c3        1 GL1      0.149400
      7 O1         -0.7530   -0.8180    0.7460 os        1 GL1     -0.559200
      8 O2          1.8500   -0.9490   -0.6380 oh        1 GL1     -0.687800
      9 O3          3.3410   -0.0760    1.5980 oh        1 GL1     -0.635800
     10 O4          2.0390    2.4190    2.0060 oh        1 GL1     -0.620800
     11 O5         -0.4710    1.4030    0.9930 os        1 GL1     -0.489600
     12 O6         -2.0410    2.5370    3.0000 oh        1 GL1     -0.641800
     13 P          -1.6170   -1.8770   -0.3660 p5        1 GL1      1.320900
     14 O1P        -0.3990   -2.5680   -0.9320 o         1 GL1     -0.909833
     15 O2P        -2.5060   -2.6730    0.5340 o         1 GL1     -0.909833
     16 O3P        -2.2470   -0.8680   -1.2820 o         1 GL1     -0.909833
     17 H1         -0.6020    0.5060   -0.8430 h2        1 GL1      0.110700
     18 H2          1.8230    1.0590   -0.3460 h1        1 GL1      0.012700
     19 H3          1.5000   -0.9480    2.0080 h1        1 GL1      0.073700
     20 H4          1.8180    1.0670    3.4840 h1        1 GL1      0.049700
     21 H5         -0.5010    0.2780    2.7480 h1        1 GL1      0.095700
     22 H61        -0.4120    2.3400    4.2030 h1        1 GL1      0.019700
     23 H62        -0.1780    3.3890    2.7180 h1        1 GL1      0.019700
     24 HO2         1.1070   -1.6180   -0.7070 ho        1 GL1      0.508000
     25 HO3         3.5870   -0.5790    0.8090 ho        1 GL1      0.412000
     26 HO4         1.6950    2.5850    1.1190 ho        1 GL1      0.408000
     27 HO6        -2.2980    2.0930    2.1770 ho        1 GL1      0.443000
@<TRIPOS>BOND
     1    1    2 1   
     2    1    7 1   
     3    1   11 1   
     4    1   17 1   
     5    2    3 1   
     6    2    8 1   
     7    2   18 1   
     8    3    4 1   
     9    3    9 1   
    10    3   19 1   
    11    4    5 1   
    12    4   10 1   
    13    4   20 1   
    14    5    6 1   
    15    5   11 1   
    16    5   21 1   
    17    6   12 1   
    18    6   22 1   
    19    6   23 1   
    20    7   13 1   
    21    8   24 1   
    22    9   25 1   
    23   10   26 1   
    24   12   27 1   
    25   13   14 1   
    26   13   15 1   
    27   13   16 1   
@<TRIPOS>SUBSTRUCTURE
     1 GL1         1 TEMP              0 ****  ****    0 ROOT
