@<TRIPOS>MOLECULE
GL1
   27    27     1     0     0
SMALL
bcc


@<TRIPOS>ATOM
      1 C1          0.0750   -0.1510    0.7510 c3        1 GL1      0.376900
      2 C2         -0.9520   -1.3160    0.6070 c3        1 GL1      0.081100
      3 C3         -1.7780   -1.1000   -0.6770 c3        1 GL1      0.082100
      4 C4         -2.4750    0.2690   -0.6510 c3        1 GL1      0.124100
      5 C5         -1.3750    1.3310   -0.4490 c3        1 GL1      0.076100
      6 C6         -1.9650    2.7340   -0.3300 c3        1 GL1      0.149400
      7 O1          0.9210   -0.0700   -0.2960 os        1 GL1     -0.559200
      8 O2         -0.3600   -2.5860    0.5640 oh        1 GL1     -0.687800
      9 O3         -2.7610   -2.1130   -0.8490 oh        1 GL1     -0.635800
     10 O4         -3.4660    0.3620    0.3600 oh        1 GL1     -0.620800
     11 O5         -0.6950    1.0780    0.7730 os        1 GL1     -0.489600
     12 O6         -0.9770    3.7170   -0.0850 oh        1 GL1     -0.641800
     13 P           2.5750   -0.5670    0.0540 p5        1 GL1      1.320900
     14 O1P         2.3220   -2.0560    0.0250 o         1 GL1     -0.909833
     15 O2P         3.3590    0.0210   -1.0750 o         1 GL1     -0.909833
     16 O3P         2.7570    0.0100    1.4270 o         1 GL1     -0.909833
     17 H1          0.6010   -0.1700    1.7510 h2        1 GL1      0.110700
     18 H2         -1.6450   -1.3200    1.4950 h1        1 GL1      0.012700
     19 H3         -1.0730   -1.1310   -1.5560 h1        1 GL1      0.073700
     20 H4         -3.0380    0.4420   -1.6070 h1        1 GL1      0.049700
     21 H5         -0.6400    1.2780   -1.3020 h1        1 GL1      0.095700
     22 H61        -2.7160    2.7660    0.5050 h1        1 GL1      0.019700
     23 H62        -2.4630    3.0270   -1.2920 h1        1 GL1      0.019700
     24 HO2         0.5950   -2.4720    0.2850 ho        1 GL1      0.508000
     25 HO3        -2.3500   -2.9250   -0.5190 ho        1 GL1      0.412000
     26 HO4        -2.9960    0.2860    1.2020 ho        1 GL1      0.408000
     27 HO6        -0.2290    3.2720    0.3440 ho        1 GL1      0.443000
@<TRIPOS>BOND
     1    1    2 1   
     2    1    7 1   
     3    1   11 1   
     4    1   17 1   
     5    2    3 1   
     6    2    8 1   
     7    2   18 1   
     8    3    4 1   
     9    3    9 1   
    10    3   19 1   
    11    4    5 1   
    12    4   10 1   
    13    4   20 1   
    14    5    6 1   
    15    5   11 1   
    16    5   21 1   
    17    6   12 1   
    18    6   22 1   
    19    6   23 1   
    20    7   13 1   
    21    8   24 1   
    22    9   25 1   
    23   10   26 1   
    24   12   27 1   
    25   13   14 1   
    26   13   15 1   
    27   13   16 1   
@<TRIPOS>SUBSTRUCTURE
     1 GL1         1 TEMP              0 ****  ****    0 ROOT
