@<TRIPOS>MOLECULE
GL1
   27    27     1     0     0
SMALL
bcc


@<TRIPOS>ATOM
      1 C1         -0.1730    0.2540    0.1700 c3        1 GL1      0.376900
      2 C2          1.3820    0.1430    0.1160 c3        1 GL1      0.081100
      3 C3          1.9250    0.0040    1.5520 c3        1 GL1      0.082100
      4 C4          1.4720    1.1870    2.4210 c3        1 GL1      0.124100
      5 C5         -0.0680    1.2320    2.3540 c3        1 GL1      0.076100
      6 C6         -0.6290    2.4250    3.1250 c3        1 GL1      0.149400
      7 O1         -0.7520   -0.8190    0.7460 os        1 GL1     -0.559200
      8 O2          1.8430   -0.9330   -0.6560 oh        1 GL1     -0.687800
      9 O3          3.3450   -0.0670    1.5740 oh        1 GL1     -0.635800
     10 O4          2.0370    2.4210    2.0060 oh        1 GL1     -0.620800
     11 O5         -0.4760    1.4020    1.0040 os        1 GL1     -0.489600
     12 O6         -2.0370    2.5190    3.0270 oh        1 GL1     -0.641800
     13 P          -1.6200   -1.8750   -0.3660 p5        1 GL1      1.320900
     14 O1P        -0.4030   -2.5580   -0.9440 o         1 GL1     -0.909833
     15 O2P        -2.4990   -2.6790    0.5350 o         1 GL1     -0.909833
     16 O3P        -2.2590   -0.8640   -1.2720 o         1 GL1     -0.909833
     17 H1         -0.6160    0.5140   -0.8370 h2        1 GL1      0.110700
     18 H2          1.8110    1.0730   -0.3530 h1        1 GL1      0.012700
     19 H3          1.5110   -0.9480    1.9920 h1        1 GL1      0.073700
     20 H4          1.8310    1.0600    3.4770 h1        1 GL1      0.049700
     21 H5         -0.4900    0.2660    2.7520 h1        1 GL1      0.095700
     22 H61        -0.3990    2.3210    4.2180 h1        1 GL1      0.019700
     23 H62        -0.1790    3.3780    2.7380 h1        1 GL1      0.019700
     24 HO2         1.1020   -1.6040   -0.7230 ho        1 GL1      0.508000
     25 HO3         3.5880   -0.5650    0.7820 ho        1 GL1      0.412000
     26 HO4         1.6860    2.5910    1.1220 ho        1 GL1      0.408000
     27 HO6        -2.2980    2.0780    2.2040 ho        1 GL1      0.443000
@<TRIPOS>BOND
     1    1    2 1   
     2    1    7 1   
     3    1   11 1   
     4    1   17 1   
     5    2    3 1   
     6    2    8 1   
     7    2   18 1   
     8    3    4 1   
     9    3    9 1   
    10    3   19 1   
    11    4    5 1   
    12    4   10 1   
    13    4   20 1   
    14    5    6 1   
    15    5   11 1   
    16    5   21 1   
    17    6   12 1   
    18    6   22 1   
    19    6   23 1   
    20    7   13 1   
    21    8   24 1   
    22    9   25 1   
    23   10   26 1   
    24   12   27 1   
    25   13   14 1   
    26   13   15 1   
    27   13   16 1   
@<TRIPOS>SUBSTRUCTURE
     1 GL1         1 TEMP              0 ****  ****    0 ROOT
