@<TRIPOS>MOLECULE
GL1
   27    27     1     0     0
SMALL
bcc


@<TRIPOS>ATOM
      1 C1         -0.3780    0.0960   -1.0930 c3        1 GL1      0.378900
      2 C2          1.1340    0.0960   -1.0930 c3        1 GL1      0.055100
      3 C3          1.6980    0.0960    0.2790 c3        1 GL1      0.112100
      4 C4          1.1210   -0.9910    1.1270 c3        1 GL1      0.089100
      5 C5         -0.3980   -0.9870    1.1150 c3        1 GL1      0.096100
      6 C6         -0.8860    0.2310    1.8420 c3        1 GL1      0.134400
      7 O1         -0.8260   -0.0760   -2.3920 os        1 GL1     -0.519200
      8 O2          1.6010   -1.0790   -1.7880 oh        1 GL1     -0.638800
      9 O3          1.4170    1.3730    0.9000 oh        1 GL1     -0.641800
     10 O4          1.5740   -0.8150    2.4740 oh        1 GL1     -0.628800
     11 O5         -0.9480   -0.9830   -0.2400 os        1 GL1     -0.440600
     12 O6         -2.1930   -0.0070    2.3420 oh        1 GL1     -0.651800
     13 P          -2.1610    0.6650   -2.8380 p5        1 GL1      1.316900
     14 O1P        -1.9450    2.1600   -2.7970 o         1 GL1     -0.916833
     15 O2P        -3.2820    0.2920   -1.8980 o         1 GL1     -0.916833
     16 O3P        -2.5230    0.2470   -4.2460 o         1 GL1     -0.916833
     17 H1         -0.6930    0.9590   -0.7620 h2        1 GL1      0.058700
     18 H2          1.4510    0.8900   -1.5650 h1        1 GL1      0.075700
     19 H3          2.6650   -0.0240    0.2240 h1        1 GL1      0.046700
     20 H4          1.4380   -1.8530    0.7960 h1        1 GL1      0.062700
     21 H5         -0.7180   -1.7830    1.5820 h1        1 GL1      0.044700
     22 H61        -0.9060    0.9900    1.2290 h1        1 GL1      0.010200
     23 H62        -0.2850    0.4300    2.5850 h1        1 GL1      0.010200
     24 HO2         2.1720   -0.8390   -2.4240 ho        1 GL1      0.439000
     25 HO3         2.1580    1.8600    0.9240 ho        1 GL1      0.431000
     26 HO4         2.0780   -1.5070    2.7090 ho        1 GL1      0.407000
     27 HO6        -2.3630    0.5570    3.0060 ho        1 GL1      0.505000
@<TRIPOS>BOND
     1    1    2 1   
     2    1    7 1   
     3    1   11 1   
     4    1   17 1   
     5    2    3 1   
     6    2    8 1   
     7    2   18 1   
     8    3    4 1   
     9    3    9 1   
    10    3   19 1   
    11    4    5 1   
    12    4   10 1   
    13    4   20 1   
    14    5    6 1   
    15    5   11 1   
    16    5   21 1   
    17    6   12 1   
    18    6   22 1   
    19    6   23 1   
    20    7   13 1   
    21    8   24 1   
    22    9   25 1   
    23   10   26 1   
    24   12   27 1   
    25   13   14 1   
    26   13   15 1   
    27   13   16 1   
@<TRIPOS>SUBSTRUCTURE
     1 GL1         1 TEMP              0 ****  ****    0 ROOT
