@<TRIPOS>MOLECULE
GL2
   31    32     1     0     0
SMALL
bcc


@<TRIPOS>ATOM
      1 C1         -0.2080    0.0850    0.7650 c3        1 GL2      0.184200
      2 C2         -0.7160    1.2680   -0.0340 c3        1 GL2      0.120100
      3 O2         -2.1270    1.3890    0.1700 oh        1 GL2     -0.564800
      4 C3         -0.4520    1.1190   -1.4900 c3        1 GL2      0.108100
      5 O3          0.9760    1.2170   -1.7180 oh        1 GL2     -0.601800
      6 C4         -0.9380   -0.1870   -2.0180 c3        1 GL2      0.116100
      7 O4         -2.3770   -0.1890   -1.9860 oh        1 GL2     -0.598800
      8 C5         -0.4280   -1.3580   -1.2110 c3        1 GL2      0.109100
      9 C6          1.0530   -1.4910   -1.4350 c3        1 GL2      0.093400
     10 O6          1.3110   -2.6130   -2.3340 oh        1 GL2     -0.603800
     11 O5         -0.6840   -1.2040    0.2310 os        1 GL2     -0.402600
     12 N2          1.2010    0.0980    0.7630 n         1 GL2     -0.559900
     13 C8          1.6440    0.0800    2.1290 c         1 GL2      0.818500
     14 O8          2.8000    0.0050    2.5060 o         1 GL2     -0.570500
     15 N1          0.4910    0.1970    2.9690 n         1 GL2     -0.414800
     16 C7         -0.6510    0.2190    2.1410 c         1 GL2      0.693500
     17 O7         -1.7980    0.1850    2.5200 o         1 GL2     -0.541500
     18 N3          0.4900    0.1980    4.4010 n3        1 GL2     -0.581800
     19 H2         -0.2640    2.1060    0.2970 h1        1 GL2      0.097700
     20 HO2        -2.3460    2.2090    0.1510 ho        1 GL2      0.435000
     21 H3         -0.9080    1.8540   -1.9780 h1        1 GL2      0.081700
     22 HO3         1.1540    1.9660   -2.1540 ho        1 GL2      0.420000
     23 H4         -0.6330   -0.2910   -2.9670 h1        1 GL2      0.082700
     24 HO4        -2.6870   -0.2510   -2.8020 ho        1 GL2      0.419000
     25 H5         -0.8570   -2.1490   -1.5140 h1        1 GL2      0.103700
     26 H61         1.4850   -1.6440   -0.6050 h1        1 GL2      0.048200
     27 H62         1.4120   -0.6280   -1.8550 h1        1 GL2      0.048200
     28 HO6         2.1920   -2.7740   -2.3680 ho        1 GL2      0.413000
     29 HN2         1.7390    0.1760    0.0230 hn        1 GL2      0.332500
     30 HN31        0.0850    0.9420    4.6990 hn        1 GL2      0.357800
     31 HN32        0.0400   -0.5350    4.7050 hn        1 GL2      0.357800
@<TRIPOS>BOND
     1    1    2 1   
     2    1   11 1   
     3    1   12 1   
     4    1   16 1   
     5    2    3 1   
     6    2    4 1   
     7    2   19 1   
     8    3   20 1   
     9    4    5 1   
    10    4    6 1   
    11    4   21 1   
    12    5   22 1   
    13    6    7 1   
    14    6    8 1   
    15    6   23 1   
    16    7   24 1   
    17    8    9 1   
    18    8   11 1   
    19    8   25 1   
    20    9   10 1   
    21    9   26 1   
    22    9   27 1   
    23   10   28 1   
    24   12   13 1   
    25   12   29 1   
    26   13   14 2   
    27   13   15 1   
    28   15   16 1   
    29   15   18 1   
    30   16   17 2   
    31   18   30 1   
    32   18   31 1   
@<TRIPOS>SUBSTRUCTURE
     1 GL2         1 TEMP              0 ****  ****    0 ROOT
