@<TRIPOS>MOLECULE
GL2
   31    32     1     0     0
SMALL
bcc


@<TRIPOS>ATOM
      1 C1         -0.1610    0.4430    0.4440 c3        1 GL2      0.215200
      2 C2         -1.5430    0.5910   -0.2470 c3        1 GL2      0.152100
      3 O2         -2.5160    0.1090    0.6580 oh        1 GL2     -0.585800
      4 C3         -1.5770   -0.2200   -1.5530 c3        1 GL2      0.100100
      5 O3         -2.8150    0.0860   -2.1690 oh        1 GL2     -0.605800
      6 C4         -0.4000    0.1920   -2.4500 c3        1 GL2      0.085100
      7 O4         -0.4780   -0.6480   -3.5890 oh        1 GL2     -0.590800
      8 C5          0.9080   -0.0220   -1.6790 c3        1 GL2      0.068100
      9 C6          2.1210    0.5010   -2.4560 c3        1 GL2      0.136400
     10 O6          3.3290    0.1730   -1.8100 oh        1 GL2     -0.584800
     11 O5          0.9020    0.7420   -0.4670 os        1 GL2     -0.439600
     12 N2         -0.0120    1.3620    1.5850 n         1 GL2     -0.490900
     13 C8          0.4210    0.6210    2.7170 c         1 GL2      0.764500
     14 O8          0.7250    1.0900    3.8240 o         1 GL2     -0.600500
     15 N1          0.4260   -0.7940    2.4160 n         1 GL2     -0.402800
     16 C7          0.0340   -0.9940    1.0650 c         1 GL2      0.719500
     17 O7         -0.0930   -2.0580    0.4690 o         1 GL2     -0.539500
     18 N3          0.5350   -1.7890    3.3320 n3        1 GL2     -0.582800
     19 H2         -1.7330    1.6780   -0.4740 h1        1 GL2      0.073700
     20 HO2        -3.3570    0.1050    0.1770 ho        1 GL2      0.434000
     21 H3         -1.5170   -1.3240   -1.3290 h1        1 GL2      0.094700
     22 HO3        -2.8390   -0.4120   -2.9970 ho        1 GL2      0.432000
     23 H4         -0.5030    1.2700   -2.7560 h1        1 GL2      0.060700
     24 HO4         0.1950   -0.3490   -4.2120 ho        1 GL2      0.412000
     25 H5          1.0380   -1.1130   -1.4300 h1        1 GL2      0.100700
     26 H61         2.1770   -0.0150   -3.4520 h1        1 GL2      0.055700
     27 H62         2.0370    1.6110   -2.5970 h1        1 GL2      0.055700
     28 HO6         3.2980    0.5680   -0.9280 ho        1 GL2      0.414000
     29 HN2         0.4340    2.2350    1.4100 hn        1 GL2      0.329500
     30 HN31        1.4170   -1.6710    3.8230 hn        1 GL2      0.359800
     31 HN32       -0.2060   -1.6960    4.0210 hn        1 GL2      0.359800
@<TRIPOS>BOND
     1    1    2 1   
     2    1   11 1   
     3    1   12 1   
     4    1   16 1   
     5    2    3 1   
     6    2    4 1   
     7    2   19 1   
     8    3   20 1   
     9    4    5 1   
    10    4    6 1   
    11    4   21 1   
    12    5   22 1   
    13    6    7 1   
    14    6    8 1   
    15    6   23 1   
    16    7   24 1   
    17    8    9 1   
    18    8   11 1   
    19    8   25 1   
    20    9   10 1   
    21    9   26 1   
    22    9   27 1   
    23   10   28 1   
    24   12   13 1   
    25   12   29 1   
    26   13   14 2   
    27   13   15 1   
    28   15   16 1   
    29   15   18 1   
    30   16   17 2   
    31   18   30 1   
    32   18   31 1   
@<TRIPOS>SUBSTRUCTURE
     1 GL2         1 TEMP              0 ****  ****    0 ROOT
