@<TRIPOS>MOLECULE
GL3
   10     9     1     0     0
SMALL
bcc


@<TRIPOS>ATOM
      1 CA          0.0160   -0.1650   -0.6750 c3        1 GL3      0.074800
      2 N           1.4420   -0.1650   -0.6750 n3        1 GL3     -0.905800
      3 C          -0.4880   -0.1650    0.7510 c         1 GL3      0.587700
      4 O          -0.2400   -1.1020    1.4840 o         1 GL3     -0.524100
      5 S          -1.4420    1.2030    1.3550 sh        1 GL3     -0.307400
      6 HA1        -0.3090   -0.9620   -1.1350 h1        1 GL3      0.061700
      7 HA2        -0.3090    0.6320   -1.1350 h1        1 GL3      0.061700
      8 H           1.7460   -0.7740   -1.2810 hn        1 GL3      0.363300
      9 H2          1.7460    0.6650   -0.8990 hn        1 GL3      0.363300
     10 HS         -2.1610    0.8330    2.2110 hs        1 GL3      0.224800
@<TRIPOS>BOND
     1    1    2 1   
     2    1    3 1   
     3    1    6 1   
     4    1    7 1   
     5    2    8 1   
     6    2    9 1   
     7    3    4 2   
     8    3    5 1   
     9    5   10 1   
@<TRIPOS>SUBSTRUCTURE
     1 GL3         1 TEMP              0 ****  ****    0 ROOT
