@<TRIPOS>MOLECULE
GL3
   10     9     1     0     0
SMALL
bcc


@<TRIPOS>ATOM
      1 CA          0.8480   -0.0980    1.0480 c3        1 GL3      0.071800
      2 N           0.5060    0.0650    2.4310 n3        1 GL3     -0.887800
      3 C          -0.2410    0.2170    0.0350 c         1 GL3      0.545700
      4 O          -1.3310    0.7040    0.3440 o         1 GL3     -0.531100
      5 S           0.2730   -0.1950   -1.5570 sh        1 GL3     -0.330400
      6 HA1         1.7250    0.5750    0.8180 h1        1 GL3      0.089200
      7 HA2         1.1760   -1.1660    0.8840 h1        1 GL3      0.089200
      8 H           0.2300    1.0080    2.6260 hn        1 GL3      0.360800
      9 H2         -0.2390   -0.5500    2.6940 hn        1 GL3      0.360800
     10 HS         -0.7860    0.1680   -2.2680 hs        1 GL3      0.230800
@<TRIPOS>BOND
     1    1    2 1   
     2    1    3 1   
     3    1    6 1   
     4    1    7 1   
     5    2    8 1   
     6    2    9 1   
     7    3    4 2   
     8    3    5 1   
     9    5   10 1   
@<TRIPOS>SUBSTRUCTURE
     1 GL3         1 TEMP              0 ****  ****    0 ROOT
