@<TRIPOS>MOLECULE
GL4
   29    30     1     0     0
SMALL
bcc


@<TRIPOS>ATOM
      1 C1         -0.0740    0.1310    0.0610 c3        1 GL4      0.164200
      2 C2         -0.7170    1.3390   -0.6720 c3        1 GL4      0.113100
      3 O2         -0.3970    2.5610   -0.0420 oh        1 GL4     -0.591800
      4 C3         -2.2490    1.2160   -0.6320 c3        1 GL4      0.101100
      5 O3         -2.8450    2.2160   -1.4380 oh        1 GL4     -0.603800
      6 C4         -2.6590   -0.1380   -1.2340 c3        1 GL4      0.123100
      7 O4         -4.0570   -0.3340   -1.1340 oh        1 GL4     -0.590800
      8 C5         -1.9800   -1.2580   -0.4290 c3        1 GL4      0.140100
      9 C6         -2.2620   -2.6270   -1.0520 c3        1 GL4      0.136400
     10 O6         -2.0620   -3.5900   -0.0310 oh        1 GL4     -0.594800
     11 O5         -0.5550   -1.0970   -0.4840 os        1 GL4     -0.415600
     12 N2          1.4000    0.1280   -0.0700 ns        1 GL4     -0.477900
     13 C8          1.9940   -0.0130    1.2170 c         1 GL4      0.496400
     14 S8          3.5320   -0.1760    1.5020 s         1 GL4     -0.385400
     15 N1          0.9840    0.0940    2.1930 ns        1 GL4     -0.563500
     16 C7         -0.2940    0.1840    1.6170 c         1 GL4      0.685500
     17 O7         -1.3550    0.2810    2.2300 o         1 GL4     -0.554500
     18 H2         -0.3660    1.3410   -1.7430 h1        1 GL4      0.072700
     19 HO2         0.5370    2.7390   -0.2110 ho        1 GL4      0.426000
     20 H3         -2.6140    1.3030    0.4310 h1        1 GL4      0.091700
     21 HO3        -2.5910    3.0670   -1.0540 ho        1 GL4      0.430000
     22 H4         -2.3490   -0.1820   -2.3150 h1        1 GL4      0.058700
     23 HO4        -4.4730    0.4680   -1.4820 ho        1 GL4      0.429000
     24 H5         -2.3220   -1.2360    0.6430 h1        1 GL4      0.103700
     25 H61        -3.3290   -2.6450   -1.4040 h1        1 GL4      0.049700
     26 H62        -1.5660   -2.8190   -1.9110 h1        1 GL4      0.049700
     27 HO6        -2.2470   -4.4500   -0.4270 ho        1 GL4      0.406000
     28 HN2         1.7720   -0.4520   -0.7930 hn        1 GL4      0.333500
     29 HN1         1.1790    0.1060    3.1660 hn        1 GL4      0.367500
@<TRIPOS>BOND
     1    1    2 1   
     2    1   11 1   
     3    1   12 1   
     4    1   16 1   
     5    2    3 1   
     6    2    4 1   
     7    2   18 1   
     8    3   19 1   
     9    4    5 1   
    10    4    6 1   
    11    4   20 1   
    12    5   21 1   
    13    6    7 1   
    14    6    8 1   
    15    6   22 1   
    16    7   23 1   
    17    8    9 1   
    18    8   11 1   
    19    8   24 1   
    20    9   10 1   
    21    9   25 1   
    22    9   26 1   
    23   10   27 1   
    24   12   13 1   
    25   12   28 1   
    26   13   14 2   
    27   13   15 1   
    28   15   16 1   
    29   15   29 1   
    30   16   17 2   
@<TRIPOS>SUBSTRUCTURE
     1 GL4         1 TEMP              0 ****  ****    0 ROOT
