@<TRIPOS>MOLECULE
GL4
   29    30     1     0     0
SMALL
bcc


@<TRIPOS>ATOM
      1 C1         -0.0730    0.1300    0.0590 c3        1 GL4      0.164200
      2 C2         -0.7210    1.3450   -0.6560 c3        1 GL4      0.113100
      3 O2         -0.4010    2.5610   -0.0130 oh        1 GL4     -0.591800
      4 C3         -2.2530    1.2200   -0.6110 c3        1 GL4      0.101100
      5 O3         -2.8540    2.2280   -1.4010 oh        1 GL4     -0.603800
      6 C4         -2.6640   -0.1280   -1.2270 c3        1 GL4      0.123100
      7 O4         -4.0610   -0.3270   -1.1230 oh        1 GL4     -0.590800
      8 C5         -1.9790   -1.2560   -0.4390 c3        1 GL4      0.140100
      9 C6         -2.2620   -2.6180   -1.0770 c3        1 GL4      0.136400
     10 O6         -2.0570   -3.5930   -0.0680 oh        1 GL4     -0.594800
     11 O5         -0.5550   -1.0930   -0.4980 os        1 GL4     -0.415600
     12 N2          1.4000    0.1310   -0.0780 n         1 GL4     -0.477900
     13 C8          2.0000   -0.0250    1.2040 c         1 GL4      0.496400
     14 S8          3.5400   -0.1900    1.4800 s         1 GL4     -0.385400
     15 N1          0.9940    0.0680    2.1860 n         1 GL4     -0.563500
     16 C7         -0.2870    0.1630    1.6170 c         1 GL4      0.685500
     17 O7         -1.3450    0.2520    2.2360 o         1 GL4     -0.554500
     18 H2         -0.3750    1.3610   -1.7280 h1        1 GL4      0.072700
     19 HO2         0.5330    2.7410   -0.1840 ho        1 GL4      0.426000
     20 H3         -2.6130    1.2930    0.4550 h1        1 GL4      0.091700
     21 HO3        -2.6000    3.0750   -1.0090 ho        1 GL4      0.430000
     22 H4         -2.3580   -0.1580   -2.3100 h1        1 GL4      0.058700
     23 HO4        -4.4790    0.4780   -1.4600 ho        1 GL4      0.429000
     24 H5         -2.3170   -1.2480    0.6350 h1        1 GL4      0.103700
     25 H61        -1.5690   -2.7990   -1.9400 h1        1 GL4      0.049700
     26 H62        -3.3300   -2.6340   -1.4250 h1        1 GL4      0.049700
     27 HO6        -2.2420   -4.4490   -0.4730 ho        1 GL4      0.406000
     28 HN2         1.7700   -0.4400   -0.8100 hn        1 GL4      0.333500
     29 HN1         1.1940    0.0690    3.1580 hn        1 GL4      0.367500
@<TRIPOS>BOND
     1    1    2 1   
     2    1   11 1   
     3    1   12 1   
     4    1   16 1   
     5    2    3 1   
     6    2    4 1   
     7    2   18 1   
     8    3   19 1   
     9    4    5 1   
    10    4    6 1   
    11    4   20 1   
    12    5   21 1   
    13    6    7 1   
    14    6    8 1   
    15    6   22 1   
    16    7   23 1   
    17    8    9 1   
    18    8   11 1   
    19    8   24 1   
    20    9   10 1   
    21    9   25 1   
    22    9   26 1   
    23   10   27 1   
    24   12   13 1   
    25   12   28 1   
    26   13   14 2   
    27   13   15 1   
    28   15   16 1   
    29   15   29 1   
    30   16   17 2   
@<TRIPOS>SUBSTRUCTURE
     1 GL4         1 TEMP              0 ****  ****    0 ROOT
