@<TRIPOS>MOLECULE
GL4
   29    30     1     0     0
SMALL
bcc


@<TRIPOS>ATOM
      1 C1         -0.1050   -0.2680   -0.3850 c3        1 GL4      0.212200
      2 C2         -1.4770   -0.5490    0.2810 c3        1 GL4      0.152100
      3 O2         -2.4720   -0.0130   -0.5690 oh        1 GL4     -0.585800
      4 C3         -1.5400    0.1190    1.6640 c3        1 GL4      0.101100
      5 O3         -2.7640   -0.2980    2.2420 oh        1 GL4     -0.604800
      6 C4         -0.3460   -0.3380    2.5160 c3        1 GL4      0.084100
      7 O4         -0.4530    0.3790    3.7350 oh        1 GL4     -0.591800
      8 C5          0.9510    0.0050    1.7730 c3        1 GL4      0.067100
      9 C6          2.1860   -0.5470    2.4930 c3        1 GL4      0.136400
     10 O6          3.3770   -0.1160    1.8780 oh        1 GL4     -0.584800
     11 O5          0.9700   -0.6290    0.4880 os        1 GL4     -0.434600
     12 N2          0.0840   -1.0240   -1.6340 n         1 GL4     -0.476900
     13 C8          0.4500   -0.1530   -2.6870 c         1 GL4      0.516400
     14 S8          0.8390   -0.5830   -4.1500 s         1 GL4     -0.398400
     15 N1          0.3630    1.1770   -2.2170 n         1 GL4     -0.560500
     16 C7          0.0290    1.2290   -0.8560 c         1 GL4      0.690500
     17 O7         -0.1080    2.2450   -0.1760 o         1 GL4     -0.563500
     18 H2         -1.6200   -1.6610    0.3910 h1        1 GL4      0.073700
     19 HO2        -3.3130   -0.1120   -0.0990 ho        1 GL4      0.434000
     20 H3         -1.5250    1.2410    1.5560 h1        1 GL4      0.092700
     21 HO3        -2.8040    0.1060    3.1200 ho        1 GL4      0.432000
     22 H4         -0.4070   -1.4440    2.7090 h1        1 GL4      0.060700
     23 HO4         0.2310    0.0400    4.3260 ho        1 GL4      0.413000
     24 H5          1.0380    1.1210    1.6380 h1        1 GL4      0.099700
     25 H61         2.1410   -1.6680    2.5260 h1        1 GL4      0.056200
     26 H62         2.2290   -0.1280    3.5340 h1        1 GL4      0.056200
     27 HO6         3.3620   -0.4370    0.9670 ho        1 GL4      0.415000
     28 HN2         0.5210   -1.9170   -1.5810 hn        1 GL4      0.341500
     29 HN1         0.4260    1.9600   -2.8230 hn        1 GL4      0.367500
@<TRIPOS>BOND
     1    1    2 1   
     2    1   11 1   
     3    1   12 1   
     4    1   16 1   
     5    2    3 1   
     6    2    4 1   
     7    2   18 1   
     8    3   19 1   
     9    4    5 1   
    10    4    6 1   
    11    4   20 1   
    12    5   21 1   
    13    6    7 1   
    14    6    8 1   
    15    6   22 1   
    16    7   23 1   
    17    8    9 1   
    18    8   11 1   
    19    8   24 1   
    20    9   10 1   
    21    9   25 1   
    22    9   26 1   
    23   10   27 1   
    24   12   13 1   
    25   12   28 1   
    26   13   14 2   
    27   13   15 1   
    28   15   16 1   
    29   15   29 1   
    30   16   17 2   
@<TRIPOS>SUBSTRUCTURE
     1 GL4         1 TEMP              0 ****  ****    0 ROOT
