@<TRIPOS>MOLECULE
GL4
   29    30     1     0     0
SMALL
bcc


@<TRIPOS>ATOM
      1 C1         -0.0750    0.1270    0.0620 c3        1 GL4      0.164200
      2 C2         -0.7140    1.3400   -0.6640 c3        1 GL4      0.113100
      3 O2         -0.3910    2.5580   -0.0280 oh        1 GL4     -0.591800
      4 C3         -2.2470    1.2220   -0.6240 c3        1 GL4      0.101100
      5 O3         -2.8410    2.2280   -1.4240 oh        1 GL4     -0.603800
      6 C4         -2.6620   -0.1280   -1.2320 c3        1 GL4      0.123100
      7 O4         -4.0600   -0.3210   -1.1320 oh        1 GL4     -0.590800
      8 C5         -1.9850   -1.2540   -0.4330 c3        1 GL4      0.140100
      9 C6         -2.2720   -2.6190   -1.0620 c3        1 GL4      0.136400
     10 O6         -2.0750   -3.5880   -0.0460 oh        1 GL4     -0.594800
     11 O5         -0.5600   -1.0970   -0.4880 os        1 GL4     -0.415600
     12 N2          1.3990    0.1200   -0.0690 n         1 GL4     -0.477900
     13 C8          1.9930   -0.0300    1.2170 c         1 GL4      0.496400
     14 S8          3.5310   -0.1990    1.5000 s         1 GL4     -0.385400
     15 N1          0.9840    0.0760    2.1940 n         1 GL4     -0.563500
     16 C7         -0.2940    0.1720    1.6190 c         1 GL4      0.685500
     17 O7         -1.3550    0.2710    2.2330 o         1 GL4     -0.554500
     18 H2         -0.3640    1.3470   -1.7350 h1        1 GL4      0.072700
     19 HO2         0.5440    2.7340   -0.1970 ho        1 GL4      0.426000
     20 H3         -2.6110    1.3040    0.4400 h1        1 GL4      0.091700
     21 HO3        -2.5840    3.0750   -1.0370 ho        1 GL4      0.430000
     22 H4         -2.3530   -0.1680   -2.3130 h1        1 GL4      0.058700
     23 HO4        -4.4730    0.4840   -1.4760 ho        1 GL4      0.429000
     24 H5         -2.3270   -1.2360    0.6400 h1        1 GL4      0.103700
     25 H61        -3.3390   -2.6320   -1.4140 h1        1 GL4      0.049700
     26 H62        -1.5770   -2.8090   -1.9220 h1        1 GL4      0.049700
     27 HO6        -2.2630   -4.4450   -0.4450 ho        1 GL4      0.406000
     28 HN2         1.7690   -0.4580   -0.7950 hn        1 GL4      0.333500
     29 HN1         1.1800    0.0830    3.1660 hn        1 GL4      0.367500
@<TRIPOS>BOND
     1    1    2 1   
     2    1   11 1   
     3    1   12 1   
     4    1   16 1   
     5    2    3 1   
     6    2    4 1   
     7    2   18 1   
     8    3   19 1   
     9    4    5 1   
    10    4    6 1   
    11    4   20 1   
    12    5   21 1   
    13    6    7 1   
    14    6    8 1   
    15    6   22 1   
    16    7   23 1   
    17    8    9 1   
    18    8   11 1   
    19    8   24 1   
    20    9   10 1   
    21    9   25 1   
    22    9   26 1   
    23   10   27 1   
    24   12   13 1   
    25   12   28 1   
    26   13   14 2   
    27   13   15 1   
    28   15   16 1   
    29   15   29 1   
    30   16   17 2   
@<TRIPOS>SUBSTRUCTURE
     1 GL4         1 TEMP              0 ****  ****    0 ROOT
