@<TRIPOS>MOLECULE
GL4
   29    30     1     0     0
SMALL
bcc


@<TRIPOS>ATOM
      1 C1         -0.2180    0.1140    1.0870 c3        1 GL4      0.173200
      2 C2         -0.7150    1.3110    0.2920 c3        1 GL4      0.140100
      3 O2         -2.1330    1.4460    0.4910 oh        1 GL4     -0.563800
      4 C3         -0.4460    1.1720   -1.1580 c3        1 GL4      0.105100
      5 O3          0.9880    1.2620   -1.3810 oh        1 GL4     -0.608800
      6 C4         -0.9380   -0.1260   -1.7010 c3        1 GL4      0.080100
      7 O4         -2.3700   -0.1210   -1.6850 oh        1 GL4     -0.597800
      8 C5         -0.4400   -1.3170   -0.8930 c3        1 GL4      0.110100
      9 C6          1.0310   -1.4620   -1.1020 c3        1 GL4      0.101400
     10 O6          1.2760   -2.5100   -2.0150 oh        1 GL4     -0.610800
     11 O5         -0.7030   -1.1730    0.5400 os        1 GL4     -0.378600
     12 N2          1.1830    0.1140    1.0870 n         1 GL4     -0.532900
     13 C8          1.6250    0.1140    2.4500 c         1 GL4      0.536400
     14 S8          3.2160    0.0460    2.9680 s         1 GL4     -0.438400
     15 N1          0.4730    0.1140    3.2860 n         1 GL4     -0.574500
     16 C7         -0.6610    0.1140    2.4650 c         1 GL4      0.712500
     17 O7         -1.8150    0.0800    2.8450 o         1 GL4     -0.527500
     18 H2         -0.2710    2.1150    0.6200 h1        1 GL4      0.105700
     19 HO2        -2.3270    2.2920    0.6750 ho        1 GL4      0.435000
     20 H3         -0.8870    1.9020   -1.6330 h1        1 GL4      0.084700
     21 HO3         1.1710    2.0000   -1.8380 ho        1 GL4      0.421000
     22 H4         -0.6320   -0.2190   -2.6230 h1        1 GL4      0.065700
     23 HO4        -2.6760   -0.3080   -2.4970 ho        1 GL4      0.418000
     24 H5         -0.8850   -2.1240   -1.2150 h1        1 GL4      0.100700
     25 H61         1.4620   -1.6650   -0.2500 h1        1 GL4      0.051200
     26 H62         1.3930   -0.6280   -1.4590 h1        1 GL4      0.051200
     27 HO6         2.1030   -2.8120   -1.9040 ho        1 GL4      0.414000
     28 HN2         1.7180    0.1570    0.3500 hn        1 GL4      0.359500
     29 HN1         0.4740    0.1120    4.1980 hn        1 GL4      0.367500
@<TRIPOS>BOND
     1    1    2 1   
     2    1   11 1   
     3    1   12 1   
     4    1   16 1   
     5    2    3 1   
     6    2    4 1   
     7    2   18 1   
     8    3   19 1   
     9    4    5 1   
    10    4    6 1   
    11    4   20 1   
    12    5   21 1   
    13    6    7 1   
    14    6    8 1   
    15    6   22 1   
    16    7   23 1   
    17    8    9 1   
    18    8   11 1   
    19    8   24 1   
    20    9   10 1   
    21    9   25 1   
    22    9   26 1   
    23   10   27 1   
    24   12   13 1   
    25   12   28 1   
    26   13   14 2   
    27   13   15 1   
    28   15   16 1   
    29   15   29 1   
    30   16   17 2   
@<TRIPOS>SUBSTRUCTURE
     1 GL4         1 TEMP              0 ****  ****    0 ROOT
