@<TRIPOS>MOLECULE
GL5
   30    31     1     0     0
SMALL
bcc


@<TRIPOS>ATOM
      1 C1         -0.1480   -0.5060   -0.4490 c3        1 GL5      0.217200
      2 C2         -1.5340   -0.5920    0.2440 c3        1 GL5      0.150100
      3 O2         -2.4930   -0.1220   -0.6840 oh        1 GL5     -0.583800
      4 C3         -1.5540    0.2720    1.5160 c3        1 GL5      0.101100
      5 O3         -2.7980    0.0150    2.1410 oh        1 GL5     -0.604800
      6 C4         -0.3870   -0.1240    2.4330 c3        1 GL5      0.084100
      7 O4         -0.4450    0.7700    3.5310 oh        1 GL5     -0.590800
      8 C5          0.9260    0.0250    1.6540 c3        1 GL5      0.068100
      9 C6          2.1290   -0.4830    2.4570 c3        1 GL5      0.136400
     10 O6          3.3420   -0.2120    1.7940 oh        1 GL5     -0.584800
     11 O5          0.9040   -0.7940    0.4800 os        1 GL5     -0.438600
     12 N2         -0.0180   -1.4670   -1.5520 n         1 GL5     -0.503900
     13 C8          0.4840   -0.8070   -2.7040 c         1 GL5      0.757500
     14 O8          0.7810   -1.3550   -3.7700 o         1 GL5     -0.560500
     15 N1          0.6370    0.6340   -2.4460 n         1 GL5     -0.312900
     16 C7          0.0870    0.8910   -1.1320 c         1 GL5      0.669500
     17 O7         -0.0700    1.9910   -0.6180 o         1 GL5     -0.518500
     18 O9          0.2380    1.4350   -3.4190 oh        1 GL5     -0.384100
     19 H2         -1.7520   -1.6640    0.5140 h1        1 GL5      0.073700
     20 HO2        -3.3370   -0.0900   -0.2110 ho        1 GL5      0.434000
     21 H3         -1.4740    1.3640    1.2460 h1        1 GL5      0.092700
     22 HO3        -2.8150    0.5490    2.9470 ho        1 GL5      0.432000
     23 H4         -0.5140   -1.1840    2.7870 h1        1 GL5      0.061700
     24 HO4         0.2110    0.4760    4.1740 ho        1 GL5      0.413000
     25 H5          1.0790    1.1010    1.3550 h1        1 GL5      0.095700
     26 H61         2.0220   -1.5830    2.6520 h1        1 GL5      0.056200
     27 H62         2.1960    0.0800    3.4260 h1        1 GL5      0.056200
     28 HO6         3.3070   -0.6600    0.9390 ho        1 GL5      0.415000
     29 HN2         0.3370   -2.3710   -1.3350 hn        1 GL5      0.332500
     30 HO9         1.0630    1.7740   -3.8280 ho        1 GL5      0.437000
@<TRIPOS>BOND
     1    1    2 1   
     2    1   11 1   
     3    1   12 1   
     4    1   16 1   
     5    2    3 1   
     6    2    4 1   
     7    2   19 1   
     8    3   20 1   
     9    4    5 1   
    10    4    6 1   
    11    4   21 1   
    12    5   22 1   
    13    6    7 1   
    14    6    8 1   
    15    6   23 1   
    16    7   24 1   
    17    8    9 1   
    18    8   11 1   
    19    8   25 1   
    20    9   10 1   
    21    9   26 1   
    22    9   27 1   
    23   10   28 1   
    24   12   13 1   
    25   12   29 1   
    26   13   14 2   
    27   13   15 1   
    28   15   16 1   
    29   15   18 1   
    30   16   17 2   
    31   18   30 1   
@<TRIPOS>SUBSTRUCTURE
     1 GL5         1 TEMP              0 ****  ****    0 ROOT
