@<TRIPOS>MOLECULE
GL6
   36    35     1     0     0
SMALL
bcc


@<TRIPOS>ATOM
      1 P           1.9940    1.0650    1.0810 p4        1 GL6      1.856000
      2 O11         1.9360    2.3290    0.2140 o         1 GL6     -0.835300
      3 O13         3.5650    0.6960    1.4140 o         1 GL6     -0.898500
      4 O12         1.1940    1.3240    2.4630 os        1 GL6     -0.567200
      5 O2          0.8020    0.4440   -2.4750 oh        1 GL6     -0.602800
      6 O3         -1.2630   -1.1380   -3.6660 oh        1 GL6     -0.605800
      7 O4         -3.6070   -1.1720   -2.0190 oh        1 GL6     -0.589800
      8 O5         -0.9260   -0.8190    0.5350 os        1 GL6     -0.444600
      9 O6         -3.2520   -1.3050    2.0740 oh        1 GL6     -0.591800
     10 N1          1.2920   -0.1940    0.2640 n3        1 GL6     -0.954300
     11 C1         -0.0020   -0.0490   -0.2690 c3        1 GL6      0.431300
     12 C15         1.7380    2.2530    3.3990 c3        1 GL6      0.145700
     13 C16         4.5840    1.4700    0.8060 c3        1 GL6      0.224400
     14 C2          0.0110   -0.4830   -1.7260 c3        1 GL6      0.113100
     15 C3         -1.3470   -0.5300   -2.3120 c3        1 GL6      0.067100
     16 C4         -2.2850   -1.3170   -1.4860 c3        1 GL6      0.085100
     17 C5         -2.2870   -0.8710   -0.0430 c3        1 GL6      0.108100
     18 C6         -3.1140   -1.8090    0.7590 c3        1 GL6      0.141400
     19 HO2         1.2650    0.0080   -3.0880 ho        1 GL6      0.428000
     20 HO3        -1.6060   -0.5670   -4.2750 ho        1 GL6      0.413000
     21 HO4        -3.7850   -1.8280   -2.5000 ho        1 GL6      0.408000
     22 HO6        -3.7420   -1.8880    2.5730 ho        1 GL6      0.413000
     23 HN1         1.7090   -0.9710    0.2060 hn        1 GL6      0.454800
     24 H1         -0.2540    0.8850   -0.2260 h2        1 GL6      0.101700
     25 H151        1.5310    3.1760    3.1050 h1        1 GL6      0.049033
     26 H152        2.6820    2.1390    3.4480 h1        1 GL6      0.049033
     27 H153        1.3430    2.0960    4.2870 h1        1 GL6      0.049033
     28 H161        5.4700    1.1620    1.1270 h1        1 GL6      0.049700
     29 H162        4.5360    1.3710   -0.1360 h1        1 GL6      0.049700
     30 H163        4.4650    2.3860    1.0330 h1        1 GL6      0.049700
     31 H2          0.4270   -1.3980   -1.7920 h1        1 GL6      0.064700
     32 H3         -1.6840    0.3740   -2.3930 h1        1 GL6      0.071700
     33 H4         -2.0190   -2.2930   -1.5270 h1        1 GL6      0.063700
     34 H5         -2.6820    0.0140    0.0080 h1        1 GL6      0.078700
     35 H61        -2.6880   -2.6680    0.7880 h1        1 GL6      0.062200
     36 H62        -4.0030   -1.8970    0.3490 h1        1 GL6      0.062200
@<TRIPOS>BOND
     1    1    2 2   
     2    1    4 1   
     3    1   10 1   
     4    3   13 1   
     5    4   12 1   
     6    5   14 1   
     7    5   19 1   
     8    6   15 1   
     9    6   20 1   
    10    7   16 1   
    11    7   21 1   
    12    8   11 1   
    13    8   17 1   
    14    9   18 1   
    15    9   22 1   
    16   10   11 1   
    17   10   23 1   
    18   11   14 1   
    19   11   24 1   
    20   12   25 1   
    21   12   26 1   
    22   12   27 1   
    23   13   28 1   
    24   13   29 1   
    25   13   30 1   
    26   14   15 1   
    27   14   31 1   
    28   15   16 1   
    29   15   32 1   
    30   16   17 1   
    31   16   33 1   
    32   17   18 1   
    33   17   34 1   
    34   18   35 1   
    35   18   36 1   
@<TRIPOS>SUBSTRUCTURE
     1 GL6         1 TEMP              0 ****  ****    0 ROOT
