@<TRIPOS>MOLECULE
GL6
   36    36     1     0     0
SMALL
bcc


@<TRIPOS>ATOM
      1 P          -2.2790   -0.3470   -0.4200 p5        1 GL6      1.635400
      2 O11        -3.4500   -0.9210   -1.0860 o         1 GL6     -0.835300
      3 O13        -2.5260    1.1630    0.1240 os        1 GL6     -0.588700
      4 O12        -2.0070   -1.0400    1.0140 os        1 GL6     -0.588700
      5 O2          0.0160    2.5450   -0.6430 oh        1 GL6     -0.608800
      6 O3          2.4330    2.7210    0.8080 oh        1 GL6     -0.604800
      7 O4          4.3150    0.6630    0.2010 oh        1 GL6     -0.594800
      8 O5          1.1410   -0.9630   -0.5000 os        1 GL6     -0.457600
      9 N1         -0.9530   -0.3000   -1.2830 n3        1 GL6     -0.956300
     10 C1          0.3810    0.1530   -1.0420 c3        1 GL6      0.429300
     11 C15        -2.5240   -2.3270    1.2400 c3        1 GL6      0.153700
     12 C16        -3.8570    1.5660    0.3390 c3        1 GL6      0.153700
     13 C2          0.6250    1.3840   -0.1120 c3        1 GL6      0.085100
     14 C3          2.1370    1.6850   -0.1110 c3        1 GL6      0.105100
     15 C4          2.9230    0.4490    0.3500 c3        1 GL6      0.122100
     16 C5          2.5490   -0.7460   -0.5380 c3        1 GL6      0.108100
     17 C6          3.1820   -2.0370   -0.0100 c3        1 GL6      0.140400
     18 HO3         1.9000    3.4840    0.5440 ho        1 GL6      0.427000
     19 HO4         4.5200    1.4720    0.6890 ho        1 GL6      0.426000
     20 HO6         1.9870   -3.2290   -0.9420 ho        1 GL6      0.408000
     21 HN1        -1.0010   -0.7450   -2.1750 hn        1 GL6      0.449800
     22 H1          0.8380    0.4250   -2.0480 h2        1 GL6      0.056700
     23 H151       -3.0740   -2.3020    2.2170 h1        1 GL6      0.047533
     24 H152       -3.2170   -2.6270    0.4120 h1        1 GL6      0.047533
     25 H153       -1.6680   -3.0480    1.3270 h1        1 GL6      0.047533
     26 H161       -4.0080    2.5360   -0.2040 h1        1 GL6      0.047533
     27 H162       -4.5710    0.7900   -0.0420 h1        1 GL6      0.047533
     28 H163       -4.0030    1.7370    1.4380 h1        1 GL6      0.047533
     29 H2          0.2880    1.1820    0.9400 h1        1 GL6      0.078700
     30 H3          2.4640    1.9940   -1.1440 h1        1 GL6      0.064700
     31 H4          2.6830    0.2300    1.4270 h1        1 GL6      0.064700
     32 H5          2.8800   -0.5590   -1.5970 h1        1 GL6      0.068700
     33 H61         4.2980   -1.9100    0.0190 h1        1 GL6      0.065700
     34 H62         2.7870   -2.2660    1.0150 h1        1 GL6      0.065700
     35 HO2        -0.8740    2.6150   -0.2700 ho        1 GL6      0.436000
     36 O6          2.9450   -3.1170   -0.8850 oh        1 GL6     -0.594800
@<TRIPOS>BOND
     1    1    2 2   
     2    1    3 1   
     3    1    4 1   
     4    1    9 1   
     5    3   12 1   
     6    4   11 1   
     7    5   13 1   
     8    5   35 1   
     9    6   14 1   
    10    6   18 1   
    11    7   15 1   
    12    7   19 1   
    13    8   10 1   
    14    8   16 1   
    15    9   10 1   
    16    9   21 1   
    17   10   13 1   
    18   10   22 1   
    19   11   23 1   
    20   11   24 1   
    21   11   25 1   
    22   12   26 1   
    23   12   27 1   
    24   12   28 1   
    25   13   14 1   
    26   13   29 1   
    27   14   15 1   
    28   14   30 1   
    29   15   16 1   
    30   15   31 1   
    31   16   17 1   
    32   16   32 1   
    33   17   33 1   
    34   17   34 1   
    35   17   36 1   
    36   20   36 1   
@<TRIPOS>SUBSTRUCTURE
     1 GL6         1 TEMP              0 ****  ****    0 ROOT
