@<TRIPOS>MOLECULE
GL7
   32    33     1     0     0
SMALL
bcc


@<TRIPOS>ATOM
      1 C1         -0.1290    0.4530    0.4470 c3        1 GL7      0.212200
      2 C2         -1.5210    0.5650   -0.2270 c3        1 GL7      0.153100
      3 O2         -2.4720    0.0610    0.6910 oh        1 GL7     -0.584800
      4 C3         -1.5520   -0.2550   -1.5280 c3        1 GL7      0.100100
      5 O3         -2.8050    0.0170   -2.1300 oh        1 GL7     -0.605800
      6 C4         -0.3960    0.1800   -2.4420 c3        1 GL7      0.084100
      7 O4         -0.4680   -0.6690   -3.5750 oh        1 GL7     -0.591800
      8 C5          0.9250    0.0010   -1.6850 c3        1 GL7      0.068100
      9 C6          2.1170    0.5420   -2.4810 c3        1 GL7      0.136400
     10 O6          3.3390    0.2580   -1.8390 oh        1 GL7     -0.585800
     11 O5          0.9150    0.7740   -0.4790 os        1 GL7     -0.439600
     12 N2          0.0140    1.3750    1.5870 n         1 GL7     -0.492900
     13 C8          0.4730    0.6310    2.7200 c         1 GL7      0.788500
     14 O8          0.7900    1.1180    3.8140 o         1 GL7     -0.590500
     15 N1          0.4790   -0.7660    2.4150 n         1 GL7     -0.502400
     16 C7          0.1080   -0.9730    1.0790 c         1 GL7      0.695500
     17 O7          0.0190   -2.0550    0.4990 o         1 GL7     -0.572500
     18 C9          0.6300   -1.7860    3.4030 c3        1 GL7      0.093300
     19 H2         -1.7420    1.6460   -0.4570 h1        1 GL7      0.073700
     20 HO2        -3.3220    0.0590    0.2270 ho        1 GL7      0.432000
     21 H3         -1.4630   -1.3550   -1.2970 h1        1 GL7      0.093700
     22 HO3        -2.8250   -0.4840   -2.9570 ho        1 GL7      0.431000
     23 H4         -0.5290    1.2530   -2.7520 h1        1 GL7      0.060700
     24 HO4         0.1890   -0.3550   -4.2090 ho        1 GL7      0.412000
     25 H5          1.0810   -1.0860   -1.4290 h1        1 GL7      0.099700
     26 H61         2.1790    0.0110   -3.4690 h1        1 GL7      0.055200
     27 H62         2.0030    1.6470   -2.6390 h1        1 GL7      0.055200
     28 HO6         3.3050    0.6690   -0.9650 ho        1 GL7      0.414000
     29 HN2         0.4730    2.2410    1.4070 hn        1 GL7      0.325500
     30 H91         1.3010   -1.4080    4.2210 h1        1 GL7      0.060033
     31 H92        -0.3660   -2.0630    3.8440 h1        1 GL7      0.060033
     32 H93         1.0820   -2.6940    2.9210 h1        1 GL7      0.060033
@<TRIPOS>BOND
     1    1    2 1   
     2    1   11 1   
     3    1   12 1   
     4    1   16 1   
     5    2    3 1   
     6    2    4 1   
     7    2   19 1   
     8    3   20 1   
     9    4    5 1   
    10    4    6 1   
    11    4   21 1   
    12    5   22 1   
    13    6    7 1   
    14    6    8 1   
    15    6   23 1   
    16    7   24 1   
    17    8    9 1   
    18    8   11 1   
    19    8   25 1   
    20    9   10 1   
    21    9   26 1   
    22    9   27 1   
    23   10   28 1   
    24   12   13 1   
    25   12   29 1   
    26   13   14 2   
    27   13   15 1   
    28   15   16 1   
    29   15   18 1   
    30   16   17 2   
    31   18   30 1   
    32   18   31 1   
    33   18   32 1   
@<TRIPOS>SUBSTRUCTURE
     1 GL7         1 TEMP              0 ****  ****    0 ROOT
