@<TRIPOS>MOLECULE
GL7
   32    33     1     0     0
SMALL
bcc


@<TRIPOS>ATOM
      1 C1         -0.2510    0.0580    0.6140 c3        1 GL7      0.172200
      2 C2         -0.7080    1.2810   -0.1680 c3        1 GL7      0.136100
      3 O2         -2.1350    1.4560    0.0250 oh        1 GL7     -0.564800
      4 C3         -0.4350    1.1580   -1.6100 c3        1 GL7      0.106100
      5 O3          0.9870    1.2100   -1.8200 oh        1 GL7     -0.608800
      6 C4         -0.9570   -0.1130   -2.1730 c3        1 GL7      0.080100
      7 O4         -2.4060   -0.0690   -2.1620 oh        1 GL7     -0.597800
      8 C5         -0.4980   -1.3270   -1.3810 c3        1 GL7      0.112100
      9 C6          0.9960   -1.5190   -1.5880 c3        1 GL7      0.103400
     10 O6          1.2110   -2.5160   -2.5870 oh        1 GL7     -0.612800
     11 O5         -0.7650   -1.1960    0.0500 os        1 GL7     -0.377600
     12 N2          1.1470    0.0190    0.6240 n         1 GL7     -0.552900
     13 C8          1.5830    0.0440    1.9920 c         1 GL7      0.797500
     14 O8          2.7270    0.0250    2.3710 o         1 GL7     -0.605500
     15 N1          0.4250    0.1590    2.8240 n         1 GL7     -0.515400
     16 C7         -0.7040    0.1790    1.9940 c         1 GL7      0.717500
     17 O7         -1.8760    0.2670    2.3660 o         1 GL7     -0.536500
     18 C9          0.4170    0.1540    4.2410 c3        1 GL7      0.095300
     19 H2         -0.2350    2.0800    0.1820 h1        1 GL7      0.102700
     20 HO2        -2.3210    2.3210    0.0880 ho        1 GL7      0.435000
     21 H3         -0.8630    1.9250   -2.0880 h1        1 GL7      0.082700
     22 HO3         1.1740    1.8160   -2.4540 ho        1 GL7      0.420000
     23 H4         -0.6460   -0.2030   -3.1040 h1        1 GL7      0.063700
     24 HO4        -2.7070   -0.2670   -2.9500 ho        1 GL7      0.417000
     25 H5         -0.9700   -2.1220   -1.7190 h1        1 GL7      0.098700
     26 H61         1.4000   -0.6670   -1.8800 h1        1 GL7      0.052200
     27 H62         1.4140   -1.8090   -0.7350 h1        1 GL7      0.052200
     28 HO6         2.0600   -2.8330   -2.5220 ho        1 GL7      0.412000
     29 HN2         1.6990    0.0270   -0.1260 hn        1 GL7      0.342500
     30 H91        -0.4260   -0.2210    4.5610 h1        1 GL7      0.058033
     31 H92         0.5120    1.0640    4.5690 h1        1 GL7      0.058033
     32 H93         1.1500   -0.3830    4.5650 h1        1 GL7      0.058033
@<TRIPOS>BOND
     1    1    2 1   
     2    1   11 1   
     3    1   12 1   
     4    1   16 1   
     5    2    3 1   
     6    2    4 1   
     7    2   19 1   
     8    3   20 1   
     9    4    5 1   
    10    4    6 1   
    11    4   21 1   
    12    5   22 1   
    13    6    7 1   
    14    6    8 1   
    15    6   23 1   
    16    7   24 1   
    17    8    9 1   
    18    8   11 1   
    19    8   25 1   
    20    9   10 1   
    21    9   26 1   
    22    9   27 1   
    23   10   28 1   
    24   12   13 1   
    25   12   29 1   
    26   13   14 2   
    27   13   15 1   
    28   15   16 1   
    29   15   18 1   
    30   16   17 2   
    31   18   30 1   
    32   18   31 1   
    33   18   32 1   
@<TRIPOS>SUBSTRUCTURE
     1 GL7         1 TEMP              0 ****  ****    0 ROOT
