@<TRIPOS>MOLECULE
GL8
   76    81     1     0     0
SMALL
bcc


@<TRIPOS>ATOM
      1 C1         -6.1220   -1.7440   -1.3290 c2        1 GL8     -0.175200
      2 C2         -7.2150   -2.3800   -1.7500 c2        1 GL8     -0.150200
      3 C3         -8.3930   -2.7040   -0.8910 c3        1 GL8      0.171300
      4 C4         -8.1090   -2.5630    0.5990 c3        1 GL8     -0.083400
      5 C5         -7.1400   -1.4720    0.9910 c3        1 GL8      0.148100
      6 C6         -5.9110   -1.2230    0.0530 c3        1 GL8      0.008500
      7 C7         -7.3330    2.1630    0.5970 ca        1 GL8      0.219100
      8 C8         -6.3450    3.0300    0.0810 ca        1 GL8     -0.205000
      9 C9         -5.1400    2.5390   -0.3970 ca        1 GL8     -0.032000
     10 C10        -3.5420    0.7380   -0.8050 ce        1 GL8      0.438800
     11 C11        -3.4170   -1.7120   -0.2220 c3        1 GL8     -0.004700
     12 C12        -4.6350   -1.7570    0.6840 c3        1 GL8     -0.084400
     13 C13        -7.0550    0.7800    0.5720 ca        1 GL8      0.086100
     14 C14        -5.8630    0.2850    0.0250 ca        1 GL8     -0.063300
     15 C15        -4.8520    1.1490   -0.4070 ca        1 GL8     -0.252900
     16 C16        -8.8210    3.9450    1.1190 c3        1 GL8      0.100700
     17 C18        -0.4920   -0.2020   -0.1780 c3        1 GL8     -0.100400
     18 C19         0.8890   -0.3130   -0.7930 c3        1 GL8     -0.081400
     19 C20         1.9590   -0.0040    0.2330 c3        1 GL8     -0.079400
     20 C21         3.3410   -0.1090   -0.3770 c3        1 GL8     -0.079400
     21 C22         4.4110    0.2020    0.6480 c3        1 GL8     -0.076400
     22 C23         5.7910    0.1020    0.0350 c3        1 GL8     -0.103400
     23 C24         6.8490    0.4240    1.0930 c3        1 GL8      0.107000
     24 C25         8.8950    1.4550    0.0230 c         1 GL8      0.724100
     25 C26        10.2610    0.9520   -0.3270 ca        1 GL8     -0.141600
     26 C27        11.3360    1.5860   -0.9100 ca        1 GL8     -0.060000
     27 C28        12.5110    0.8340   -1.1110 ca        1 GL8     -0.114500
     28 C29        12.5840   -0.5000   -0.7340 ca        1 GL8     -0.114500
     29 C30        11.4860   -1.1510   -0.1360 ca        1 GL8     -0.060000
     30 C31        10.3360   -0.4180    0.0600 ca        1 GL8     -0.141600
     31 C32         9.0190   -0.8000    0.6600 c         1 GL8      0.724100
     32 O1         -7.8800   -0.2050    1.0750 os        1 GL8     -0.266900
     33 O2         -8.5240    2.5440    1.1270 os        1 GL8     -0.271900
     34 O3         -9.4900   -1.8490   -1.1870 oh        1 GL8     -0.575800
     35 O25         8.4180    2.5790   -0.1500 o         1 GL8     -0.573000
     36 O32         8.6640   -1.8900    1.1150 o         1 GL8     -0.573000
     37 N1         -2.9340   -0.4340   -0.7370 nh        1 GL8     -0.141100
     38 N2          8.2030    0.3660    0.6260 n         1 GL8     -0.528400
     39 H1         -5.3050   -1.5260   -2.0380 ha        1 GL8      0.119000
     40 H2         -7.3060   -2.7010   -2.8030 ha        1 GL8      0.141000
     41 H3         -8.7010   -3.7750   -1.0940 h1        1 GL8      0.056700
     42 H4C1       -9.0850   -2.3660    1.1250 hc        1 GL8      0.086700
     43 H4C2       -7.6970   -3.5380    0.9720 hc        1 GL8      0.086700
     44 H5         -6.7740   -1.6620    2.0410 h1        1 GL8      0.072700
     45 H8         -6.5290    4.1160    0.0680 ha        1 GL8      0.169000
     46 H9         -4.3830    3.2520   -0.7640 ha        1 GL8      0.150000
     47 H10        -2.9130    1.5660   -1.2310 h4        1 GL8      0.047800
     48 H111       -3.6000   -2.3720   -1.1240 h1        1 GL8      0.091700
     49 H112       -2.5550   -2.1580    0.3650 h1        1 GL8      0.091700
     50 H121       -4.7860   -2.8400    0.9510 hc        1 GL8      0.083700
     51 H122       -4.4320   -1.1990    1.6360 hc        1 GL8      0.083700
     52 H161       -8.0800    4.5020    1.7400 h1        1 GL8      0.066700
     53 H162       -8.8460    4.3320    0.0730 h1        1 GL8      0.066700
     54 H163       -9.8410    3.9810    1.5840 h1        1 GL8      0.066700
     55 H171       -1.3830   -1.5590   -1.6350 h1        1 GL8      0.088700
     56 H172       -1.4300    0.1980   -2.1040 h1        1 GL8      0.088700
     57 H181       -0.6430    0.8340    0.2250 hc        1 GL8      0.060200
     58 H182       -0.5790   -0.9160    0.6820 hc        1 GL8      0.060200
     59 H191        1.0430   -1.3490   -1.1970 hc        1 GL8      0.051700
     60 H192        0.9800    0.3990   -1.6560 hc        1 GL8      0.051700
     61 H201        1.8040    1.0290    0.6410 hc        1 GL8      0.046700
     62 H202        1.8730   -0.7180    1.0950 hc        1 GL8      0.046700
     63 H211        3.4970   -1.1430   -0.7830 hc        1 GL8      0.046200
     64 H212        3.4280    0.6040   -1.2390 hc        1 GL8      0.046200
     65 H221        4.2530    1.2350    1.0560 hc        1 GL8      0.044700
     66 H222        4.3270   -0.5130    1.5090 hc        1 GL8      0.044700
     67 H231        5.9540   -0.9320   -0.3680 hc        1 GL8      0.054700
     68 H232        5.8780    0.8180   -0.8240 hc        1 GL8      0.054700
     69 H241        6.6650    1.4670    1.4840 h1        1 GL8      0.066700
     70 H242        6.7480   -0.3100    1.9440 h1        1 GL8      0.066700
     71 H28        13.3830    1.3220   -1.5760 ha        1 GL8      0.148000
     72 H29        13.5140   -1.0670   -0.9000 ha        1 GL8      0.148000
     73 H30        11.5510   -2.2080    0.1630 ha        1 GL8      0.160500
     74 HA         -9.7140   -1.9860   -2.1160 ho        1 GL8      0.408000
     75 C17        -1.5460   -0.5150   -1.2380 c3        1 GL8     -0.019700
     76 H27        11.2840    2.6440   -1.2090 ha        1 GL8      0.160500
@<TRIPOS>BOND
     1    1    2 2   
     2    1    6 1   
     3    1   39 1   
     4    2    3 1   
     5    2   40 1   
     6    3    4 1   
     7    3   34 1   
     8    3   41 1   
     9    4    5 1   
    10    4   42 1   
    11    4   43 1   
    12    5    6 1   
    13    5   32 1   
    14    5   44 1   
    15    6   12 1   
    16    6   14 1   
    17    7    8 ar  
    18    7   13 ar  
    19    7   33 1   
    20    8    9 ar  
    21    8   45 1   
    22    9   15 ar  
    23    9   46 1   
    24   10   15 1   
    25   10   37 2   
    26   10   47 1   
    27   11   12 1   
    28   11   37 1   
    29   11   48 1   
    30   11   49 1   
    31   12   50 1   
    32   12   51 1   
    33   13   14 ar  
    34   13   32 1   
    35   14   15 ar  
    36   16   33 1   
    37   16   52 1   
    38   16   53 1   
    39   16   54 1   
    40   17   18 1   
    41   17   57 1   
    42   17   58 1   
    43   17   75 1   
    44   18   19 1   
    45   18   59 1   
    46   18   60 1   
    47   19   20 1   
    48   19   61 1   
    49   19   62 1   
    50   20   21 1   
    51   20   63 1   
    52   20   64 1   
    53   21   22 1   
    54   21   65 1   
    55   21   66 1   
    56   22   23 1   
    57   22   67 1   
    58   22   68 1   
    59   23   38 1   
    60   23   69 1   
    61   23   70 1   
    62   24   25 1   
    63   24   35 2   
    64   24   38 1   
    65   25   26 ar  
    66   25   30 ar  
    67   26   27 ar  
    68   26   76 1   
    69   27   28 ar  
    70   27   71 1   
    71   28   29 ar  
    72   28   72 1   
    73   29   30 ar  
    74   29   73 1   
    75   30   31 1   
    76   31   36 2   
    77   31   38 1   
    78   34   74 1   
    79   37   75 1   
    80   55   75 1   
    81   56   75 1   
@<TRIPOS>SUBSTRUCTURE
     1 GL8         1 TEMP              0 ****  ****    0 ROOT
