@<TRIPOS>MOLECULE
GL9
   36    37     1     0     0
SMALL
bcc


@<TRIPOS>ATOM
      1 C1          0.5990    0.1920   -0.6480 c3        1 GL9      0.218200
      2 C2          0.1670    1.4040   -1.4550 c3        1 GL9      0.119100
      3 O2          0.6570    2.6120   -0.8010 oh        1 GL9     -0.577800
      4 C3         -1.3090    1.4910   -1.5930 c3        1 GL9      0.048100
      5 O3         -1.6300    2.5530   -2.5080 oh        1 GL9     -0.589800
      6 C4         -1.9080    0.2090   -2.1020 c3        1 GL9      0.095100
      7 O4         -3.3470    0.3100   -2.0470 oh        1 GL9     -0.584800
      8 C5         -1.4670   -0.9930   -1.2930 c3        1 GL9      0.100100
      9 C6         -1.9610   -2.2370   -1.9640 c3        1 GL9      0.141400
     10 O6         -1.5080   -3.3880   -1.2290 oh        1 GL9     -0.586800
     11 O5         -0.0030   -1.0730   -1.1510 os        1 GL9     -0.435600
     12 N2          2.0040    0.0830   -0.6870 n         1 GL9     -0.485900
     13 C8          2.4850    0.1200    0.6460 c         1 GL9      0.772500
     14 O8          3.6580    0.1140    0.9860 o         1 GL9     -0.588500
     15 N1          1.3730    0.2640    1.5090 n         1 GL9     -0.377000
     16 C7          0.2150    0.3800    0.7090 c         1 GL9      0.710500
     17 O7         -0.9150    0.6620    1.1070 o         1 GL9     -0.540500
     18 N3          1.4300    0.4170    2.8840 n         1 GL9     -0.356500
     19 C9          1.8930   -0.6250    3.6790 c         1 GL9      0.627100
     20 O9          2.2680   -1.6560    3.1650 o         1 GL9     -0.555100
     21 C10         2.0970   -0.4050    5.1700 c3        1 GL9     -0.173100
     22 H2          0.5700    1.3460   -2.3610 h1        1 GL9      0.062700
     23 HO2         1.0890    3.1620   -1.4370 ho        1 GL9      0.427000
     24 H3         -1.7040    1.6990   -0.7020 h1        1 GL9      0.130700
     25 HO3        -1.4300    2.3050   -3.3260 ho        1 GL9      0.406000
     26 H4         -1.6430    0.0850   -3.0000 h1        1 GL9      0.049700
     27 HO4        -3.6720    0.3800   -2.8760 ho        1 GL9      0.424000
     28 H5         -1.8730   -0.9360   -0.3870 h1        1 GL9      0.101700
     29 H61        -2.9690   -2.2300   -1.9870 h1        1 GL9      0.067200
     30 H62        -1.6090   -2.2750   -2.8880 h1        1 GL9      0.067200
     31 HO6        -1.7220   -4.1360   -1.6810 ho        1 GL9      0.412000
     32 HN2         2.5220    0.0040   -1.4500 hn        1 GL9      0.331500
     33 HN3         1.2370    1.2180    3.2570 hn        1 GL9      0.314500
     34 H101        2.3100   -1.2390    5.5890 hc        1 GL9      0.076033
     35 H102        1.2690   -0.0390    5.5650 hc        1 GL9      0.076033
     36 H103        2.8260    0.2210    5.3080 hc        1 GL9      0.076033
@<TRIPOS>BOND
     1    1    2 1   
     2    1   11 1   
     3    1   12 1   
     4    1   16 1   
     5    2    3 1   
     6    2    4 1   
     7    2   22 1   
     8    3   23 1   
     9    4    5 1   
    10    4    6 1   
    11    4   24 1   
    12    5   25 1   
    13    6    7 1   
    14    6    8 1   
    15    6   26 1   
    16    7   27 1   
    17    8    9 1   
    18    8   11 1   
    19    8   28 1   
    20    9   10 1   
    21    9   29 1   
    22    9   30 1   
    23   10   31 1   
    24   12   13 1   
    25   12   32 1   
    26   13   14 2   
    27   13   15 1   
    28   15   16 1   
    29   15   18 1   
    30   16   17 2   
    31   18   19 1   
    32   18   33 1   
    33   19   20 2   
    34   19   21 1   
    35   21   34 1   
    36   21   35 1   
    37   21   36 1   
@<TRIPOS>SUBSTRUCTURE
     1 GL9         1 TEMP              0 ****  ****    0 ROOT
