@<TRIPOS>MOLECULE
GL9
   36    37     1     0     0
SMALL
bcc


@<TRIPOS>ATOM
      1 C1         -0.0220   -0.7440   -0.3390 c3        1 GL9      0.226200
      2 C2          1.4200   -0.8360   -0.9030 c3        1 GL9      0.152100
      3 O2          2.3040   -0.7080    0.1920 oh        1 GL9     -0.573800
      4 C3          1.6690    0.2880   -1.9230 c3        1 GL9      0.100100
      5 O3          2.9490    0.0350   -2.4750 oh        1 GL9     -0.603800
      6 C4          0.5860    0.2530   -3.0120 c3        1 GL9      0.084100
      7 O4          0.8560    1.3600   -3.8550 oh        1 GL9     -0.591800
      8 C5         -0.7890    0.3770   -2.3440 c3        1 GL9      0.069100
      9 C6         -1.9310    0.2110   -3.3530 c3        1 GL9      0.136400
     10 O6         -3.1840    0.4560   -2.7560 oh        1 GL9     -0.585800
     11 O5         -0.9820   -0.6840   -1.4020 os        1 GL9     -0.441600
     12 N2         -0.3760   -1.9090    0.4860 n         1 GL9     -0.492900
     13 C8         -0.9560   -1.4710    1.7120 c         1 GL9      0.804500
     14 O8         -1.4500   -2.2110    2.5670 o         1 GL9     -0.556500
     15 N1         -0.8830   -0.0140    1.7920 n         1 GL9     -0.377000
     16 C7         -0.2110    0.4760    0.6290 c         1 GL9      0.676500
     17 O7          0.0750    1.6510    0.4070 o         1 GL9     -0.562500
     18 N3         -0.9960    0.6360    2.9720 n         1 GL9     -0.365500
     19 C9          0.1190    0.8790    3.8370 c         1 GL9      0.626100
     20 O9          1.2020    0.2980    3.7020 o         1 GL9     -0.536100
     21 C10        -0.1680    1.8130    4.9840 c3        1 GL9     -0.173100
     22 H2          1.5620   -1.8350   -1.4020 h1        1 GL9      0.072700
     23 HO2         3.1980   -0.6900   -0.1790 ho        1 GL9      0.433000
     24 H3          1.6600    1.2910   -1.4070 h1        1 GL9      0.092700
     25 HO3         3.1120    0.7380   -3.1190 ho        1 GL9      0.430000
     26 H4          0.6540   -0.7070   -3.5950 h1        1 GL9      0.061700
     27 HO4         0.2590    1.2950   -4.6100 ho        1 GL9      0.412000
     28 H5         -0.8730    1.3660   -1.8120 h1        1 GL9      0.095700
     29 H61        -1.8350    0.9900   -4.1560 h1        1 GL9      0.056200
     30 H62        -1.9010   -0.8170   -3.8010 h1        1 GL9      0.056200
     31 HO6        -3.2890   -0.1830   -2.0390 ho        1 GL9      0.415000
     32 HN2        -0.8250   -2.6680    0.0220 hn        1 GL9      0.328500
     33 HN3        -1.6120    1.4290    2.8680 hn        1 GL9      0.310500
     34 H101        0.7440    1.8740    5.6280 hc        1 GL9      0.074367
     35 H102       -0.4160    2.8340    4.6060 hc        1 GL9      0.074367
     36 H103       -1.0200    1.4300    5.5960 hc        1 GL9      0.074367
@<TRIPOS>BOND
     1    1    2 1   
     2    1   11 1   
     3    1   12 1   
     4    1   16 1   
     5    2    3 1   
     6    2    4 1   
     7    2   22 1   
     8    3   23 1   
     9    4    5 1   
    10    4    6 1   
    11    4   24 1   
    12    5   25 1   
    13    6    7 1   
    14    6    8 1   
    15    6   26 1   
    16    7   27 1   
    17    8    9 1   
    18    8   11 1   
    19    8   28 1   
    20    9   10 1   
    21    9   29 1   
    22    9   30 1   
    23   10   31 1   
    24   12   13 1   
    25   12   32 1   
    26   13   14 2   
    27   13   15 1   
    28   15   16 1   
    29   15   18 1   
    30   16   17 2   
    31   18   19 1   
    32   18   33 1   
    33   19   20 2   
    34   19   21 1   
    35   21   34 1   
    36   21   35 1   
    37   21   36 1   
@<TRIPOS>SUBSTRUCTURE
     1 GL9         1 TEMP              0 ****  ****    0 ROOT
