@<TRIPOS>MOLECULE
GLA
   24    24     1     0     0
SMALL
bcc


@<TRIPOS>ATOM
      1 C1          1.3870   -0.6390   -0.2610 c3        1 GLA      0.309900
      2 C2          0.3900   -0.6090   -1.4300 c3        1 GLA      0.095100
      3 C3         -0.5970    0.5550   -1.2610 c3        1 GLA      0.076100
      4 C4         -1.2580    0.4910    0.1260 c3        1 GLA      0.127100
      5 C5         -0.1700    0.4590    1.2060 c3        1 GLA      0.106100
      6 C6         -0.7720    0.2090    2.5920 c3        1 GLA      0.141400
      7 O1          2.2010    0.5090   -0.3610 oh        1 GLA     -0.641800
      8 O2          1.0520   -0.5210   -2.6720 oh        1 GLA     -0.593800
      9 O3         -1.6430    0.4750   -2.2140 oh        1 GLA     -0.606800
     10 O4         -2.0660   -0.6650    0.2600 oh        1 GLA     -0.594800
     11 O5          0.7810   -0.5940    1.0110 os        1 GLA     -0.444600
     12 O6          0.2160    0.2890    3.5950 oh        1 GLA     -0.598800
     13 H1          1.9950   -1.5880   -0.2600 h2        1 GLA      0.086700
     14 H2         -0.1740   -1.5850   -1.4600 h1        1 GLA      0.108700
     15 H3         -0.0520    1.5330   -1.3800 h1        1 GLA      0.061700
     16 H4         -1.8970    1.4070    0.2710 h1        1 GLA      0.058700
     17 H5          0.3860    1.4380    1.1810 h1        1 GLA      0.064700
     18 H61        -1.2800   -0.7920    2.6070 h1        1 GLA      0.066200
     19 H62        -1.5070    1.0210    2.8320 h1        1 GLA      0.066200
     20 HO1         2.8040    0.5070    0.3930 ho        1 GLA      0.429000
     21 HO2         1.6620    0.2280   -2.6240 ho        1 GLA      0.421000
     22 HO3        -1.2320    0.2630   -3.0630 ho        1 GLA      0.426000
     23 HO4        -2.6520   -0.6810   -0.5100 ho        1 GLA      0.424000
     24 HO6         0.8500   -0.4200    3.4240 ho        1 GLA      0.411000
@<TRIPOS>BOND
     1    1    2 1   
     2    1    7 1   
     3    1   11 1   
     4    1   13 1   
     5    2    3 1   
     6    2    8 1   
     7    2   14 1   
     8    3    4 1   
     9    3    9 1   
    10    3   15 1   
    11    4    5 1   
    12    4   10 1   
    13    4   16 1   
    14    5    6 1   
    15    5   11 1   
    16    5   17 1   
    17    6   12 1   
    18    6   18 1   
    19    6   19 1   
    20    7   20 1   
    21    8   21 1   
    22    9   22 1   
    23   10   23 1   
    24   12   24 1   
@<TRIPOS>SUBSTRUCTURE
     1 GLA         1 TEMP              0 ****  ****    0 ROOT
