@<TRIPOS>MOLECULE
GLA
   24    24     1     0     0
SMALL
bcc


@<TRIPOS>ATOM
      1 C1         -0.8760   -0.7410   -1.0070 c3        1 GLA      0.316900
      2 C2          0.6490   -0.5970   -1.2160 c3        1 GLA      0.055100
      3 C3          1.4610   -0.9010    0.0710 c3        1 GLA      0.114100
      4 C4          0.8510    0.2460    0.9400 c3        1 GLA      0.123100
      5 C5         -0.6560    0.1010    1.1330 c3        1 GLA      0.111100
      6 C6         -1.3260    1.5190    1.0270 c3        1 GLA      0.120400
      7 O1         -1.3170   -2.0430   -1.5570 oh        1 GLA     -0.594800
      8 O2          1.0490   -1.4720   -2.2160 oh        1 GLA     -0.606800
      9 O3          2.7350   -0.7450   -0.1120 oh        1 GLA     -0.608800
     10 O4          1.1100    1.4660    0.3190 oh        1 GLA     -0.604800
     11 O5         -1.1770   -0.6880    0.2200 os        1 GLA     -0.457600
     12 O6         -2.6570    1.4460    1.4890 oh        1 GLA     -0.597800
     13 H1         -1.3350   -0.0200   -1.4820 h2        1 GLA      0.089700
     14 H2          0.8420    0.3180   -1.5010 h1        1 GLA      0.064700
     15 H3          1.2460   -1.7840    0.4350 h1        1 GLA      0.072700
     16 H4          1.2830    0.2410    1.8180 h1        1 GLA      0.064700
     17 H5         -0.8320   -0.2730    2.0190 h1        1 GLA      0.091700
     18 H61        -1.3200    1.8140    0.0940 h1        1 GLA      0.062200
     19 H62        -0.8240    2.1590    1.5750 h1        1 GLA      0.062200
     20 HO1        -2.1050   -1.9440   -1.9560 ho        1 GLA      0.431000
     21 HO2         1.2900   -1.0090   -2.9370 ho        1 GLA      0.424000
     22 HO3         3.1830   -1.2860    0.4370 ho        1 GLA      0.427000
     23 HO4         1.7020    1.9230    0.8000 ho        1 GLA      0.427000
     24 HO6        -2.9760    2.2680    1.6060 ho        1 GLA      0.411000
@<TRIPOS>BOND
     1    1    2 1   
     2    1    7 1   
     3    1   11 1   
     4    1   13 1   
     5    2    3 1   
     6    2    8 1   
     7    2   14 1   
     8    3    4 1   
     9    3    9 1   
    10    3   15 1   
    11    4    5 1   
    12    4   10 1   
    13    4   16 1   
    14    5    6 1   
    15    5   11 1   
    16    5   17 1   
    17    6   12 1   
    18    6   18 1   
    19    6   19 1   
    20    7   20 1   
    21    8   21 1   
    22    9   22 1   
    23   10   23 1   
    24   12   24 1   
@<TRIPOS>SUBSTRUCTURE
     1 GLA         1 TEMP              0 ****  ****    0 ROOT
