@<TRIPOS>MOLECULE
GLB
   24    24     1     0     0
SMALL
bcc


@<TRIPOS>ATOM
      1 C1          1.4170    0.3290   -0.3630 c3        1 GLB      0.315900
      2 C2          0.3940   -0.0740   -1.4440 c3        1 GLB      0.050100
      3 C3         -0.9580    0.5870   -1.1480 c3        1 GLB      0.113100
      4 C4         -1.4100    0.2230    0.2780 c3        1 GLB      0.121100
      5 C5         -0.3000    0.5710    1.2800 c3        1 GLB      0.113100
      6 C6         -0.6280    0.0360    2.6780 c3        1 GLB      0.142400
      7 O1          2.6020   -0.4100   -0.4820 oh        1 GLB     -0.596800
      8 O2          0.8060    0.3820   -2.7200 oh        1 GLB     -0.603800
      9 O3         -1.9620    0.1040   -2.0230 oh        1 GLB     -0.607800
     10 O4         -1.6960   -1.1600    0.3920 oh        1 GLB     -0.594800
     11 O5          0.9570   -0.0150    0.9350 os        1 GLB     -0.450600
     12 O6          0.2940    0.5170    3.6310 oh        1 GLB     -0.597800
     13 H1          1.6970    1.4160   -0.4380 h2        1 GLB      0.084700
     14 H2          0.2730   -1.1940   -1.4560 h1        1 GLB      0.070700
     15 H3         -0.8690    1.7030   -1.2550 h1        1 GLB      0.059700
     16 H4         -2.3350    0.8140    0.5290 h1        1 GLB      0.060700
     17 H5         -0.1770    1.6910    1.3050 h1        1 GLB      0.058700
     18 H61        -0.6390   -1.0860    2.6580 h1        1 GLB      0.067200
     19 H62        -1.6270    0.4270    3.0050 h1        1 GLB      0.067200
     20 HO1         2.4600   -1.2760   -0.0730 ho        1 GLB      0.430000
     21 HO2         1.7140    0.0740   -2.8430 ho        1 GLB      0.425000
     22 HO3        -1.6170    0.2000   -2.9210 ho        1 GLB      0.431000
     23 HO4        -2.2930   -1.3800   -0.3380 ho        1 GLB      0.426000
     24 HO6         1.1660    0.1910    3.3720 ho        1 GLB      0.413000
@<TRIPOS>BOND
     1    1    2 1   
     2    1    7 1   
     3    1   11 1   
     4    1   13 1   
     5    2    3 1   
     6    2    8 1   
     7    2   14 1   
     8    3    4 1   
     9    3    9 1   
    10    3   15 1   
    11    4    5 1   
    12    4   10 1   
    13    4   16 1   
    14    5    6 1   
    15    5   11 1   
    16    5   17 1   
    17    6   12 1   
    18    6   18 1   
    19    6   19 1   
    20    7   20 1   
    21    8   21 1   
    22    9   22 1   
    23   10   23 1   
    24   12   24 1   
@<TRIPOS>SUBSTRUCTURE
     1 GLB         1 TEMP              0 ****  ****    0 ROOT
