@<TRIPOS>MOLECULE
GLB
   24    24     1     0     0
SMALL
bcc


@<TRIPOS>ATOM
      1 C1         -0.7940   -0.7940   -1.3420 c3        1 GLB      0.315900
      2 C2          0.7190   -0.7940   -1.3420 c3        1 GLB      0.050100
      3 C3          1.2820   -0.7940    0.0300 c3        1 GLB      0.113100
      4 C4          0.7060    0.2910    0.8770 c3        1 GLB      0.121100
      5 C5         -0.8130    0.2880    0.8650 c3        1 GLB      0.113100
      6 C6         -1.3040    1.5040    1.5830 c3        1 GLB      0.142400
      7 O1         -1.2410   -0.6230   -2.6370 oh        1 GLB     -0.596800
      8 O2          1.1850   -1.9680   -2.0370 oh        1 GLB     -0.603800
      9 O3          2.7200   -0.6110   -0.0530 oh        1 GLB     -0.607800
     10 O4          1.1700    1.5560    0.3880 oh        1 GLB     -0.594800
     11 O5         -1.3630    0.2830   -0.4900 os        1 GLB     -0.450600
     12 O6         -2.7020    1.4190    1.7490 oh        1 GLB     -0.597800
     13 H1         -1.1090   -1.6570   -1.0110 h2        1 GLB      0.084700
     14 H2          1.0350   -0.0010   -1.8140 h1        1 GLB      0.070700
     15 H3          1.0960   -1.6560    0.4490 h1        1 GLB      0.059700
     16 H4          1.0160    0.1730    1.7950 h1        1 GLB      0.060700
     17 H5         -1.1300   -0.5060    1.3370 h1        1 GLB      0.058700
     18 H61        -1.0870    2.3000    1.0610 h1        1 GLB      0.067200
     19 H62        -0.8750    1.5620    2.4580 h1        1 GLB      0.067200
     20 HO1        -2.0670   -0.9400   -2.7100 ho        1 GLB      0.430000
     21 HO2         1.6180   -1.7250   -2.7720 ho        1 GLB      0.425000
     22 HO3         3.1280   -1.2590    0.3960 ho        1 GLB      0.431000
     23 HO4         1.7870    1.8780    0.9400 ho        1 GLB      0.426000
     24 HO6        -2.9780    2.0760    2.2800 ho        1 GLB      0.413000
@<TRIPOS>BOND
     1    1    2 1   
     2    1    7 1   
     3    1   11 1   
     4    1   13 1   
     5    2    3 1   
     6    2    8 1   
     7    2   14 1   
     8    3    4 1   
     9    3    9 1   
    10    3   15 1   
    11    4    5 1   
    12    4   10 1   
    13    4   16 1   
    14    5    6 1   
    15    5   11 1   
    16    5   17 1   
    17    6   12 1   
    18    6   18 1   
    19    6   19 1   
    20    7   20 1   
    21    8   21 1   
    22    9   22 1   
    23   10   23 1   
    24   12   24 1   
@<TRIPOS>SUBSTRUCTURE
     1 GLB         1 TEMP              0 ****  ****    0 ROOT
