@<TRIPOS>MOLECULE
GLC
   24    24     1     0     0
SMALL
bcc


@<TRIPOS>ATOM
      1 C1         -0.8090   -0.6590   -1.4810 c3        1 GLC      0.305900
      2 C2          0.7040   -0.6860   -1.4800 c3        1 GLC      0.095100
      3 C3          1.2680   -0.6860   -0.1040 c3        1 GLC      0.074100
      4 C4          0.7150    0.4100    0.7300 c3        1 GLC      0.125100
      5 C5         -0.7970    0.4340    0.7190 c3        1 GLC      0.140100
      6 C6         -1.2630    1.6580    1.4230 c3        1 GLC      0.135400
      7 O1         -1.2810   -1.8700   -1.0010 oh        1 GLC     -0.640800
      8 O2          1.1460   -1.8650   -2.1600 oh        1 GLC     -0.593800
      9 O3          2.7200   -0.5330   -0.1870 oh        1 GLC     -0.607800
     10 O4          1.1680    0.2350    2.0870 oh        1 GLC     -0.595800
     11 O5         -1.3530    0.4270   -0.6470 os        1 GLC     -0.438600
     12 O6         -2.6530    1.7670    1.2980 oh        1 GLC     -0.599800
     13 H1         -1.1230   -0.5380   -2.4050 h2        1 GLC      0.085700
     14 H2          1.0330    0.0930   -1.9550 h1        1 GLC      0.098700
     15 H3          1.0640   -1.5330    0.3180 h1        1 GLC      0.065700
     16 H4          1.0460    1.2620    0.3940 h1        1 GLC      0.057700
     17 H5         -1.1250   -0.3450    1.1950 h1        1 GLC      0.085700
     18 H61        -0.8350    2.4510    1.0240 h1        1 GLC      0.047200
     19 H62        -1.0230    1.6000    2.3750 h1        1 GLC      0.047200
     20 HO1        -2.0460   -2.0800   -1.4180 ho        1 GLC      0.434000
     21 HO2         1.5840   -1.6340   -2.9010 ho        1 GLC      0.424000
     22 HO3         3.1030   -1.2560    0.0890 ho        1 GLC      0.424000
     23 HO4         1.6910    0.9120    2.3130 ho        1 GLC      0.426000
     24 HO6        -2.9340    2.4380    1.7720 ho        1 GLC      0.403000
@<TRIPOS>BOND
     1    1    2 1   
     2    1    7 1   
     3    1   11 1   
     4    1   13 1   
     5    2    3 1   
     6    2    8 1   
     7    2   14 1   
     8    3    4 1   
     9    3    9 1   
    10    3   15 1   
    11    4    5 1   
    12    4   10 1   
    13    4   16 1   
    14    5    6 1   
    15    5   11 1   
    16    5   17 1   
    17    6   12 1   
    18    6   18 1   
    19    6   19 1   
    20    7   20 1   
    21    8   21 1   
    22    9   22 1   
    23   10   23 1   
    24   12   24 1   
@<TRIPOS>SUBSTRUCTURE
     1 GLC         1 TEMP              0 ****  ****    0 ROOT
