@<TRIPOS>MOLECULE
GLC
   24    24     1     0     0
SMALL
bcc


@<TRIPOS>ATOM
      1 C1         -0.3950    1.5500   -0.4450 c3        1 GLC      0.307900
      2 C2         -1.5060    0.5110   -0.6760 c3        1 GLC      0.096100
      3 C3         -1.2250   -0.7690    0.1220 c3        1 GLC      0.073100
      4 C4          0.2040   -1.2610   -0.1600 c3        1 GLC      0.129100
      5 C5          1.1950   -0.1400    0.1830 c3        1 GLC      0.101100
      6 C6          2.6260   -0.5410   -0.1850 c3        1 GLC      0.140400
      7 O1         -0.5080    2.0090    0.8820 oh        1 GLC     -0.636800
      8 O2         -2.7740    1.0330   -0.3400 oh        1 GLC     -0.591800
      9 O3         -2.0990   -1.8150   -0.2670 oh        1 GLC     -0.605800
     10 O4          0.5260   -2.3690    0.6610 oh        1 GLC     -0.594800
     11 O5          0.9100    1.0340   -0.5880 os        1 GLC     -0.455600
     12 O6          3.5530    0.4440    0.2170 oh        1 GLC     -0.593800
     13 H1         -0.4570    2.3930   -1.1900 h2        1 GLC      0.085700
     14 H2         -1.5730    0.2750   -1.7760 h1        1 GLC      0.100700
     15 H3         -1.3500   -0.5660    1.2230 h1        1 GLC      0.066700
     16 H4          0.2950   -1.5520   -1.2430 h1        1 GLC      0.058700
     17 H5          1.1250    0.1160    1.2760 h1        1 GLC      0.078700
     18 H61         2.9020   -1.4680    0.3860 h1        1 GLC      0.064700
     19 H62         2.7010   -0.7250   -1.2890 h1        1 GLC      0.064700
     20 HO1         0.2130    2.6310    1.0400 ho        1 GLC      0.430000
     21 HO2        -2.7150    1.3830    0.5610 ho        1 GLC      0.423000
     22 HO3        -2.9930   -1.4470   -0.2570 ho        1 GLC      0.424000
     23 HO4        -0.1810   -3.0170    0.5350 ho        1 GLC      0.426000
     24 HO6         3.3250    1.2550   -0.2540 ho        1 GLC      0.407000
@<TRIPOS>BOND
     1    1    2 1   
     2    1    7 1   
     3    1   11 1   
     4    1   13 1   
     5    2    3 1   
     6    2    8 1   
     7    2   14 1   
     8    3    4 1   
     9    3    9 1   
    10    3   15 1   
    11    4    5 1   
    12    4   10 1   
    13    4   16 1   
    14    5    6 1   
    15    5   11 1   
    16    5   17 1   
    17    6   12 1   
    18    6   18 1   
    19    6   19 1   
    20    7   20 1   
    21    8   21 1   
    22    9   22 1   
    23   10   23 1   
    24   12   24 1   
@<TRIPOS>SUBSTRUCTURE
     1 GLC         1 TEMP              0 ****  ****    0 ROOT
