@<TRIPOS>MOLECULE
GLD
   22    22     1     0     0
SMALL
bcc


@<TRIPOS>ATOM
      1 C1         -0.8640   -0.5190   -1.2870 c3        1 GLD      0.334900
      2 C2          0.6460   -0.5190   -1.2870 c3        1 GLD      0.139100
      3 C3          1.2100   -0.5190    0.0860 c3        1 GLD      0.101100
      4 C4          0.6360    0.5610    0.9300 c3        1 GLD     -0.140400
      5 C5         -0.8790    0.5590    0.9180 c3        1 GLD      0.148100
      6 C6         -1.3700    1.7770    1.6370 c3        1 GLD     -0.092100
      7 O1         -1.3120   -1.7440   -0.8200 oh        1 GLD     -0.609800
      8 O2          1.1120   -1.6940   -1.9820 oh        1 GLD     -0.584800
      9 O3          2.6500   -0.3360    0.0030 oh        1 GLD     -0.608800
     10 O5         -1.4300    0.5540   -0.4390 os        1 GLD     -0.453600
     11 H1         -1.1790   -0.3970   -2.2030 h2        1 GLD      0.083700
     12 H2          0.9630    0.2740   -1.7590 h1        1 GLD      0.059700
     13 H3          1.0240   -1.3810    0.5050 h1        1 GLD      0.067700
     14 H41         0.9450    0.4430    1.8480 hc        1 GLD      0.058700
     15 H42         0.9520    1.4230    0.5980 hc        1 GLD      0.058700
     16 H5         -1.1960   -0.2350    1.3900 h1        1 GLD      0.052700
     17 H61        -1.0130    1.7850    2.5450 hc        1 GLD      0.046700
     18 H62        -1.0730    2.5760    1.1630 hc        1 GLD      0.046700
     19 H63        -2.3460    1.7630    1.6710 hc        1 GLD      0.046700
     20 HO1        -1.9970   -2.0170   -1.3140 ho        1 GLD      0.414000
     21 HO2         1.4660   -1.4570   -2.7610 ho        1 GLD      0.422000
     22 HO3         3.0530   -0.8980    0.5590 ho        1 GLD      0.409000
@<TRIPOS>BOND
     1    1    2 1   
     2    1    7 1   
     3    1   10 1   
     4    1   11 1   
     5    2    3 1   
     6    2    8 1   
     7    2   12 1   
     8    3    4 1   
     9    3    9 1   
    10    3   13 1   
    11    4    5 1   
    12    4   14 1   
    13    4   15 1   
    14    5    6 1   
    15    5   10 1   
    16    5   16 1   
    17    6   17 1   
    18    6   18 1   
    19    6   19 1   
    20    7   20 1   
    21    8   21 1   
    22    9   22 1   
@<TRIPOS>SUBSTRUCTURE
     1 GLD         1 TEMP              0 ****  ****    0 ROOT
