@<TRIPOS>MOLECULE
GLD
   22    22     1     0     0
SMALL
bcc


@<TRIPOS>ATOM
      1 C1          1.3330   -0.5380   -0.0450 c3        1 GLD      0.306900
      2 C2          0.2410   -0.6210   -1.1250 c3        1 GLD      0.090100
      3 C3         -0.9190    0.3360   -0.8010 c3        1 GLD      0.117100
      4 C4         -1.3900    0.1080    0.6290 c3        1 GLD     -0.106400
      5 C5         -0.2210    0.2950    1.5860 c3        1 GLD      0.141100
      6 C6         -0.6190   -0.0080    3.0170 c3        1 GLD     -0.092100
      7 O1          1.9710    0.7150   -0.1760 oh        1 GLD     -0.641800
      8 O2          0.7680   -0.3440   -2.4060 oh        1 GLD     -0.594800
      9 O3         -2.0210    0.0970   -1.6590 oh        1 GLD     -0.595800
     10 O5          0.8540   -0.6080    1.2780 os        1 GLD     -0.446600
     11 H1          2.0660   -1.3890   -0.1350 h2        1 GLD      0.081700
     12 H2         -0.1390   -1.6790   -1.1900 h1        1 GLD      0.098700
     13 H3         -0.5650    1.3980   -0.9340 h1        1 GLD      0.048700
     14 H41        -1.8100   -0.9250    0.7250 hc        1 GLD      0.068700
     15 H42        -2.2040    0.8350    0.8770 hc        1 GLD      0.068700
     16 H5          0.1770    1.3460    1.4990 h1        1 GLD      0.048700
     17 H61         0.2610    0.1130    3.6930 hc        1 GLD      0.047700
     18 H62        -1.4250    0.6960    3.3320 hc        1 GLD      0.047700
     19 H63        -0.9910   -1.0560    3.1050 hc        1 GLD      0.047700
     20 HO1         2.6270    0.7800    0.5290 ho        1 GLD      0.426000
     21 HO2         1.2300    0.5040   -2.3540 ho        1 GLD      0.421000
     22 HO3        -1.6650    0.0510   -2.5570 ho        1 GLD      0.415000
@<TRIPOS>BOND
     1    1    2 1   
     2    1    7 1   
     3    1   10 1   
     4    1   11 1   
     5    2    3 1   
     6    2    8 1   
     7    2   12 1   
     8    3    4 1   
     9    3    9 1   
    10    3   13 1   
    11    4    5 1   
    12    4   14 1   
    13    4   15 1   
    14    5    6 1   
    15    5   10 1   
    16    5   16 1   
    17    6   17 1   
    18    6   18 1   
    19    6   19 1   
    20    7   20 1   
    21    8   21 1   
    22    9   22 1   
@<TRIPOS>SUBSTRUCTURE
     1 GLD         1 TEMP              0 ****  ****    0 ROOT
