@<TRIPOS>MOLECULE
GLE
   57    56     1     0     0
SMALL
bcc


@<TRIPOS>ATOM
      1 C1          0.2460    0.4310   -0.4880 c3        1 GLE      0.123400
      2 O1         -0.8980   -0.3910   -0.6690 os        1 GLE     -0.430600
      3 C2          1.4630   -0.3730   -0.0060 c3        1 GLE      0.187100
      4 O2          1.2930   -0.7350    1.3270 os        1 GLE     -0.580200
      5 C3          2.7300    0.5050   -0.0960 c3        1 GLE      0.089400
      6 O3          2.6900    1.2220   -1.3410 os        1 GLE     -0.400600
      7 C31         3.7230    2.1550   -1.4890 c3        1 GLE      0.116400
      8 C32         4.9570    1.5300   -2.2250 c3        1 GLE      0.583900
      9 F31         5.9280    2.4690   -2.4960 f         1 GLE     -0.243967
     10 F32         5.6160    0.5530   -1.5280 f         1 GLE     -0.243967
     11 F33         4.6770    0.9760   -3.4460 f         1 GLE     -0.243967
     12 P2          1.6040   -2.3240    1.7290 p5        1 GLE      1.426800
     13 O21         0.2940   -2.9300    2.0350 o         1 GLE     -0.823500
     14 O22         2.6110   -2.8150    0.7730 o         1 GLE     -0.823500
     15 C2P         1.5440   -1.6340    4.2270 c3        1 GLE      0.182700
     16 O23         2.3550   -1.9930    3.1550 os        1 GLE     -0.569200
     17 C11        -1.7490   -0.4640    0.4750 c3        1 GLE      0.138400
     18 C12        -2.4310   -1.8210    0.4500 c3        1 GLE     -0.105400
     19 C13        -3.6920   -1.7980    1.2860 c3        1 GLE     -0.066400
     20 C14        -4.3280   -3.1700    1.3440 c3        1 GLE     -0.080400
     21 C15        -5.5930   -3.1570    2.1750 c3        1 GLE     -0.077400
     22 C16        -6.2260   -4.5310    2.2340 c3        1 GLE     -0.079400
     23 C17        -7.4910   -4.5200    3.0660 c3        1 GLE     -0.078400
     24 C18        -8.1230   -5.8940    3.1250 c3        1 GLE     -0.079400
     25 C19        -9.3880   -5.8850    3.9570 c3        1 GLE     -0.080400
     26 C20       -10.0210   -7.2510    4.0190 c3        1 GLE     -0.091100
     27 H11         0.0360    1.2710    0.2220 h1        1 GLE      0.040200
     28 H12         0.4540    0.8370   -1.5160 h1        1 GLE      0.040200
     29 H2          1.6000   -1.2890   -0.6500 h1        1 GLE      0.079700
     30 H31         2.7480    1.2350    0.7540 h1        1 GLE      0.053200
     31 H32         3.6490   -0.1370   -0.0750 h1        1 GLE      0.053200
     32 H311        4.0870    2.5710   -0.5160 h1        1 GLE      0.071700
     33 H312        3.3160    2.9620   -2.1540 h1        1 GLE      0.071700
     34 H2P1        1.7990   -0.5880    4.5500 h1        1 GLE      0.006700
     35 H2P2        1.7560   -2.3240    5.0890 h1        1 GLE      0.006700
     36 H2P3        0.4590   -1.6970    3.9510 h1        1 GLE      0.006700
     37 H111       -1.1670   -0.3350    1.4240 h1        1 GLE      0.029200
     38 H112       -2.5000    0.3700    0.3860 h1        1 GLE      0.029200
     39 H121       -2.6750   -2.0990   -0.6080 hc        1 GLE      0.078200
     40 H122       -1.7150   -2.5910    0.8540 hc        1 GLE      0.078200
     41 H131       -4.4230   -1.0610    0.8600 hc        1 GLE      0.027700
     42 H132       -3.4430   -1.4570    2.3250 hc        1 GLE      0.027700
     43 H141       -3.5950   -3.8990    1.7810 hc        1 GLE      0.046200
     44 H142       -4.5640   -3.5190    0.3040 hc        1 GLE      0.046200
     45 H151       -5.3550   -2.8080    3.2140 hc        1 GLE      0.033200
     46 H152       -6.3230   -2.4250    1.7400 hc        1 GLE      0.033200
     47 H161       -6.4630   -4.8810    1.1950 hc        1 GLE      0.040200
     48 H162       -5.4950   -5.2610    2.6700 hc        1 GLE      0.040200
     49 H171       -7.2530   -4.1710    4.1060 hc        1 GLE      0.035700
     50 H172       -8.2210   -3.7880    2.6310 hc        1 GLE      0.035700
     51 H181       -8.3600   -6.2440    2.0860 hc        1 GLE      0.039200
     52 H182       -7.3920   -6.6250    3.5610 hc        1 GLE      0.039200
     53 H191      -10.1160   -5.1520    3.5210 hc        1 GLE      0.036700
     54 H192       -9.1480   -5.5340    4.9960 hc        1 GLE      0.036700
     55 H201      -10.9500   -7.2230    4.6370 hc        1 GLE      0.029367
     56 H202      -10.2880   -7.6080    2.9950 hc        1 GLE      0.029367
     57 H203       -9.3180   -7.9910    4.4730 hc        1 GLE      0.029367
@<TRIPOS>BOND
     1    1    2 1   
     2    1    3 1   
     3    1   27 1   
     4    1   28 1   
     5    2   17 1   
     6    3    4 1   
     7    3    5 1   
     8    3   29 1   
     9    4   12 1   
    10    5    6 1   
    11    5   30 1   
    12    5   31 1   
    13    6    7 1   
    14    7    8 1   
    15    7   32 1   
    16    7   33 1   
    17    8    9 1   
    18    8   10 1   
    19    8   11 1   
    20   12   13 1   
    21   12   14 1   
    22   12   16 1   
    23   15   16 1   
    24   15   34 1   
    25   15   35 1   
    26   15   36 1   
    27   17   18 1   
    28   17   37 1   
    29   17   38 1   
    30   18   19 1   
    31   18   39 1   
    32   18   40 1   
    33   19   20 1   
    34   19   41 1   
    35   19   42 1   
    36   20   21 1   
    37   20   43 1   
    38   20   44 1   
    39   21   22 1   
    40   21   45 1   
    41   21   46 1   
    42   22   23 1   
    43   22   47 1   
    44   22   48 1   
    45   23   24 1   
    46   23   49 1   
    47   23   50 1   
    48   24   25 1   
    49   24   51 1   
    50   24   52 1   
    51   25   26 1   
    52   25   53 1   
    53   25   54 1   
    54   26   55 1   
    55   26   56 1   
    56   26   57 1   
@<TRIPOS>SUBSTRUCTURE
     1 GLE         1 TEMP              0 ****  ****    0 ROOT
