@<TRIPOS>MOLECULE
GLE
   57    56     1     0     0
SMALL
bcc


@<TRIPOS>ATOM
      1 C1          2.0480    2.8750    0.4490 c3        1 GLE      0.109400
      2 O1          1.4880    1.5630    0.5540 os        1 GLE     -0.432600
      3 C2          3.5660    2.7700    0.2940 c3        1 GLE      0.178100
      4 O2          4.1920    3.8450    0.9780 os        1 GLE     -0.587200
      5 C3          3.9280    2.8290   -1.1760 c3        1 GLE      0.104400
      6 O3          5.2790    2.4100   -1.3510 os        1 GLE     -0.411600
      7 C31         5.7310    2.4860   -2.6850 c3        1 GLE      0.089400
      8 C32         7.0470    1.7830   -2.8090 c3        1 GLE      0.584900
      9 F31         7.4020    1.7260   -4.1050 f         1 GLE     -0.257633
     10 F32         7.9720    2.4490   -2.1260 f         1 GLE     -0.257633
     11 F33         6.9380    0.5310   -2.3160 f         1 GLE     -0.257633
     12 P2          5.0630    3.5220    2.2470 p5        1 GLE      1.427800
     13 O21         4.1920    2.9190    3.3070 o         1 GLE     -0.825000
     14 O22         6.1600    2.5410    1.8740 o         1 GLE     -0.825000
     15 C2P         6.4600    4.8170    4.0050 c3        1 GLE      0.181700
     16 O23         5.7250    4.8750    2.8020 os        1 GLE     -0.568200
     17 C11         0.0510    1.5330    0.4680 c3        1 GLE      0.136400
     18 C12        -0.4380    0.1220    0.6780 c3        1 GLE     -0.085400
     19 C13        -1.9510    0.0350    0.3020 c3        1 GLE     -0.077400
     20 C14        -2.4800   -1.3940    0.6050 c3        1 GLE     -0.078400
     21 C15        -3.8850   -1.5820   -0.0550 c3        1 GLE     -0.079400
     22 C16        -4.4140   -3.0380    0.2380 c3        1 GLE     -0.079400
     23 C17        -5.6900   -3.3070   -0.6010 c3        1 GLE     -0.079400
     24 C18        -6.1160   -4.7740   -0.4240 c3        1 GLE     -0.079400
     25 C19        -7.3130   -5.0680   -1.3150 c3        1 GLE     -0.080400
     26 C20        -7.7120   -6.5190   -1.1610 c3        1 GLE     -0.092100
     27 H11         1.8360    3.3850    1.2550 h1        1 GLE      0.040700
     28 H12         1.6710    3.3290   -0.3310 h1        1 GLE      0.040700
     29 H2          3.8750    1.9180    0.6720 h1        1 GLE      0.074700
     30 H31         3.3360    2.2400   -1.6820 h1        1 GLE      0.061200
     31 H32         3.8240    3.7730   -1.5080 h1        1 GLE      0.061200
     32 H311        5.8380    3.4290   -2.9410 h1        1 GLE      0.125200
     33 H312        5.0870    2.0670   -3.2650 h1        1 GLE      0.125200
     34 H2P1        6.6840    5.7370    4.2990 h1        1 GLE      0.009700
     35 H2P2        7.2830    4.3130    3.8590 h1        1 GLE      0.009700
     36 H2P3        5.9200    4.3730    4.6970 h1        1 GLE      0.009700
     37 H111       -0.3300    2.1160    1.1550 h1        1 GLE      0.022200
     38 H112       -0.2260    1.8430   -0.4090 h1        1 GLE      0.022200
     39 H121       -0.3210   -0.1270    1.6160 hc        1 GLE      0.052200
     40 H122        0.0680   -0.4810    0.1190 hc        1 GLE      0.052200
     41 H131       -2.4560    0.6890    0.8280 hc        1 GLE      0.037700
     42 H132       -2.0630    0.2310   -0.6620 hc        1 GLE      0.037700
     43 H141       -1.8610   -2.0510    0.2440 hc        1 GLE      0.040200
     44 H142       -2.5560   -1.5140    1.5690 hc        1 GLE      0.040200
     45 H151       -4.5190   -0.9170    0.3210 hc        1 GLE      0.038200
     46 H152       -3.8130   -1.4530   -1.0060 hc        1 GLE      0.038200
     47 H161       -4.6260   -3.1210    1.1850 hc        1 GLE      0.039200
     48 H162       -3.7140   -3.7000   -0.0040 hc        1 GLE      0.039200
     49 H171       -5.5010   -3.1350   -1.5490 hc        1 GLE      0.038200
     50 H172       -6.4120   -2.7170   -0.2980 hc        1 GLE      0.038200
     51 H181       -6.3630   -4.9340    0.5210 hc        1 GLE      0.039200
     52 H182       -5.3690   -5.3660   -0.6720 hc        1 GLE      0.039200
     53 H191       -8.0710   -4.4860   -1.0530 hc        1 GLE      0.037700
     54 H192       -7.0720   -4.8910   -2.2600 hc        1 GLE      0.037700
     55 H201       -6.9970   -7.0950   -1.5150 hc        1 GLE      0.030700
     56 H202       -8.5370   -6.6820   -1.6560 hc        1 GLE      0.030700
     57 H203       -7.8550   -6.7220   -0.2080 hc        1 GLE      0.030700
@<TRIPOS>BOND
     1    1    2 1   
     2    1    3 1   
     3    1   27 1   
     4    1   28 1   
     5    2   17 1   
     6    3    4 1   
     7    3    5 1   
     8    3   29 1   
     9    4   12 1   
    10    5    6 1   
    11    5   30 1   
    12    5   31 1   
    13    6    7 1   
    14    7    8 1   
    15    7   32 1   
    16    7   33 1   
    17    8    9 1   
    18    8   10 1   
    19    8   11 1   
    20   12   13 1   
    21   12   14 1   
    22   12   16 1   
    23   15   16 1   
    24   15   34 1   
    25   15   35 1   
    26   15   36 1   
    27   17   18 1   
    28   17   37 1   
    29   17   38 1   
    30   18   19 1   
    31   18   39 1   
    32   18   40 1   
    33   19   20 1   
    34   19   41 1   
    35   19   42 1   
    36   20   21 1   
    37   20   43 1   
    38   20   44 1   
    39   21   22 1   
    40   21   45 1   
    41   21   46 1   
    42   22   23 1   
    43   22   47 1   
    44   22   48 1   
    45   23   24 1   
    46   23   49 1   
    47   23   50 1   
    48   24   25 1   
    49   24   51 1   
    50   24   52 1   
    51   25   26 1   
    52   25   53 1   
    53   25   54 1   
    54   26   55 1   
    55   26   56 1   
    56   26   57 1   
@<TRIPOS>SUBSTRUCTURE
     1 GLE         1 TEMP              0 ****  ****    0 ROOT
