@<TRIPOS>MOLECULE
GLE
   57    56     1     0     0
SMALL
bcc


@<TRIPOS>ATOM
      1 C1          1.8120    0.0660   -1.3200 c3        1 GLE      0.123400
      2 O1          1.9320    0.6140   -0.0150 os        1 GLE     -0.430600
      3 C2          0.4190    0.3080   -1.9210 c3        1 GLE      0.187100
      4 O2         -0.5140   -0.5160   -1.2980 os        1 GLE     -0.580200
      5 C3          0.4360   -0.0540   -3.4220 c3        1 GLE      0.089400
      6 O3          1.6510    0.4600   -3.9930 os        1 GLE     -0.400600
      7 C31         1.8500    0.0880   -5.3270 c3        1 GLE      0.116400
      8 C32         1.2760    1.1640   -6.3130 c3        1 GLE      0.583900
      9 F31         1.5810    0.8770   -7.6250 f         1 GLE     -0.243967
     10 F32        -0.0870    1.2930   -6.3020 f         1 GLE     -0.243967
     11 F33         1.7620    2.4300   -6.1250 f         1 GLE     -0.243967
     12 P2         -1.9370    0.1940   -0.7940 p5        1 GLE      1.426800
     13 O21        -1.8810    0.2140    0.6810 o         1 GLE     -0.823500
     14 O22        -2.1840    1.3350   -1.6910 o         1 GLE     -0.823500
     15 C2P        -2.9160   -2.1800   -0.4360 c3        1 GLE      0.182700
     16 O23        -2.9150   -1.0500   -1.2460 os        1 GLE     -0.569200
     17 C11         1.6250   -0.3060    1.0340 c3        1 GLE      0.138400
     18 C12         1.0810    0.4990    2.2010 c3        1 GLE     -0.105400
     19 C13         1.2160   -0.2800    3.4910 c3        1 GLE     -0.066400
     20 C14         0.5910    0.4740    4.6460 c3        1 GLE     -0.080400
     21 C15         0.7240   -0.2950    5.9430 c3        1 GLE     -0.077400
     22 C16         0.0960    0.4590    7.0960 c3        1 GLE     -0.079400
     23 C17         0.2260   -0.3100    8.3940 c3        1 GLE     -0.078400
     24 C18        -0.4010    0.4450    9.5460 c3        1 GLE     -0.079400
     25 C19        -0.2720   -0.3230   10.8450 c3        1 GLE     -0.080400
     26 C20        -0.8950    0.4250   11.9950 c3        1 GLE     -0.091100
     27 H11         2.5780    0.6280   -1.9210 h1        1 GLE      0.040200
     28 H12         2.0480   -1.0290   -1.3250 h1        1 GLE      0.040200
     29 H2          0.1310    1.3920   -1.8040 h1        1 GLE      0.079700
     30 H31         0.4080   -1.1680   -3.5460 h1        1 GLE      0.053200
     31 H32        -0.4390    0.4150   -3.9440 h1        1 GLE      0.053200
     32 H311        2.9610    0.0620   -5.4780 h1        1 GLE      0.071700
     33 H312        1.3790   -0.8930   -5.5890 h1        1 GLE      0.071700
     34 H2P1       -2.5440   -3.0600   -1.0270 h1        1 GLE      0.006700
     35 H2P2       -2.2730   -2.0270    0.4710 h1        1 GLE      0.006700
     36 H2P3       -3.9720   -2.3980   -0.1180 h1        1 GLE      0.006700
     37 H111        2.5840   -0.8270    1.3100 h1        1 GLE      0.029200
     38 H112        0.8750   -1.0680    0.6990 h1        1 GLE      0.029200
     39 H121       -0.0030    0.7330    2.0030 hc        1 GLE      0.078200
     40 H122        1.6350    1.4700    2.2780 hc        1 GLE      0.078200
     41 H131        2.2980   -0.4780    3.7110 hc        1 GLE      0.027700
     42 H132        0.7110   -1.2760    3.3790 hc        1 GLE      0.027700
     43 H141       -0.4930    0.6590    4.4230 hc        1 GLE      0.046200
     44 H142        1.0840    1.4760    4.7510 hc        1 GLE      0.046200
     45 H151        1.8080   -0.4830    6.1620 hc        1 GLE      0.033200
     46 H152        0.2300   -1.2970    5.8360 hc        1 GLE      0.033200
     47 H161       -0.9880    0.6450    6.8750 hc        1 GLE      0.040200
     48 H162        0.5890    1.4610    7.2020 hc        1 GLE      0.040200
     49 H171        1.3100   -0.4970    8.6130 hc        1 GLE      0.035700
     50 H172       -0.2670   -1.3120    8.2870 hc        1 GLE      0.035700
     51 H181       -1.4850    0.6320    9.3260 hc        1 GLE      0.039200
     52 H182        0.0920    1.4470    9.6520 hc        1 GLE      0.039200
     53 H191        0.8130   -0.5110   11.0610 hc        1 GLE      0.036700
     54 H192       -0.7650   -1.3250   10.7360 hc        1 GLE      0.036700
     55 H201       -0.7900   -0.1570   12.9410 hc        1 GLE      0.029367
     56 H202       -0.4010    1.4170   12.1340 hc        1 GLE      0.029367
     57 H203       -1.9820    0.6010   11.8070 hc        1 GLE      0.029367
@<TRIPOS>BOND
     1    1    2 1   
     2    1    3 1   
     3    1   27 1   
     4    1   28 1   
     5    2   17 1   
     6    3    4 1   
     7    3    5 1   
     8    3   29 1   
     9    4   12 1   
    10    5    6 1   
    11    5   30 1   
    12    5   31 1   
    13    6    7 1   
    14    7    8 1   
    15    7   32 1   
    16    7   33 1   
    17    8    9 1   
    18    8   10 1   
    19    8   11 1   
    20   12   13 1   
    21   12   14 1   
    22   12   16 1   
    23   15   16 1   
    24   15   34 1   
    25   15   35 1   
    26   15   36 1   
    27   17   18 1   
    28   17   37 1   
    29   17   38 1   
    30   18   19 1   
    31   18   39 1   
    32   18   40 1   
    33   19   20 1   
    34   19   41 1   
    35   19   42 1   
    36   20   21 1   
    37   20   43 1   
    38   20   44 1   
    39   21   22 1   
    40   21   45 1   
    41   21   46 1   
    42   22   23 1   
    43   22   47 1   
    44   22   48 1   
    45   23   24 1   
    46   23   49 1   
    47   23   50 1   
    48   24   25 1   
    49   24   51 1   
    50   24   52 1   
    51   25   26 1   
    52   25   53 1   
    53   25   54 1   
    54   26   55 1   
    55   26   56 1   
    56   26   57 1   
@<TRIPOS>SUBSTRUCTURE
     1 GLE         1 TEMP              0 ****  ****    0 ROOT
