@<TRIPOS>MOLECULE
GLE
   57    56     1     0     0
SMALL
bcc


@<TRIPOS>ATOM
      1 C1          0.2480    0.4250   -0.4930 c3        1 GLE      0.123400
      2 O1         -0.8920   -0.4020   -0.6740 os        1 GLE     -0.430600
      3 C2          1.4650   -0.3720    0.0010 c3        1 GLE      0.187100
      4 O2          1.2890   -0.7260    1.3350 os        1 GLE     -0.580200
      5 C3          2.7300    0.5100   -0.0870 c3        1 GLE      0.089400
      6 O3          2.6940    1.2200   -1.3370 os        1 GLE     -0.400600
      7 C31         3.7240    2.1560   -1.4850 c3        1 GLE      0.116400
      8 C32         4.9650    1.5310   -2.2100 c3        1 GLE      0.583900
      9 F31         5.9330    2.4730   -2.4810 f         1 GLE     -0.243967
     10 F32         5.6240    0.5620   -1.5020 f         1 GLE     -0.243967
     11 F33         4.6950    0.9690   -3.4290 f         1 GLE     -0.243967
     12 P2          1.6040   -2.3110    1.7490 p5        1 GLE      1.426800
     13 O21         0.2950   -2.9200    2.0530 o         1 GLE     -0.823500
     14 O22         2.6160   -2.8050    0.8010 o         1 GLE     -0.823500
     15 C2P         1.5300   -1.6060    4.2420 c3        1 GLE      0.182700
     16 O23         2.3460   -1.9690    3.1770 os        1 GLE     -0.569200
     17 C11        -1.7490   -0.4700    0.4660 c3        1 GLE      0.138400
     18 C12        -2.4260   -1.8300    0.4470 c3        1 GLE     -0.105400
     19 C13        -3.6910   -1.8040    1.2760 c3        1 GLE     -0.067400
     20 C14        -4.3240   -3.1780    1.3400 c3        1 GLE     -0.080400
     21 C15        -5.5940   -3.1630    2.1640 c3        1 GLE     -0.077400
     22 C16        -6.2240   -4.5380    2.2290 c3        1 GLE     -0.079400
     23 C17        -7.4930   -4.5250    3.0540 c3        1 GLE     -0.078400
     24 C18        -8.1220   -5.9000    3.1190 c3        1 GLE     -0.079400
     25 C19        -9.3910   -5.8880    3.9440 c3        1 GLE     -0.080400
     26 C20       -10.0210   -7.2560    4.0110 c3        1 GLE     -0.091100
     27 H11         0.0320    1.2690    0.2100 h1        1 GLE      0.040200
     28 H12         0.4600    0.8240   -1.5220 h1        1 GLE      0.040200
     29 H2          1.6100   -1.2920   -0.6360 h1        1 GLE      0.079700
     30 H31         2.7410    1.2460    0.7580 h1        1 GLE      0.053200
     31 H32         3.6520   -0.1280   -0.0570 h1        1 GLE      0.053200
     32 H311        4.0800    2.5800   -0.5130 h1        1 GLE      0.071700
     33 H312        3.3180    2.9570   -2.1580 h1        1 GLE      0.071700
     34 H2P1        1.7800   -0.5570    4.5600 h1        1 GLE      0.006700
     35 H2P2        1.7400   -2.2890    5.1100 h1        1 GLE      0.006700
     36 H2P3        0.4460   -1.6740    3.9620 h1        1 GLE      0.006700
     37 H111       -1.1720   -0.3330    1.4170 h1        1 GLE      0.029200
     38 H112       -2.5010    0.3600    0.3670 h1        1 GLE      0.029200
     39 H121       -2.6640   -2.1160   -0.6100 hc        1 GLE      0.078200
     40 H122       -1.7100   -2.5950    0.8600 hc        1 GLE      0.078200
     41 H131       -4.4230   -1.0730    0.8410 hc        1 GLE      0.027700
     42 H132       -3.4490   -1.4560    2.3150 hc        1 GLE      0.027700
     43 H141       -3.5910   -3.9020    1.7860 hc        1 GLE      0.046200
     44 H142       -4.5530   -3.5350    0.3010 hc        1 GLE      0.046200
     45 H151       -5.3620   -2.8060    3.2020 hc        1 GLE      0.033200
     46 H152       -6.3240   -2.4360    1.7200 hc        1 GLE      0.033200
     47 H161       -6.4530   -4.8960    1.1910 hc        1 GLE      0.040200
     48 H162       -5.4930   -5.2630    2.6750 hc        1 GLE      0.040200
     49 H171       -7.2620   -4.1680    4.0920 hc        1 GLE      0.035700
     50 H172       -8.2230   -3.7980    2.6100 hc        1 GLE      0.035700
     51 H181       -8.3520   -6.2580    2.0810 hc        1 GLE      0.039200
     52 H182       -7.3920   -6.6260    3.5640 hc        1 GLE      0.039200
     53 H191      -10.1200   -5.1600    3.4980 hc        1 GLE      0.036700
     54 H192       -9.1590   -5.5290    4.9810 hc        1 GLE      0.036700
     55 H201      -10.9540   -7.2250    4.6230 hc        1 GLE      0.029367
     56 H202      -10.2820   -7.6210    2.9880 hc        1 GLE      0.029367
     57 H203       -9.3190   -7.9900    4.4750 hc        1 GLE      0.029367
@<TRIPOS>BOND
     1    1    2 1   
     2    1    3 1   
     3    1   27 1   
     4    1   28 1   
     5    2   17 1   
     6    3    4 1   
     7    3    5 1   
     8    3   29 1   
     9    4   12 1   
    10    5    6 1   
    11    5   30 1   
    12    5   31 1   
    13    6    7 1   
    14    7    8 1   
    15    7   32 1   
    16    7   33 1   
    17    8    9 1   
    18    8   10 1   
    19    8   11 1   
    20   12   13 1   
    21   12   14 1   
    22   12   16 1   
    23   15   16 1   
    24   15   34 1   
    25   15   35 1   
    26   15   36 1   
    27   17   18 1   
    28   17   37 1   
    29   17   38 1   
    30   18   19 1   
    31   18   39 1   
    32   18   40 1   
    33   19   20 1   
    34   19   41 1   
    35   19   42 1   
    36   20   21 1   
    37   20   43 1   
    38   20   44 1   
    39   21   22 1   
    40   21   45 1   
    41   21   46 1   
    42   22   23 1   
    43   22   47 1   
    44   22   48 1   
    45   23   24 1   
    46   23   49 1   
    47   23   50 1   
    48   24   25 1   
    49   24   51 1   
    50   24   52 1   
    51   25   26 1   
    52   25   53 1   
    53   25   54 1   
    54   26   55 1   
    55   26   56 1   
    56   26   57 1   
@<TRIPOS>SUBSTRUCTURE
     1 GLE         1 TEMP              0 ****  ****    0 ROOT
