@<TRIPOS>MOLECULE
GLF
   23    23     1     0     0
SMALL
bcc


@<TRIPOS>ATOM
      1 C1          1.5510   -0.2980   -0.3840 c3        1 GLF      0.337400
      2 C2          0.5150   -0.5360   -1.5110 c3        1 GLF      0.059100
      3 C3         -0.8000    0.1970   -1.2090 c3        1 GLF      0.109100
      4 C4         -1.2870   -0.1790    0.2010 c3        1 GLF      0.125100
      5 C5         -0.1860    0.1480    1.2200 c3        1 GLF      0.097100
      6 C6         -0.5760   -0.3230    2.6230 c3        1 GLF      0.142400
      7 F1          2.0170    0.9930   -0.3410 f         1 GLF     -0.237300
      8 O2          0.9690   -0.0310   -2.7530 oh        1 GLF     -0.588800
      9 O3         -1.8180   -0.2050   -2.1080 oh        1 GLF     -0.603800
     10 O4         -2.4240    0.5870    0.5540 oh        1 GLF     -0.591800
     11 O5          1.0150   -0.5650    0.8960 os        1 GLF     -0.440600
     12 O6          0.3430    0.1290    3.5910 oh        1 GLF     -0.592800
     13 H1          2.4170   -1.0180   -0.4840 h2        1 GLF      0.085700
     14 H2          0.3290   -1.6430   -1.5890 h1        1 GLF      0.069700
     15 H3         -0.6370    1.3080   -1.2840 h1        1 GLF      0.076700
     16 H4         -1.5410   -1.2750    0.2320 h1        1 GLF      0.060700
     17 H5          0.0290    1.2520    1.2210 h1        1 GLF      0.085700
     18 H61        -0.6510   -1.4420    2.6440 h1        1 GLF      0.064700
     19 H62        -1.5610    0.1420    2.9010 h1        1 GLF      0.064700
     20 HO2         1.8520   -0.3920   -2.9030 ho        1 GLF      0.414000
     21 HO3        -1.5070    0.0180   -2.9950 ho        1 GLF      0.428000
     22 HO4        -3.0680    0.4630   -0.1570 ho        1 GLF      0.426000
     23 HO6         1.2110   -0.2130    3.3400 ho        1 GLF      0.410000
@<TRIPOS>BOND
     1    1    2 1   
     2    1    7 1   
     3    1   11 1   
     4    1   13 1   
     5    2    3 1   
     6    2    8 1   
     7    2   14 1   
     8    3    4 1   
     9    3    9 1   
    10    3   15 1   
    11    4    5 1   
    12    4   10 1   
    13    4   16 1   
    14    5    6 1   
    15    5   11 1   
    16    5   17 1   
    17    6   12 1   
    18    6   18 1   
    19    6   19 1   
    20    8   20 1   
    21    9   21 1   
    22   10   22 1   
    23   12   23 1   
@<TRIPOS>SUBSTRUCTURE
     1 GLF         1 TEMP              0 ****  ****    0 ROOT
