@<TRIPOS>MOLECULE
GLF
   23    23     1     0     0
SMALL
bcc


@<TRIPOS>ATOM
      1 C1         -0.8780   -0.7570   -1.5420 c3        1 GLF      0.337400
      2 C2          0.6360   -0.7570   -1.5420 c3        1 GLF      0.059100
      3 C3          1.1990   -0.7570   -0.1700 c3        1 GLF      0.109100
      4 C4          0.6230    0.3290    0.6770 c3        1 GLF      0.125100
      5 C5         -0.8960    0.3260    0.6660 c3        1 GLF      0.097100
      6 C6         -1.3880    1.5420    1.3830 c3        1 GLF      0.142400
      7 F1         -1.3030   -1.9190   -1.0980 f         1 GLF     -0.237300
      8 O2          1.1020   -1.9300   -2.2360 oh        1 GLF     -0.588800
      9 O3          2.6370   -0.5740   -0.2530 oh        1 GLF     -0.603800
     10 O4          1.0760    0.1540    2.0250 oh        1 GLF     -0.591800
     11 O5         -1.4470    0.3210   -0.6900 os        1 GLF     -0.440600
     12 O6         -2.7890    1.6320    1.2500 oh        1 GLF     -0.592800
     13 H1         -1.1930   -0.6340   -2.4580 h2        1 GLF      0.085700
     14 H2          0.9530    0.0370   -2.0140 h1        1 GLF      0.069700
     15 H3          1.0130   -1.6190    0.2490 h1        1 GLF      0.076700
     16 H4          0.9400    1.1910    0.3460 h1        1 GLF      0.060700
     17 H5         -1.2130   -0.4680    1.1370 h1        1 GLF      0.085700
     18 H61        -1.1540    1.4790    2.3290 h1        1 GLF      0.064700
     19 H62        -0.9730    2.3370    0.9980 h1        1 GLF      0.064700
     20 HO2         1.3710   -1.7050   -3.0520 ho        1 GLF      0.414000
     21 HO3         3.0460   -1.2890    0.0770 ho        1 GLF      0.428000
     22 HO4         1.7240    0.7360    2.1970 ho        1 GLF      0.426000
     23 HO6        -3.0870    2.3250    1.7190 ho        1 GLF      0.410000
@<TRIPOS>BOND
     1    1    2 1   
     2    1    7 1   
     3    1   11 1   
     4    1   13 1   
     5    2    3 1   
     6    2    8 1   
     7    2   14 1   
     8    3    4 1   
     9    3    9 1   
    10    3   15 1   
    11    4    5 1   
    12    4   10 1   
    13    4   16 1   
    14    5    6 1   
    15    5   11 1   
    16    5   17 1   
    17    6   12 1   
    18    6   18 1   
    19    6   19 1   
    20    8   20 1   
    21    9   21 1   
    22   10   22 1   
    23   12   23 1   
@<TRIPOS>SUBSTRUCTURE
     1 GLF         1 TEMP              0 ****  ****    0 ROOT
