@<TRIPOS>MOLECULE
GLG
   27    27     1     0     0
SMALL
bcc


@<TRIPOS>ATOM
      1 C1         -1.0690   -0.8460    0.4390 c3        1 GLG      0.039100
      2 C2          0.0700   -0.8910    1.4680 c3        1 GLG      0.105100
      3 C3          1.1150    0.1850    1.1400 c3        1 GLG      0.066100
      4 C4          1.6080   -0.0130   -0.3040 c3        1 GLG      0.124100
      5 C5          0.3990   -0.0020   -1.2540 c3        1 GLG      0.128100
      6 C6          0.8190   -0.3410   -2.6840 c3        1 GLG      0.135400
      7 O2         -0.3620   -0.7950    2.8030 oh        1 GLG     -0.599800
      8 O3          2.2540    0.0710    1.9770 oh        1 GLG     -0.606800
      9 O4          2.4610    1.0460   -0.7000 oh        1 GLG     -0.597800
     10 O5         -0.5430   -1.0130   -0.8710 os        1 GLG     -0.400600
     11 O6         -0.2000    0.1590   -3.5360 oh        1 GLG     -0.605800
     12 C7         -1.9470    0.4090    0.5450 c         1 GLG      0.632100
     13 O7         -1.9710    1.1020    1.5870 o         1 GLG     -0.638100
     14 H1         -1.7370   -1.7460    0.5820 h1        1 GLG      0.112700
     15 H2          0.5560   -1.9100    1.4100 h1        1 GLG      0.095700
     16 H3          0.6660    1.2110    1.2660 h1        1 GLG      0.069700
     17 H4          2.1600   -0.9910   -0.3810 h1        1 GLG      0.059700
     18 H5         -0.0940    1.0090   -1.2300 h1        1 GLG      0.076700
     19 H61         1.7960    0.1680   -2.9040 h1        1 GLG      0.050700
     20 H62         0.9210   -1.4510   -2.8100 h1        1 GLG      0.050700
     21 HO2        -0.8260    0.0490    2.9200 ho        1 GLG      0.439000
     22 HO3         1.9260   -0.0710    2.8760 ho        1 GLG      0.428000
     23 HO4         3.1240    1.1370   -0.0020 ho        1 GLG      0.428000
     24 HO6         0.0630   -0.0620   -4.4360 ho        1 GLG      0.406000
     25 HN1        -3.3130    1.5300   -0.4850 hn        1 GLG      0.324000
     26 HN2        -2.6360    0.2410   -1.3770 hn        1 GLG      0.324000
     27 N          -2.7570    0.7110   -0.5130 n         1 GLG     -0.646000
@<TRIPOS>BOND
     1    1    2 1   
     2    1   10 1   
     3    1   12 1   
     4    1   14 1   
     5    2    3 1   
     6    2    7 1   
     7    2   15 1   
     8    3    4 1   
     9    3    8 1   
    10    3   16 1   
    11    4    5 1   
    12    4    9 1   
    13    4   17 1   
    14    5    6 1   
    15    5   10 1   
    16    5   18 1   
    17    6   11 1   
    18    6   19 1   
    19    6   20 1   
    20    7   21 1   
    21    8   22 1   
    22    9   23 1   
    23   11   24 1   
    24   12   13 2   
    25   12   27 1   
    26   25   27 1   
    27   26   27 1   
@<TRIPOS>SUBSTRUCTURE
     1 GLG         1 TEMP              0 ****  ****    0 ROOT
