@<TRIPOS>MOLECULE
GLH
   55    56     1     0     0
SMALL
bcc


@<TRIPOS>ATOM
      1 N          -0.3450    1.9110    4.5660 n3        1 GLH     -0.897800
      2 CA          0.4100    0.7090    4.2340 c3        1 GLH      0.011500
      3 CB          0.8520    0.6640    2.7700 c3        1 GLH     -0.058400
      4 C           1.6690    0.4630    5.1360 c         1 GLH      0.892600
      5 CG         -0.3430    0.4890    1.8550 c3        1 GLH     -0.139400
      6 CD          0.0530    0.5140    0.3940 c         1 GLH      0.677100
      7 OE1         1.1840    0.8860    0.0260 o         1 GLH     -0.608100
      8 N1         -0.8910    0.1200   -0.5790 n         1 GLH     -0.521400
      9 O           1.9250    1.3120    6.0360 o         1 GLH     -0.838300
     10 O1         -1.0400   -1.0370   -2.5950 o         1 GLH     -0.643100
     11 C1         -0.5240   -0.0920   -1.9490 c         1 GLH      0.769100
     12 C2         -2.2360   -0.2940   -0.1850 c3        1 GLH      0.119700
     13 N2          0.3210    0.8240   -2.5920 n         1 GLH     -0.519900
     14 C3         -3.3240    0.1840   -1.1650 c3        1 GLH     -0.098400
     15 C7         -2.3760   -1.8130    0.0150 c3        1 GLH     -0.098400
     16 C4         -4.6950   -0.1470   -0.6130 c3        1 GLH     -0.073900
     17 C5         -4.8450   -1.6330   -0.3630 c3        1 GLH     -0.077400
     18 C6         -3.7520   -2.1460    0.5520 c3        1 GLH     -0.073900
     19 C8          0.9240    0.4360   -3.8560 c3        1 GLH      0.089700
     20 C9          1.3070    1.6790   -4.6790 c3        1 GLH     -0.093400
     21 C13         2.1650   -0.4610   -3.6960 c3        1 GLH     -0.093400
     22 C10         1.8480    1.2660   -6.0310 c3        1 GLH     -0.073400
     23 C11         3.0470    0.3500   -5.8930 c3        1 GLH     -0.078400
     24 C12         2.7110   -0.8620   -5.0490 c3        1 GLH     -0.073400
     25 OXT         2.3340   -0.5870    4.9230 o         1 GLH     -0.838300
     26 H          -0.4380    1.9340    5.5690 hn        1 GLH      0.333800
     27 H2          0.2130    2.7110    4.3220 hn        1 GLH      0.333800
     28 HCA        -0.2810   -0.1650    4.4220 h1        1 GLH      0.037700
     29 HB2         1.4120    1.5940    2.4930 hc        1 GLH      0.065200
     30 HB3         1.5590   -0.2010    2.6540 hc        1 GLH      0.065200
     31 HG2        -0.8480   -0.4840    2.0960 hc        1 GLH      0.071700
     32 HG3        -1.0780    1.3220    2.0300 hc        1 GLH      0.071700
     33 HC2        -2.4620    0.2090    0.8050 h1        1 GLH      0.064700
     34 HN2         0.9070    1.3920   -2.0120 hn        1 GLH      0.323500
     35 HC31       -3.2390    1.2910   -1.3190 hc        1 GLH      0.060200
     36 HC32       -3.1860   -0.3160   -2.1590 hc        1 GLH      0.060200
     37 HC71       -2.2070   -2.3310   -0.9660 hc        1 GLH      0.060200
     38 HC72       -1.5980   -2.1760    0.7360 hc        1 GLH      0.060200
     39 HC41       -4.8630    0.4120    0.3450 hc        1 GLH      0.037950
     40 HC42       -5.4760    0.1930   -1.3410 hc        1 GLH      0.037950
     41 HC51       -5.8470   -1.8390    0.0940 hc        1 GLH      0.036200
     42 HC52       -4.7990   -2.1810   -1.3410 hc        1 GLH      0.036200
     43 HC61       -3.8770   -1.6960    1.5730 hc        1 GLH      0.037950
     44 HC62       -3.8450   -3.2570    0.6620 hc        1 GLH      0.037950
     45 HC8         0.1460   -0.1480   -4.4360 h1        1 GLH      0.080700
     46 HC91        0.4080    2.3330   -4.8210 hc        1 GLH      0.050700
     47 HC92        2.0810    2.2750   -4.1290 hc        1 GLH      0.050700
     48 H131        2.9540    0.0820   -3.1140 hc        1 GLH      0.050700
     49 H132        1.8850   -1.3800   -3.1180 hc        1 GLH      0.050700
     50 H101        1.0440    0.7430   -6.6130 hc        1 GLH      0.037700
     51 H102        2.1390    2.1820   -6.6080 hc        1 GLH      0.037700
     52 H111        3.3880    0.0210   -6.9080 hc        1 GLH      0.036200
     53 H112        3.8940    0.9130   -5.4180 hc        1 GLH      0.036200
     54 H121        1.9540   -1.4930   -5.5860 hc        1 GLH      0.037700
     55 H122        3.6310   -1.4870   -4.9070 hc        1 GLH      0.037700
@<TRIPOS>BOND
     1    1    2 1   
     2    1   26 1   
     3    1   27 1   
     4    2    3 1   
     5    2    4 1   
     6    2   28 1   
     7    3    5 1   
     8    3   29 1   
     9    3   30 1   
    10    4    9 1   
    11    4   25 1   
    12    5    6 1   
    13    5   31 1   
    14    5   32 1   
    15    6    7 2   
    16    6    8 1   
    17    8   11 1   
    18    8   12 1   
    19   10   11 2   
    20   11   13 1   
    21   12   14 1   
    22   12   15 1   
    23   12   33 1   
    24   13   19 1   
    25   13   34 1   
    26   14   16 1   
    27   14   35 1   
    28   14   36 1   
    29   15   18 1   
    30   15   37 1   
    31   15   38 1   
    32   16   17 1   
    33   16   39 1   
    34   16   40 1   
    35   17   18 1   
    36   17   41 1   
    37   17   42 1   
    38   18   43 1   
    39   18   44 1   
    40   19   20 1   
    41   19   21 1   
    42   19   45 1   
    43   20   22 1   
    44   20   46 1   
    45   20   47 1   
    46   21   24 1   
    47   21   48 1   
    48   21   49 1   
    49   22   23 1   
    50   22   50 1   
    51   22   51 1   
    52   23   24 1   
    53   23   52 1   
    54   23   53 1   
    55   24   54 1   
    56   24   55 1   
@<TRIPOS>SUBSTRUCTURE
     1 GLH         1 TEMP              0 ****  ****    0 ROOT
