@<TRIPOS>MOLECULE
GLH
   55    56     1     0     0
SMALL
bcc


@<TRIPOS>ATOM
      1 N          -3.6810   -1.7640   -2.3190 n3        1 GLH     -0.899800
      2 CA         -2.4220   -1.2130   -2.6920 c3        1 GLH      0.009500
      3 CB         -1.3380   -1.8040   -1.8240 c3        1 GLH     -0.057400
      4 C          -2.1380   -1.5360   -4.1520 c         1 GLH      0.891600
      5 CG         -0.8890   -0.7560   -0.7750 c3        1 GLH     -0.150400
      6 CD          0.5830   -0.4100   -0.9990 c         1 GLH      0.664100
      7 OE1         1.0960   -0.6270   -2.0730 o         1 GLH     -0.566100
      8 N1          1.4110    0.0280    0.1300 n         1 GLH     -0.527400
      9 O          -2.0730   -0.6070   -5.0020 o         1 GLH     -0.835800
     10 O1          1.5530    0.3280    2.4610 o         1 GLH     -0.634100
     11 C1          0.8230    0.1140    1.4880 c         1 GLH      0.771100
     12 C2          2.6670    0.1780   -0.0270 c3        1 GLH      0.117700
     13 N2         -0.6170    0.1290    1.6500 n         1 GLH     -0.531900
     14 C3          3.3810   -1.1810   -0.4470 c3        1 GLH     -0.093900
     15 C7          3.0130    0.9950   -1.3750 c3        1 GLH     -0.093900
     16 C4          4.8890   -1.0240   -0.6700 c3        1 GLH     -0.070900
     17 C5          5.2300    0.2730   -0.8750 c3        1 GLH     -0.078400
     18 C6          4.5060    1.1700   -1.6000 c3        1 GLH     -0.070900
     19 C8         -1.1910    0.3920    2.9430 c3        1 GLH      0.090700
     20 C9         -1.3440    1.8980    3.1200 c3        1 GLH     -0.090900
     21 C13        -2.5150   -0.3410    3.0470 c3        1 GLH     -0.090900
     22 C10        -2.4060    2.4840    2.2060 c3        1 GLH     -0.083400
     23 C11        -3.7280    1.7530    2.3100 c3        1 GLH     -0.077400
     24 C12        -3.5760    0.2480    2.1340 c3        1 GLH     -0.083400
     25 OXT        -1.9780   -2.7310   -4.5130 o         1 GLH     -0.835800
     26 H          -4.3180   -1.1070   -2.3340 hn        1 GLH      0.333800
     27 H2         -3.9090   -2.4170   -2.9030 hn        1 GLH      0.333800
     28 HCA        -2.4420   -0.2460   -2.5710 h1        1 GLH      0.039700
     29 HB2        -1.6850   -2.6030   -1.3620 hc        1 GLH      0.065200
     30 HB3        -0.5760   -2.0550   -2.3800 hc        1 GLH      0.065200
     31 HG2        -1.4350    0.0560   -0.8700 hc        1 GLH      0.064700
     32 HG3        -1.0030   -1.1200    0.1140 hc        1 GLH      0.064700
     33 HC2         3.0890    0.5800    0.7570 h1        1 GLH      0.080700
     34 HN2        -1.1460    0.0800    0.9290 hn        1 GLH      0.301500
     35 HC31        2.9720   -1.5090   -1.2800 hc        1 GLH      0.057200
     36 HC32        3.2350   -1.8460    0.2590 hc        1 GLH      0.057200
     37 HC71        2.5940    1.8880   -1.3220 hc        1 GLH      0.057200
     38 HC72        2.6310    0.5090   -2.1480 hc        1 GLH      0.057200
     39 HC41        5.3740   -1.3660    0.1310 hc        1 GLH      0.036450
     40 HC42        5.1540   -1.5550   -1.4580 hc        1 GLH      0.036450
     41 HC51        6.1420    0.2560   -1.2900 hc        1 GLH      0.032700
     42 HC52        5.3330    0.6690    0.0160 hc        1 GLH      0.032700
     43 HC61        4.7680    2.0840   -1.3360 hc        1 GLH      0.036450
     44 HC62        4.7040    1.0430   -2.5590 hc        1 GLH      0.036450
     45 HC8        -0.5870    0.0520    3.6320 h1        1 GLH      0.081700
     46 HC91       -0.4820    2.3320    2.9240 hc        1 GLH      0.046950
     47 HC92       -1.5910    2.0870    4.0580 hc        1 GLH      0.046950
     48 H131       -2.3770   -1.2840    2.8080 hc        1 GLH      0.046950
     49 H132       -2.8310   -0.2920    3.9720 hc        1 GLH      0.046950
     50 H101       -2.0920    2.4340    1.2870 hc        1 GLH      0.048450
     51 H102       -2.5470    3.4370    2.4460 hc        1 GLH      0.048450
     52 H111       -4.1210    1.9310    3.1910 hc        1 GLH      0.036700
     53 H112       -4.3360    2.0950    1.6150 hc        1 GLH      0.036700
     54 H121       -3.3300    0.0600    1.1970 hc        1 GLH      0.048450
     55 H122       -4.4440   -0.1860    2.3300 hc        1 GLH      0.048450
@<TRIPOS>BOND
     1    1    2 1   
     2    1   26 1   
     3    1   27 1   
     4    2    3 1   
     5    2    4 1   
     6    2   28 1   
     7    3    5 1   
     8    3   29 1   
     9    3   30 1   
    10    4    9 1   
    11    4   25 1   
    12    5    6 1   
    13    5   31 1   
    14    5   32 1   
    15    6    7 2   
    16    6    8 1   
    17    8   11 1   
    18    8   12 1   
    19   10   11 2   
    20   11   13 1   
    21   12   14 1   
    22   12   15 1   
    23   12   33 1   
    24   13   19 1   
    25   13   34 1   
    26   14   16 1   
    27   14   35 1   
    28   14   36 1   
    29   15   18 1   
    30   15   37 1   
    31   15   38 1   
    32   16   17 1   
    33   16   39 1   
    34   16   40 1   
    35   17   18 1   
    36   17   41 1   
    37   17   42 1   
    38   18   43 1   
    39   18   44 1   
    40   19   20 1   
    41   19   21 1   
    42   19   45 1   
    43   20   22 1   
    44   20   46 1   
    45   20   47 1   
    46   21   24 1   
    47   21   48 1   
    48   21   49 1   
    49   22   23 1   
    50   22   50 1   
    51   22   51 1   
    52   23   24 1   
    53   23   52 1   
    54   23   53 1   
    55   24   54 1   
    56   24   55 1   
@<TRIPOS>SUBSTRUCTURE
     1 GLH         1 TEMP              0 ****  ****    0 ROOT
