@<TRIPOS>MOLECULE
GLI
   93    93     1     0     0
SMALL
bcc


@<TRIPOS>ATOM
      1 N           1.5840   -0.5640    4.4820 n4        1 GLI     -0.845600
      2 CA1         1.3050   -0.8930    3.0420 c3        1 GLI      0.085500
      3 CB1         0.6940    0.2970    2.3080 c3        1 GLI     -0.173100
      4 C1          2.5900   -1.3630    2.3290 c         1 GLI      0.515100
      5 O1          3.6940   -1.4490    2.8340 o         1 GLI     -0.351100
      6 N2          2.4460   -1.7360    0.8660 n4        1 GLI     -0.675800
      7 CA2         3.5990   -2.5620    0.3160 c3        1 GLI      0.064500
      8 CB2         3.3740   -4.0490    0.5520 c3        1 GLI     -0.166100
      9 C2          3.8030   -2.2710   -1.1920 c         1 GLI      0.525100
     10 O2          3.1810   -1.4020   -1.7870 o         1 GLI     -0.385100
     11 N3          4.8150   -3.1040   -1.8960 n4        1 GLI     -0.652800
     12 CA3         5.2390   -2.6000   -3.2790 c3        1 GLI      0.140500
     13 CB3         6.6890   -2.0910   -3.2520 c3        1 GLI     -0.058100
     14 CG3         7.0800   -1.3910   -2.0010 ca        1 GLI     -0.201300
     15 CDV         7.7660   -2.0940   -0.9960 ca        1 GLI     -0.146000
     16 CDW         6.9150   -0.0060   -1.8830 ca        1 GLI     -0.146000
     17 CEV         8.2850   -1.4140    0.1040 ca        1 GLI     -0.111000
     18 CEW         7.4370    0.6710   -0.7790 ca        1 GLI     -0.111000
     19 CZ3         8.1280   -0.0290    0.2110 ca        1 GLI     -0.084000
     20 C3          5.1080   -3.7300   -4.3550 c3        1 GLI      0.134100
     21 O3          3.8600   -4.3550   -4.0930 oh        1 GLI     -0.634800
     22 CX4         5.1530   -3.1300   -5.7640 c3        1 GLI     -0.122400
     23 CA4         5.5120   -4.1670   -6.8230 c3        1 GLI     -0.150400
     24 C4          5.6670   -3.5110   -8.1740 c         1 GLI      0.551100
     25 O4          5.6630   -2.3210   -8.4290 o         1 GLI     -0.373100
     26 N5          5.8400   -4.4650   -9.3550 n4        1 GLI     -0.689800
     27 CA5         6.5270   -3.8630  -10.5660 c3        1 GLI      0.050500
     28 CB5         8.0680   -4.0130  -10.4400 c3        1 GLI     -0.071700
     29 CGF         8.5240   -5.4390  -10.6430 c3        1 GLI     -0.143100
     30 CGG         8.7960   -3.0720  -11.3800 c3        1 GLI     -0.143100
     31 C5          5.9730   -4.5220  -11.8480 c         1 GLI      0.524100
     32 O5          5.2640   -5.5220  -11.8230 o         1 GLI     -0.401100
     33 N6          6.2850   -3.8760  -13.1460 n4        1 GLI     -0.664800
     34 CA6         6.1570   -4.7930  -14.3680 c3        1 GLI      0.068500
     35 CB6         5.7450   -3.9630  -15.6080 c3        1 GLI     -0.067700
     36 CGP         6.8870   -3.1140  -16.1160 c3        1 GLI     -0.118100
     37 CGQ         5.2380   -4.9070  -16.6830 c3        1 GLI     -0.118100
     38 C6          7.4960   -5.5100  -14.5650 c         1 GLI      0.629100
     39 O6          8.5050   -5.2630  -13.8900 o         1 GLI     -0.580000
     40 OM6         7.4720   -6.4630  -15.5020 os        1 GLI     -0.367900
     41 CM6         8.7160   -7.1490  -15.7860 c3        1 GLI      0.121700
     42 HN1         0.6820   -0.3730    4.9590 hn        1 GLI      0.504467
     43 HN2A        2.0540   -1.3450    4.9660 hn        1 GLI      0.504467
     44 HA1         0.5670   -1.7640    3.0460 hx        1 GLI      0.169700
     45 HB11        1.4280    1.1300    2.1650 hc        1 GLI      0.121700
     46 HB12       -0.1860    0.7130    2.8770 hc        1 GLI      0.121700
     47 HB13        0.2920   -0.0280    1.3160 hc        1 GLI      0.121700
     48 HN2         1.5710   -2.2680    0.7410 hn        1 GLI      0.494800
     49 HA2         4.5430   -2.2190    0.8580 hx        1 GLI      0.178700
     50 HB21        2.5690   -4.4660   -0.1040 hc        1 GLI      0.114033
     51 HB22        4.3280   -4.6100    0.3660 hc        1 GLI      0.114033
     52 HB23        3.1040   -4.2580    1.6210 hc        1 GLI      0.114033
     53 HN3         4.4110   -4.0520   -2.0090 hn        1 GLI      0.494800
     54 HA3         4.5320   -1.7620   -3.5570 hx        1 GLI      0.138700
     55 HB31        7.3930   -2.9510   -3.4320 hc        1 GLI      0.100200
     56 HB32        6.7980   -1.3790   -4.1190 hc        1 GLI      0.100200
     57 HD31        7.9860   -3.1670   -1.1160 ha        1 GLI      0.143000
     58 HD32        6.4210    0.5650   -2.6850 ha        1 GLI      0.143000
     59 HE31        8.8670   -1.9620    0.8670 ha        1 GLI      0.179500
     60 HE32        7.3460    1.7700   -0.7170 ha        1 GLI      0.179500
     61 HZ3         8.5870    0.5140    1.0560 ha        1 GLI      0.186000
     62 H3          5.9420   -4.4780   -4.2190 h1        1 GLI      0.076700
     63 HO3         3.7270   -5.0660   -4.7360 ho        1 GLI      0.461000
     64 HX41        4.1500   -2.6810   -6.0020 hc        1 GLI      0.103700
     65 HX42        5.9100   -2.3000   -5.7960 hc        1 GLI      0.103700
     66 HA41        4.7130   -4.9570   -6.8760 hc        1 GLI      0.113200
     67 HA42        6.4860   -4.6700   -6.5610 hc        1 GLI      0.113200
     68 HN5         6.3920   -5.2810   -9.0500 hn        1 GLI      0.481800
     69 HA5         6.2660   -2.7560  -10.5850 hx        1 GLI      0.156700
     70 HB5         8.3290   -3.6900   -9.3870 hc        1 GLI      0.076700
     71 H511        8.0880   -6.1360   -9.8890 hc        1 GLI      0.084867
     72 H512        9.6420   -5.4860  -10.5440 hc        1 GLI      0.084867
     73 H513        8.2740   -5.8060  -11.6710 hc        1 GLI      0.084867
     74 H521        9.7740   -2.7760  -10.9110 hc        1 GLI      0.084867
     75 H522        8.2230   -2.1340  -11.5690 hc        1 GLI      0.084867
     76 H523        9.0660   -3.5770  -12.3460 hc        1 GLI      0.084867
     77 HN6         5.6470   -3.0780  -13.2870 hn        1 GLI      0.495300
     78 HA6         5.3540   -5.5640  -14.1550 hx        1 GLI      0.158700
     79 HB6         4.8820   -3.2940  -15.3180 hc        1 GLI      0.067700
     80 H611        7.7630   -3.7480  -16.4020 hc        1 GLI      0.075367
     81 H612        7.2120   -2.3660  -15.3540 hc        1 GLI      0.075367
     82 H613        6.5610   -2.5550  -17.0320 hc        1 GLI      0.075367
     83 H621        4.3770   -5.5130  -16.3110 hc        1 GLI      0.075367
     84 H622        6.0440   -5.5980  -17.0320 hc        1 GLI      0.075367
     85 H623        4.8930   -4.3030  -17.5610 hc        1 GLI      0.075367
     86 HM61        8.4130   -7.8560  -16.6020 h1        1 GLI      0.091033
     87 HM62        9.0610   -7.6840  -14.8710 h1        1 GLI      0.091033
     88 HM63        9.4770   -6.4090  -16.1330 h1        1 GLI      0.091033
     89 HN31        2.1740    0.2790    4.5640 hn        1 GLI      0.504467
     90 H22         2.3640   -0.8560    0.3210 hn        1 GLI      0.494800
     91 H32         5.6680   -3.1590   -1.3040 hn        1 GLI      0.494800
     92 H52         4.9040   -4.8070   -9.6270 hn        1 GLI      0.481800
     93 H62         7.2670   -3.5260  -13.1300 hn        1 GLI      0.495300
@<TRIPOS>BOND
     1    1    2 1   
     2    1   42 1   
     3    1   43 1   
     4    1   89 1   
     5    2    3 1   
     6    2    4 1   
     7    2   44 1   
     8    3   45 1   
     9    3   46 1   
    10    3   47 1   
    11    4    5 2   
    12    4    6 1   
    13    6    7 1   
    14    6   48 1   
    15    6   90 1   
    16    7    8 1   
    17    7    9 1   
    18    7   49 1   
    19    8   50 1   
    20    8   51 1   
    21    8   52 1   
    22    9   10 2   
    23    9   11 1   
    24   11   12 1   
    25   11   53 1   
    26   11   91 1   
    27   12   13 1   
    28   12   20 1   
    29   12   54 1   
    30   13   14 1   
    31   13   55 1   
    32   13   56 1   
    33   14   15 ar  
    34   14   16 ar  
    35   15   17 ar  
    36   15   57 1   
    37   16   18 ar  
    38   16   58 1   
    39   17   19 ar  
    40   17   59 1   
    41   18   19 ar  
    42   18   60 1   
    43   19   61 1   
    44   20   21 1   
    45   20   22 1   
    46   20   62 1   
    47   21   63 1   
    48   22   23 1   
    49   22   64 1   
    50   22   65 1   
    51   23   24 1   
    52   23   66 1   
    53   23   67 1   
    54   24   25 2   
    55   24   26 1   
    56   26   27 1   
    57   26   68 1   
    58   26   92 1   
    59   27   28 1   
    60   27   31 1   
    61   27   69 1   
    62   28   29 1   
    63   28   30 1   
    64   28   70 1   
    65   29   71 1   
    66   29   72 1   
    67   29   73 1   
    68   30   74 1   
    69   30   75 1   
    70   30   76 1   
    71   31   32 2   
    72   31   33 1   
    73   33   34 1   
    74   33   77 1   
    75   33   93 1   
    76   34   35 1   
    77   34   38 1   
    78   34   78 1   
    79   35   36 1   
    80   35   37 1   
    81   35   79 1   
    82   36   80 1   
    83   36   81 1   
    84   36   82 1   
    85   37   83 1   
    86   37   84 1   
    87   37   85 1   
    88   38   39 2   
    89   38   40 1   
    90   40   41 1   
    91   41   86 1   
    92   41   87 1   
    93   41   88 1   
@<TRIPOS>SUBSTRUCTURE
     1 GLI         1 TEMP              0 ****  ****    0 ROOT
