@<TRIPOS>MOLECULE
GLI
   88    86     1     0     0
SMALL
bcc


@<TRIPOS>ATOM
      1 N          -5.5490   -3.4300    8.6240 n3        1 GLI     -0.344000
      2 CA1        -4.6800   -2.4500    9.1850 c3        1 GLI     -0.051000
      3 CB1        -4.5200   -2.7060   10.6610 c3        1 GLI     -0.243000
      4 C1         -3.3150   -2.5270    8.5040 c2        1 GLI      0.309000
      5 O1         -2.3800   -3.0680    9.0720 o         1 GLI     -0.402000
      6 N2         -3.1200   -1.9220    7.1810 n         1 GLI     -0.359000
      7 CA2        -2.1720   -2.4940    6.2590 c3        1 GLI      0.015000
      8 CB2        -2.6820   -3.8080    5.7690 c3        1 GLI     -0.217000
      9 C2         -1.9770   -1.5470    5.0710 c2        1 GLI      0.291000
     10 O2         -2.6280   -0.5210    4.9990 o         1 GLI     -0.396000
     11 N3         -0.9230   -1.8070    4.1030 n         1 GLI     -0.359000
     12 CA3        -0.7940   -0.9820    2.9480 c3        1 GLI      0.002000
     13 CB3         0.6190   -0.4220    2.8810 c3        1 GLI     -0.132000
     14 CG3         0.5620    1.1420    2.8590 c2        1 GLI     -0.073000
     15 CDV         1.1420    1.8700    3.8980 c2        1 GLI     -0.125000
     16 CDW         0.1200    1.8010    1.7120 c1        1 GLI     -0.122000
     17 CEV         1.2800    3.2490    3.7900 c1        1 GLI     -0.138000
     18 CEW         0.2590    3.1890    1.6050 c1        1 GLI     -0.129000
     19 CZ3         0.8350    3.9080    2.6360 c1        1 GLI     -0.129000
     20 C3         -1.0710   -1.8040    1.7060 c3        1 GLI      0.012000
     21 O3         -2.1700   -2.6510    1.9420 oh        1 GLI     -0.333000
     22 CX4        -1.3880   -0.8690    0.5360 c3        1 GLI     -0.185000
     23 CA4        -0.7650   -1.4430   -0.7770 c3        1 GLI     -0.176000
     24 C4         -0.5000   -0.2940   -1.7640 c2        1 GLI      0.303000
     25 O4         -1.0370    0.7770   -1.6010 o         1 GLI     -0.374000
     26 N5          0.4500   -0.4750   -2.8560 n         1 GLI     -0.365000
     27 CA5         1.1100    0.6660   -3.4280 c3        1 GLI      0.013000
     28 CB5         2.3200    1.0200   -2.5960 c3        1 GLI     -0.110000
     29 CGF         3.4950    0.0610   -2.9500 c3        1 GLI     -0.220500
     30 CGG         2.7220    2.4230   -2.8820 c3        1 GLI     -0.220500
     31 C5          1.5470    0.3420   -4.8490 c2        1 GLI      0.282000
     32 O5          1.9950   -0.7520   -5.1090 o         1 GLI     -0.368000
     33 N6          1.3520    1.3250   -5.9180 n         1 GLI     -0.357000
     34 CA6         2.0040    1.1510   -7.1650 c3        1 GLI      0.033000
     35 CB6         0.9540    1.0890   -8.2910 c3        1 GLI     -0.106000
     36 CGP         0.7130    2.5000   -8.8470 c3        1 GLI     -0.218500
     37 CGQ         1.4470    0.2020   -9.3840 c3        1 GLI     -0.218500
     38 C6          2.9330    2.3030   -7.4080 c2        1 GLI      0.277000
     39 O6          2.5120    3.4490   -7.3540 o         1 GLI     -0.362000
     40 OM6         4.2740    2.0610   -7.7790 os        1 GLI     -0.267000
     41 CM6         5.0720    3.1920   -7.7750 c3        1 GLI     -0.066000
     42 HN1        -6.1860   -3.0150    8.1040 hn        1 GLI      0.153500
     43 HN2A       -5.9640   -3.8990    9.3030 hn        1 GLI      0.153500
     44 HA1        -5.0600   -1.5630    9.0490 h1        1 GLI      0.121000
     45 HB11       -3.9280   -2.0270   11.0460 hc        1 GLI      0.090000
     46 HB12       -5.3990   -2.6610   11.0990 hc        1 GLI      0.090000
     47 HB13       -4.1300   -3.5960   10.8000 hc        1 GLI      0.090000
     48 HN2        -3.5960   -1.1700    6.9450 hn        1 GLI      0.250000
     49 HA2        -1.3180   -2.6260    6.7120 h1        1 GLI      0.125000
     50 HB21       -3.0230   -4.3270    6.5240 hc        1 GLI      0.095333
     51 HB22       -1.9550   -4.2990    5.3370 hc        1 GLI      0.095333
     52 HB23       -3.4050   -3.6580    5.1220 hc        1 GLI      0.095333
     53 HN3        -0.3020   -2.4610    4.2690 hn        1 GLI      0.252000
     54 HA3        -1.4290   -0.2500    3.0000 h1        1 GLI      0.119000
     55 HB31        1.0660   -0.7470    2.0590 hc        1 GLI      0.099000
     56 HB32        1.1260   -0.7200    3.6700 hc        1 GLI      0.099000
     57 HD31        1.4510    1.4140    4.6960 ha        1 GLI      0.145000
     58 HD32       -0.2850    1.2960    0.9870 ha        1 GLI      0.135000
     59 HE31        1.6890    3.7620    4.5220 ha        1 GLI      0.126000
     60 HE32       -0.0520    3.6520    0.7970 ha        1 GLI      0.130500
     61 HZ3         0.9320    4.8800    2.5600 ha        1 GLI      0.130500
     62 H3         -0.2800   -2.3480    1.4870 h1        1 GLI      0.109000
     63 HO3        -2.0860   -3.3950    1.4470 ho        1 GLI      0.223000
     64 HX41       -2.3650   -0.7970    0.4300 hc        1 GLI      0.104000
     65 HX42       -1.0090    0.0260    0.7170 hc        1 GLI      0.104000
     66 HA41       -1.3840   -2.0790   -1.1790 hc        1 GLI      0.115500
     67 HA42        0.0770   -1.8950   -0.5690 hc        1 GLI      0.115500
     68 HN5         0.6220   -1.3130   -3.1790 hn        1 GLI      0.237000
     69 HA5         0.4820    1.4370   -3.4430 h1        1 GLI      0.142000
     70 HB5         2.0990    0.9300   -1.6440 hc        1 GLI      0.104000
     71 H511        3.8180    0.2590   -3.8640 hc        1 GLI      0.083000
     72 H512        3.1840   -0.8660   -2.9070 hc        1 GLI      0.083000
     73 H513        4.2330    0.1910   -2.3040 hc        1 GLI      0.083000
     74 H521        3.3430    2.7260   -2.2010 hc        1 GLI      0.083000
     75 H522        3.1550    2.4660   -3.7620 hc        1 GLI      0.083000
     76 H523        1.9270    2.9990   -2.8790 hc        1 GLI      0.083000
     77 HN6         0.8480    2.0710   -5.7660 hn        1 GLI      0.235000
     78 HA6         2.5120    0.3220   -7.1500 h1        1 GLI      0.161000
     79 HB6         0.1180    0.7320   -7.9370 hc        1 GLI      0.110000
     80 H611        0.0200    2.4610   -9.5570 hc        1 GLI      0.082833
     81 H612        1.5490    2.8510   -9.2230 hc        1 GLI      0.082833
     82 H613        0.4090    3.0850   -8.1280 hc        1 GLI      0.082833
     83 H621        2.0620   -0.4580   -9.0130 hc        1 GLI      0.082833
     84 H622        1.9140    0.7430  -10.0610 hc        1 GLI      0.082833
     85 H623        0.6890   -0.2550   -9.7990 hc        1 GLI      0.082833
     86 HM61        4.6300    3.9020   -8.2730 h1        1 GLI      0.091333
     87 HM62        5.2210    3.4830   -6.8560 h1        1 GLI      0.091333
     88 HM63        5.9360    2.9840   -8.1960 h1        1 GLI      0.091333
@<TRIPOS>BOND
     1    1    2 1   
     2    1   42 1   
     3    1   43 1   
     4    2    3 1   
     5    2    4 1   
     6    2   44 1   
     7    3   45 1   
     8    3   46 1   
     9    3   47 1   
    10    4    5 1   
    11    4    6 1   
    12    6    7 1   
    13    6   48 1   
    14    7    8 1   
    15    7    9 1   
    16    7   49 1   
    17    8   50 1   
    18    8   51 1   
    19    8   52 1   
    20    9   10 1   
    21    9   11 1   
    22   11   12 1   
    23   11   53 1   
    24   12   13 1   
    25   12   20 1   
    26   12   54 1   
    27   13   14 1   
    28   13   55 1   
    29   13   56 1   
    30   14   15 1   
    31   14   16 1   
    32   15   17 1   
    33   15   57 1   
    34   16   58 1   
    35   17   59 1   
    36   18   19 1   
    37   18   60 1   
    38   19   61 1   
    39   20   21 1   
    40   20   22 1   
    41   20   62 1   
    42   21   63 1   
    43   22   23 1   
    44   22   64 1   
    45   22   65 1   
    46   23   24 1   
    47   23   66 1   
    48   23   67 1   
    49   24   25 1   
    50   24   26 1   
    51   26   27 1   
    52   26   68 1   
    53   27   28 1   
    54   27   31 1   
    55   27   69 1   
    56   28   29 1   
    57   28   30 1   
    58   28   70 1   
    59   29   71 1   
    60   29   72 1   
    61   29   73 1   
    62   30   74 1   
    63   30   75 1   
    64   30   76 1   
    65   31   32 1   
    66   31   33 1   
    67   33   34 1   
    68   33   77 1   
    69   34   35 1   
    70   34   38 1   
    71   34   78 1   
    72   35   36 1   
    73   35   37 1   
    74   35   79 1   
    75   36   80 1   
    76   36   81 1   
    77   36   82 1   
    78   37   83 1   
    79   37   84 1   
    80   37   85 1   
    81   38   39 1   
    82   38   40 1   
    83   40   41 1   
    84   41   86 1   
    85   41   87 1   
    86   41   88 1   
@<TRIPOS>SUBSTRUCTURE
     1 GLI         1 TEMP              0 ****  ****    0 ROOT
