@<TRIPOS>MOLECULE
GLI
   93    93     1     0     0
SMALL
bcc


@<TRIPOS>ATOM
      1 N           1.6500   -0.4980    4.4920 n4        1 GLI     -0.845600
      2 CA1         1.3620   -0.8190    3.0510 c3        1 GLI      0.085500
      3 CB1         0.7770    0.3860    2.3200 c3        1 GLI     -0.173100
      4 C1          2.6350   -1.3150    2.3370 c         1 GLI      0.515100
      5 O1          3.7390   -1.4260    2.8410 o         1 GLI     -0.351100
      6 N2          2.4830   -1.6840    0.8740 n4        1 GLI     -0.675800
      7 CA2         3.6170   -2.5330    0.3210 c3        1 GLI      0.064500
      8 CB2         3.3620   -4.0160    0.5560 c3        1 GLI     -0.166100
      9 C2          3.8260   -2.2450   -1.1870 c         1 GLI      0.525100
     10 O2          3.2210   -1.3630   -1.7800 o         1 GLI     -0.385100
     11 N3          4.8190   -3.0980   -1.8920 n4        1 GLI     -0.652800
     12 CA3         5.2510   -2.6020   -3.2750 c3        1 GLI      0.140500
     13 CB3         6.7120   -2.1230   -3.2510 c3        1 GLI     -0.058100
     14 CG3         7.1190   -1.4330   -1.9980 ca        1 GLI     -0.201300
     15 CDV         7.7920   -2.1500   -0.9960 ca        1 GLI     -0.146000
     16 CDW         6.9820   -0.0450   -1.8780 ca        1 GLI     -0.146000
     17 CEV         8.3260   -1.4840    0.1050 ca        1 GLI     -0.111000
     18 CEW         7.5200    0.6200   -0.7750 ca        1 GLI     -0.111000
     19 CZ3         8.1970   -0.0960    0.2140 ca        1 GLI     -0.084000
     20 C3          5.0960   -3.7280   -4.3520 c3        1 GLI      0.134100
     21 O3          3.8370   -4.3280   -4.0890 oh        1 GLI     -0.634800
     22 CX4         5.1500   -3.1270   -5.7610 c3        1 GLI     -0.122400
     23 CA4         5.4940   -4.1690   -6.8210 c3        1 GLI     -0.150400
     24 C4          5.6490   -3.5150   -8.1740 c         1 GLI      0.551100
     25 O4          5.6470   -2.3260   -8.4310 o         1 GLI     -0.373100
     26 N5          5.8170   -4.4720   -9.3520 n4        1 GLI     -0.689800
     27 CA5         6.4940   -3.8720  -10.5690 c3        1 GLI      0.050500
     28 CB5         8.0370   -4.0040  -10.4470 c3        1 GLI     -0.071700
     29 CGF         8.5080   -5.4260  -10.6420 c3        1 GLI     -0.143100
     30 CGG         8.7520   -3.0620  -11.3960 c3        1 GLI     -0.143100
     31 C5          5.9430   -4.5460  -11.8450 c         1 GLI      0.524100
     32 O5          5.2460   -5.5530  -11.8120 o         1 GLI     -0.401100
     33 N6          6.2460   -3.9060  -13.1480 n4        1 GLI     -0.664800
     34 CA6         6.1240   -4.8320  -14.3640 c3        1 GLI      0.068500
     35 CB6         5.6990   -4.0170  -15.6080 c3        1 GLI     -0.067700
     36 CGP         6.8290   -3.1580  -16.1260 c3        1 GLI     -0.118100
     37 CGQ         5.1990   -4.9740  -16.6740 c3        1 GLI     -0.118100
     38 C6          7.4700   -5.5360  -14.5600 c         1 GLI      0.629100
     39 O6          8.4790   -5.2720  -13.8890 o         1 GLI     -0.580000
     40 OM6         7.4540   -6.4950  -15.4890 os        1 GLI     -0.367900
     41 CM6         8.7060   -7.1690  -15.7740 c3        1 GLI      0.121700
     42 HN1         2.1020   -1.2890    4.9750 hn        1 GLI      0.504467
     43 HN2A        0.7520   -0.2870    4.9700 hn        1 GLI      0.504467
     44 HA1         0.6040   -1.6720    3.0550 hx        1 GLI      0.169700
     45 HB11        1.5300    1.2020    2.1780 hc        1 GLI      0.121700
     46 HB12       -0.0930    0.8200    2.8900 hc        1 GLI      0.121700
     47 HB13        0.3670    0.0720    1.3270 hc        1 GLI      0.121700
     48 HN2         2.4170   -0.8020    0.3300 hn        1 GLI      0.494800
     49 HA2         4.5690   -2.2100    0.8630 hx        1 GLI      0.178700
     50 HB21        2.5480   -4.4150   -0.0990 hc        1 GLI      0.114033
     51 HB22        3.0890   -4.2200    1.6260 hc        1 GLI      0.114033
     52 HB23        4.3040   -4.5960    0.3690 hc        1 GLI      0.114033
     53 HN3         5.6720   -3.1710   -1.3010 hn        1 GLI      0.494800
     54 HA3         4.5610   -1.7490   -3.5520 hx        1 GLI      0.138700
     55 HB31        6.8340   -1.4110   -4.1170 hc        1 GLI      0.100200
     56 HB32        7.3970   -2.9960   -3.4320 hc        1 GLI      0.100200
     57 HD31        7.9890   -3.2280   -1.1170 ha        1 GLI      0.143000
     58 HD32        6.4990    0.5380   -2.6790 ha        1 GLI      0.143000
     59 HE31        8.8980   -2.0440    0.8660 ha        1 GLI      0.179500
     60 HE32        7.4520    1.7200   -0.7100 ha        1 GLI      0.179500
     61 HZ3         8.6690    0.4370    1.0600 ha        1 GLI      0.186000
     62 H3          5.9160   -4.4920   -4.2190 h1        1 GLI      0.076700
     63 HO3         3.6880   -5.0350   -4.7320 ho        1 GLI      0.461000
     64 HX41        5.9200   -2.3090   -5.7930 hc        1 GLI      0.103700
     65 HX42        4.1540   -2.6630   -5.9980 hc        1 GLI      0.103700
     66 HA41        6.4630   -4.6820   -6.5620 hc        1 GLI      0.113200
     67 HA42        4.6860   -4.9510   -6.8700 hc        1 GLI      0.113200
     68 HN5         6.3750   -5.2860   -9.0480 hn        1 GLI      0.481800
     69 HA5         6.2220   -2.7680  -10.5960 hx        1 GLI      0.156700
     70 HB5         8.2980   -3.6710   -9.3970 hc        1 GLI      0.076700
     71 H511        8.2590   -5.8040  -11.6660 hc        1 GLI      0.084700
     72 H512        9.6270   -5.4610  -10.5460 hc        1 GLI      0.084700
     73 H513        8.0820   -6.1230   -9.8810 hc        1 GLI      0.084700
     74 H521        8.1680   -2.1310  -11.5900 hc        1 GLI      0.084700
     75 H522        9.7280   -2.7520  -10.9310 hc        1 GLI      0.084700
     76 H523        9.0250   -3.5700  -12.3590 hc        1 GLI      0.084700
     77 HN6         7.2230   -3.5450  -13.1380 hn        1 GLI      0.495300
     78 HA6         5.3310   -5.6110  -14.1430 hx        1 GLI      0.158700
     79 HB6         4.8290   -3.3550  -15.3200 hc        1 GLI      0.067700
     80 H611        6.4940   -2.6100  -17.0450 hc        1 GLI      0.075367
     81 H612        7.7120   -3.7840  -16.4100 hc        1 GLI      0.075367
     82 H613        7.1480   -2.4010  -15.3700 hc        1 GLI      0.075367
     83 H621        4.8440   -4.3810  -17.5560 hc        1 GLI      0.075367
     84 H622        4.3450   -5.5870  -16.2950 hc        1 GLI      0.075367
     85 H623        6.0110   -5.6590  -17.0210 hc        1 GLI      0.075367
     86 HM61        9.4570   -6.4230  -16.1270 h1        1 GLI      0.091033
     87 HM62        8.4080   -7.8850  -16.5830 h1        1 GLI      0.091033
     88 HM63        9.0590   -7.6930  -14.8550 h1        1 GLI      0.091033
     89 HN31        2.2580    0.3320    4.5750 hn        1 GLI      0.504467
     90 H22         1.5960   -2.1980    0.7500 hn        1 GLI      0.494800
     91 H32         4.3960   -4.0380   -2.0060 hn        1 GLI      0.494800
     92 H52         4.8810   -4.8190   -9.6170 hn        1 GLI      0.481800
     93 H62         5.5980   -3.1150  -13.2940 hn        1 GLI      0.495300
@<TRIPOS>BOND
     1    1    2 1   
     2    1   42 1   
     3    1   43 1   
     4    1   89 1   
     5    2    3 1   
     6    2    4 1   
     7    2   44 1   
     8    3   45 1   
     9    3   46 1   
    10    3   47 1   
    11    4    5 2   
    12    4    6 1   
    13    6    7 1   
    14    6   48 1   
    15    6   90 1   
    16    7    8 1   
    17    7    9 1   
    18    7   49 1   
    19    8   50 1   
    20    8   51 1   
    21    8   52 1   
    22    9   10 2   
    23    9   11 1   
    24   11   12 1   
    25   11   53 1   
    26   11   91 1   
    27   12   13 1   
    28   12   20 1   
    29   12   54 1   
    30   13   14 1   
    31   13   55 1   
    32   13   56 1   
    33   14   15 ar  
    34   14   16 ar  
    35   15   17 ar  
    36   15   57 1   
    37   16   18 ar  
    38   16   58 1   
    39   17   19 ar  
    40   17   59 1   
    41   18   19 ar  
    42   18   60 1   
    43   19   61 1   
    44   20   21 1   
    45   20   22 1   
    46   20   62 1   
    47   21   63 1   
    48   22   23 1   
    49   22   64 1   
    50   22   65 1   
    51   23   24 1   
    52   23   66 1   
    53   23   67 1   
    54   24   25 2   
    55   24   26 1   
    56   26   27 1   
    57   26   68 1   
    58   26   92 1   
    59   27   28 1   
    60   27   31 1   
    61   27   69 1   
    62   28   29 1   
    63   28   30 1   
    64   28   70 1   
    65   29   71 1   
    66   29   72 1   
    67   29   73 1   
    68   30   74 1   
    69   30   75 1   
    70   30   76 1   
    71   31   32 2   
    72   31   33 1   
    73   33   34 1   
    74   33   77 1   
    75   33   93 1   
    76   34   35 1   
    77   34   38 1   
    78   34   78 1   
    79   35   36 1   
    80   35   37 1   
    81   35   79 1   
    82   36   80 1   
    83   36   81 1   
    84   36   82 1   
    85   37   83 1   
    86   37   84 1   
    87   37   85 1   
    88   38   39 2   
    89   38   40 1   
    90   40   41 1   
    91   41   86 1   
    92   41   87 1   
    93   41   88 1   
@<TRIPOS>SUBSTRUCTURE
     1 GLI         1 TEMP              0 ****  ****    0 ROOT
