@<TRIPOS>MOLECULE
GLI
   88    88     1     0     0
SMALL
bcc


@<TRIPOS>ATOM
      1 N          -2.4320   -4.1510   -6.8050 n3        1 GLI     -0.883800
      2 CA1        -2.0870   -3.6200   -5.5050 c3        1 GLI      0.110500
      3 CB1        -0.7600   -4.1660   -4.9800 c3        1 GLI     -0.099100
      4 C1         -2.0130   -2.0720   -5.4720 c         1 GLI      0.611100
      5 O1         -1.9760   -1.4020   -6.5240 o         1 GLI     -0.620100
      6 N2         -2.0480   -1.4640   -4.2310 n         1 GLI     -0.549900
      7 CA2        -1.8350   -0.0480   -4.0660 c3        1 GLI      0.035700
      8 CB2        -2.9500    0.6360   -3.2700 c3        1 GLI     -0.104100
      9 C2         -0.5120    0.2290   -3.3040 c         1 GLI      0.629100
     10 O2         -0.1370   -0.5160   -2.3750 o         1 GLI     -0.619100
     11 N3          0.1760    1.3770   -3.6400 n         1 GLI     -0.550900
     12 CA3         1.4870    1.6570   -3.0930 c3        1 GLI      0.066700
     13 CB3         2.4530    2.2470   -4.1380 c3        1 GLI     -0.053100
     14 CG3         2.5540    1.4110   -5.3620 ca        1 GLI     -0.091300
     15 CDV         1.8370    1.7520   -6.5140 ca        1 GLI     -0.129500
     16 CDW         3.3760    0.2770   -5.3770 ca        1 GLI     -0.129500
     17 CEV         1.9370    0.9700   -7.6630 ca        1 GLI     -0.123000
     18 CEW         3.4760   -0.5030   -6.5270 ca        1 GLI     -0.123000
     19 CZ3         2.7560   -0.1590   -7.6720 ca        1 GLI     -0.126000
     20 C3          1.4390    2.6390   -1.8880 c3        1 GLI      0.133100
     21 O3          0.9520    3.9110   -2.2710 oh        1 GLI     -0.594800
     22 CX4         0.6460    2.0460   -0.7290 c3        1 GLI     -0.110400
     23 CA4         0.8710    2.8470    0.5340 c3        1 GLI     -0.154400
     24 C4         -0.0890    2.4580    1.6420 c         1 GLI      0.662100
     25 O4         -0.8610    3.2940    2.1530 o         1 GLI     -0.611100
     26 N5         -0.0900    1.1360    2.0480 n         1 GLI     -0.556900
     27 CA5        -0.8350    0.6820    3.1930 c3        1 GLI      0.042700
     28 CB5        -1.7690   -0.5080    2.8650 c3        1 GLI     -0.071700
     29 CGF        -1.0090   -1.7330    2.4090 c3        1 GLI     -0.104100
     30 CGG        -2.6560   -0.8310    4.0490 c3        1 GLI     -0.104100
     31 C5          0.1280    0.2760    4.3410 c         1 GLI      0.639100
     32 O5          1.2400   -0.2390    4.1160 o         1 GLI     -0.608100
     33 N6         -0.2870    0.5650    5.6300 n         1 GLI     -0.548900
     34 CA6         0.4290    0.0860    6.7850 c3        1 GLI      0.059700
     35 CB6         0.4970    1.1410    7.9170 c3        1 GLI     -0.066700
     36 CGP        -0.8700    1.4880    8.4620 c3        1 GLI     -0.100600
     37 CGQ         1.4140    0.6510    9.0170 c3        1 GLI     -0.100600
     38 C6         -0.2010   -1.2020    7.3210 c         1 GLI      0.605100
     39 O6         -1.3860   -1.5420    7.3010 o         1 GLI     -0.551000
     40 OM6         0.7140   -2.0600    7.8580 os        1 GLI     -0.428900
     41 CM6         0.2140   -3.2990    8.3640 c3        1 GLI      0.123700
     42 HN1        -1.6840   -4.0020   -7.4550 hn        1 GLI      0.360800
     43 HN2A       -3.2540   -3.6960   -7.1550 hn        1 GLI      0.360800
     44 HA1        -2.9150   -3.9390   -4.8010 h1        1 GLI      0.076700
     45 HB11       -0.7580   -5.2820   -5.0280 hc        1 GLI      0.051367
     46 HB12        0.0950   -3.7820   -5.5850 hc        1 GLI      0.051367
     47 HB13       -0.6160   -3.8580   -3.9170 hc        1 GLI      0.051367
     48 HN2        -1.9210   -2.0200   -3.4160 hn        1 GLI      0.324500
     49 HA2        -1.7930    0.4160   -5.1000 h1        1 GLI      0.099700
     50 HB21       -3.0140    0.2220   -2.2360 hc        1 GLI      0.052033
     51 HB22       -2.7340    1.7290   -3.2080 hc        1 GLI      0.052033
     52 HB23       -3.9330    0.4910   -3.7780 hc        1 GLI      0.052033
     53 HN3        -0.0400    1.8210   -4.5040 hn        1 GLI      0.314500
     54 HA3         1.9240    0.6850   -2.7070 h1        1 GLI      0.081700
     55 HB31        2.1190    3.2880   -4.3970 hc        1 GLI      0.067700
     56 HB32        3.4620    2.3320   -3.6530 hc        1 GLI      0.067700
     57 HD31        1.1980    2.6480   -6.5160 ha        1 GLI      0.130000
     58 HD32        3.9440    0.0040   -4.4750 ha        1 GLI      0.130000
     59 HE31        1.3670    1.2430   -8.5640 ha        1 GLI      0.134500
     60 HE32        4.1240   -1.3920   -6.5320 ha        1 GLI      0.134500
     61 HZ3         2.8330   -0.7770   -8.5780 ha        1 GLI      0.134000
     62 H3          2.5020    2.8420   -1.5690 h1        1 GLI      0.078700
     63 HO3         0.0030    3.8280   -2.4250 ho        1 GLI      0.405000
     64 HX41        0.9540    0.9760   -0.5880 hc        1 GLI      0.065700
     65 HX42       -0.4460    2.0410   -0.9840 hc        1 GLI      0.065700
     66 HA41        0.7170    3.9400    0.3180 hc        1 GLI      0.079700
     67 HA42        1.9230    2.7150    0.8990 hc        1 GLI      0.079700
     68 HN5         0.6100    0.5180    1.7050 hn        1 GLI      0.326500
     69 HA5        -1.4880    1.5430    3.5380 h1        1 GLI      0.102700
     70 HB5        -2.4360   -0.1700    2.0190 hc        1 GLI      0.063700
     71 H511       -1.7040   -2.6040    2.3270 hc        1 GLI      0.044700
     72 H512       -0.5450   -1.5620    1.4070 hc        1 GLI      0.044700
     73 H513       -0.1980   -1.9930    3.1330 hc        1 GLI      0.044700
     74 H521       -2.0860   -1.3410    4.8650 hc        1 GLI      0.044700
     75 H522       -3.1210    0.0970    4.4620 hc        1 GLI      0.044700
     76 H523       -3.4760   -1.5170    3.7250 hc        1 GLI      0.044700
     77 HN6        -1.2400    0.8100    5.7780 hn        1 GLI      0.321500
     78 HA6         1.4910   -0.1630    6.4710 h1        1 GLI      0.120700
     79 HB6         0.9510    2.0720    7.4710 hc        1 GLI      0.069700
     80 H611       -0.7660    2.1230    9.3750 hc        1 GLI      0.043700
     81 H612       -1.4670    2.0580    7.7100 hc        1 GLI      0.043700
     82 H613       -1.4360    0.5640    8.7360 hc        1 GLI      0.043700
     83 H621        1.0050   -0.2740    9.4920 hc        1 GLI      0.043700
     84 H622        2.4260    0.4150    8.6070 hc        1 GLI      0.043700
     85 H623        1.5200    1.4380    9.8020 hc        1 GLI      0.043700
     86 HM61        1.1320   -3.8250    8.7270 h1        1 GLI      0.052033
     87 HM62       -0.5050   -3.1070    9.1960 h1        1 GLI      0.052033
     88 HM63       -0.2880   -3.8690    7.5460 h1        1 GLI      0.052033
@<TRIPOS>BOND
     1    1    2 1   
     2    1   42 1   
     3    1   43 1   
     4    2    3 1   
     5    2    4 1   
     6    2   44 1   
     7    3   45 1   
     8    3   46 1   
     9    3   47 1   
    10    4    5 2   
    11    4    6 1   
    12    6    7 1   
    13    6   48 1   
    14    7    8 1   
    15    7    9 1   
    16    7   49 1   
    17    8   50 1   
    18    8   51 1   
    19    8   52 1   
    20    9   10 2   
    21    9   11 1   
    22   11   12 1   
    23   11   53 1   
    24   12   13 1   
    25   12   20 1   
    26   12   54 1   
    27   13   14 1   
    28   13   55 1   
    29   13   56 1   
    30   14   15 ar  
    31   14   16 ar  
    32   15   17 ar  
    33   15   57 1   
    34   16   18 ar  
    35   16   58 1   
    36   17   19 ar  
    37   17   59 1   
    38   18   19 ar  
    39   18   60 1   
    40   19   61 1   
    41   20   21 1   
    42   20   22 1   
    43   20   62 1   
    44   21   63 1   
    45   22   23 1   
    46   22   64 1   
    47   22   65 1   
    48   23   24 1   
    49   23   66 1   
    50   23   67 1   
    51   24   25 2   
    52   24   26 1   
    53   26   27 1   
    54   26   68 1   
    55   27   28 1   
    56   27   31 1   
    57   27   69 1   
    58   28   29 1   
    59   28   30 1   
    60   28   70 1   
    61   29   71 1   
    62   29   72 1   
    63   29   73 1   
    64   30   74 1   
    65   30   75 1   
    66   30   76 1   
    67   31   32 2   
    68   31   33 1   
    69   33   34 1   
    70   33   77 1   
    71   34   35 1   
    72   34   38 1   
    73   34   78 1   
    74   35   36 1   
    75   35   37 1   
    76   35   79 1   
    77   36   80 1   
    78   36   81 1   
    79   36   82 1   
    80   37   83 1   
    81   37   84 1   
    82   37   85 1   
    83   38   39 2   
    84   38   40 1   
    85   40   41 1   
    86   41   86 1   
    87   41   87 1   
    88   41   88 1   
@<TRIPOS>SUBSTRUCTURE
     1 GLI         1 TEMP              0 ****  ****    0 ROOT
