@<TRIPOS>MOLECULE
GLI
   93    93     1     0     0
SMALL
bcc


@<TRIPOS>ATOM
      1 N           1.6440   -0.5550    4.5020 nz        1 GLI     -0.845600
      2 CA1         1.3570   -0.8550    3.0570 c3        1 GLI      0.085500
      3 CB1         0.7930    0.3660    2.3370 c3        1 GLI     -0.173100
      4 C1          2.6260   -1.3630    2.3430 c         1 GLI      0.515100
      5 O1          3.7250   -1.4960    2.8490 o         1 GLI     -0.351100
      6 N2          2.4740   -1.7120    0.8740 ny        1 GLI     -0.675800
      7 CA2         3.5970   -2.5720    0.3170 c3        1 GLI      0.064500
      8 CB2         3.3180   -4.0530    0.5330 c3        1 GLI     -0.166100
      9 C2          3.8180   -2.2700   -1.1870 c         1 GLI      0.525100
     10 O2          3.2290   -1.3720   -1.7730 o         1 GLI     -0.385100
     11 N3          4.8010   -3.1300   -1.8980 ny        1 GLI     -0.652800
     12 CA3         5.2470   -2.6250   -3.2730 c3        1 GLI      0.140500
     13 CB3         6.7150   -2.1690   -3.2370 c3        1 GLI     -0.058100
     14 CG3         7.1270   -1.4990   -1.9750 ca        1 GLI     -0.201300
     15 CDV         7.7840   -2.2380   -0.9780 ca        1 GLI     -0.146000
     16 CDW         7.0110   -0.1110   -1.8400 ca        1 GLI     -0.146000
     17 CEV         8.3230   -1.5920    0.1320 ca        1 GLI     -0.111000
     18 CEW         7.5540    0.5330   -0.7270 ca        1 GLI     -0.111000
     19 CZ3         8.2160   -0.2030    0.2560 ca        1 GLI     -0.084000
     20 C3          5.0790   -3.7370   -4.3640 c3        1 GLI      0.134100
     21 O3          3.8090   -4.3190   -4.1130 oh        1 GLI     -0.634800
     22 CX4         5.1500   -3.1210   -5.7660 c3        1 GLI     -0.122400
     23 CA4         5.4760   -4.1570   -6.8360 c3        1 GLI     -0.150400
     24 C4          5.6560   -3.4900   -8.1790 c         1 GLI      0.551100
     25 O4          5.6890   -2.2970   -8.4200 o         1 GLI     -0.373100
     26 N5          5.8030   -4.4350   -9.3700 ny        1 GLI     -0.689800
     27 CA5         6.5080   -3.8400  -10.5730 c3        1 GLI      0.050500
     28 CB5         8.0450   -4.0310  -10.4450 c3        1 GLI     -0.071700
     29 CGF         8.4640   -5.4660  -10.6620 c3        1 GLI     -0.143100
     30 CGG         8.8000   -3.1010  -11.3740 c3        1 GLI     -0.143100
     31 C5          5.9410   -4.4710  -11.8630 c         1 GLI      0.524100
     32 O5          5.2060   -5.4530  -11.8500 o         1 GLI     -0.401100
     33 N6          6.2730   -3.8210  -13.1540 ny        1 GLI     -0.664800
     34 CA6         6.1250   -4.7220  -14.3860 c3        1 GLI      0.068500
     35 CB6         5.7370   -3.8700  -15.6180 c3        1 GLI     -0.067700
     36 CGP         6.9020   -3.0460  -16.1150 c3        1 GLI     -0.118100
     37 CGQ         5.2080   -4.7900  -16.7030 c3        1 GLI     -0.118100
     38 C6          7.4440   -5.4720  -14.5860 c         1 GLI      0.629100
     39 O6          8.4580   -5.2570  -13.9060 o         1 GLI     -0.580000
     40 OM6         7.3990   -6.4140  -15.5330 os        1 GLI     -0.367900
     41 CM6         8.6260   -7.1290  -15.8220 c3        1 GLI      0.121700
     42 HN1         2.0830   -1.3580    4.9780 hn        1 GLI      0.504467
     43 HN2A        0.7480   -0.3370    4.9790 hn        1 GLI      0.504467
     44 HA1         0.5870   -1.6980    3.0490 hx        1 GLI      0.169700
     45 HB11       -0.0730    0.8060    2.9090 hc        1 GLI      0.121700
     46 HB12        0.3830    0.0690    1.3390 hc        1 GLI      0.121700
     47 HB13        1.5580    1.1730    2.2070 hc        1 GLI      0.121700
     48 HN2         2.4250   -0.8230    0.3410 hn        1 GLI      0.494800
     49 HA2         4.5520   -2.2710    0.8660 hx        1 GLI      0.178700
     50 HB21        3.0370   -4.2660    1.5990 hc        1 GLI      0.114033
     51 HB22        2.5000   -4.4320   -0.1310 hc        1 GLI      0.114033
     52 HB23        4.2520   -4.6460    0.3430 hc        1 GLI      0.114033
     53 HN3         4.3640   -4.0620   -2.0240 hn        1 GLI      0.494800
     54 HA3         4.5710   -1.7580   -3.5430 hx        1 GLI      0.138700
     55 HB31        7.3880   -3.0510   -3.4250 hc        1 GLI      0.100200
     56 HB32        6.8520   -1.4500   -4.0940 hc        1 GLI      0.100200
     57 HD31        7.9650   -3.3170   -1.1110 ha        1 GLI      0.143000
     58 HD32        6.5400    0.4880   -2.6370 ha        1 GLI      0.143000
     59 HE31        8.8830   -2.1690    0.8900 ha        1 GLI      0.179500
     60 HE32        7.5020    1.6340   -0.6510 ha        1 GLI      0.179500
     61 HZ3         8.6910    0.3130    1.1100 ha        1 GLI      0.186000
     62 H3          5.8860   -4.5150   -4.2350 h1        1 GLI      0.076700
     63 HO3         3.6520   -5.0170   -4.7650 ho        1 GLI      0.461000
     64 HX41        4.1630   -2.6350   -6.0000 hc        1 GLI      0.103700
     65 HX42        5.9350   -2.3170   -5.7850 hc        1 GLI      0.103700
     66 HA41        6.4330   -4.6950   -6.5780 hc        1 GLI      0.113200
     67 HA42        4.6520   -4.9200   -6.9000 hc        1 GLI      0.113200
     68 HN5         6.3310   -5.2700   -9.0730 hn        1 GLI      0.481800
     69 HA5         6.2770   -2.7270  -10.5830 hx        1 GLI      0.156700
     70 HB5         8.3120   -3.7260   -9.3890 hc        1 GLI      0.076700
     71 H511        8.0080   -6.1590   -9.9150 hc        1 GLI      0.084700
     72 H512        8.2070   -5.8170  -11.6940 hc        1 GLI      0.084700
     73 H513        9.5800   -5.5440  -10.5610 hc        1 GLI      0.084700
     74 H521        8.2510   -2.1460  -11.5560 hc        1 GLI      0.084700
     75 H522        9.7830   -2.8350  -10.9000 hc        1 GLI      0.084700
     76 H523        9.0580   -3.6020  -12.3450 hc        1 GLI      0.084700
     77 HN6         5.6570   -3.0050  -13.2890 hn        1 GLI      0.495300
     78 HA6         5.3010   -5.4740  -14.1820 hx        1 GLI      0.158700
     79 HB6         4.8910   -3.1810  -15.3230 hc        1 GLI      0.067700
     80 H611        7.7620   -3.7000  -16.4050 hc        1 GLI      0.075367
     81 H612        7.2440   -2.3140  -15.3450 hc        1 GLI      0.075367
     82 H613        6.5930   -2.4700  -17.0270 hc        1 GLI      0.075367
     83 H621        4.3300   -5.3760  -16.3390 hc        1 GLI      0.075367
     84 H622        4.8810   -4.1690  -17.5760 hc        1 GLI      0.075367
     85 H623        5.9970   -5.4990  -17.0570 hc        1 GLI      0.075367
     86 HM61        8.3060   -7.8200  -16.6450 h1        1 GLI      0.091033
     87 HM62        8.9540   -7.6820  -14.9110 h1        1 GLI      0.091033
     88 HM63        9.4060   -6.4060  -16.1590 h1        1 GLI      0.091033
     89 HN31        2.2640    0.2650    4.5970 hn        1 GLI      0.504467
     90 H22         1.5800   -2.2110    0.7400 hn        1 GLI      0.494800
     91 H32         5.6500   -3.2230   -1.3040 hn        1 GLI      0.494800
     92 H52         4.8570   -4.7470   -9.6470 hn        1 GLI      0.481800
     93 H62         7.2630   -3.4970  -13.1330 hn        1 GLI      0.495300
@<TRIPOS>BOND
     1    1    2 1   
     2    1   42 1   
     3    1   43 1   
     4    1   89 1   
     5    2    3 1   
     6    2    4 1   
     7    2   44 1   
     8    3   45 1   
     9    3   46 1   
    10    3   47 1   
    11    4    5 2   
    12    4    6 1   
    13    6    7 1   
    14    6   48 1   
    15    6   90 1   
    16    7    8 1   
    17    7    9 1   
    18    7   49 1   
    19    8   50 1   
    20    8   51 1   
    21    8   52 1   
    22    9   10 2   
    23    9   11 1   
    24   11   12 1   
    25   11   53 1   
    26   11   91 1   
    27   12   13 1   
    28   12   20 1   
    29   12   54 1   
    30   13   14 1   
    31   13   55 1   
    32   13   56 1   
    33   14   15 ar  
    34   14   16 ar  
    35   15   17 ar  
    36   15   57 1   
    37   16   18 ar  
    38   16   58 1   
    39   17   19 ar  
    40   17   59 1   
    41   18   19 ar  
    42   18   60 1   
    43   19   61 1   
    44   20   21 1   
    45   20   22 1   
    46   20   62 1   
    47   21   63 1   
    48   22   23 1   
    49   22   64 1   
    50   22   65 1   
    51   23   24 1   
    52   23   66 1   
    53   23   67 1   
    54   24   25 2   
    55   24   26 1   
    56   26   27 1   
    57   26   68 1   
    58   26   92 1   
    59   27   28 1   
    60   27   31 1   
    61   27   69 1   
    62   28   29 1   
    63   28   30 1   
    64   28   70 1   
    65   29   71 1   
    66   29   72 1   
    67   29   73 1   
    68   30   74 1   
    69   30   75 1   
    70   30   76 1   
    71   31   32 2   
    72   31   33 1   
    73   33   34 1   
    74   33   77 1   
    75   33   93 1   
    76   34   35 1   
    77   34   38 1   
    78   34   78 1   
    79   35   36 1   
    80   35   37 1   
    81   35   79 1   
    82   36   80 1   
    83   36   81 1   
    84   36   82 1   
    85   37   83 1   
    86   37   84 1   
    87   37   85 1   
    88   38   39 2   
    89   38   40 1   
    90   40   41 1   
    91   41   86 1   
    92   41   87 1   
    93   41   88 1   
@<TRIPOS>SUBSTRUCTURE
     1 GLI         1 TEMP              0 ****  ****    0 ROOT
