@<TRIPOS>MOLECULE
GLJ
   20    19     1     0     0
SMALL
bcc


@<TRIPOS>ATOM
      1 N           1.0450    1.9050    0.3290 n3        1 GLJ     -0.892800
      2 CA          1.0880    0.4570    0.4960 c3        1 GLJ      0.017500
      3 C           2.3820   -0.2190   -0.0720 c         1 GLJ      0.888600
      4 O           3.2720    0.5300   -0.5680 o         1 GLJ     -0.842800
      5 CB         -0.1280   -0.2520   -0.1020 c3        1 GLJ     -0.066400
      6 CG         -1.3890    0.0280    0.6840 c3        1 GLJ     -0.099400
      7 CD         -2.6000   -0.5870   -0.0060 c3        1 GLJ      0.325900
      8 OE1        -2.9610    0.0200   -1.2270 oh        1 GLJ     -0.644300
      9 H           1.9420    2.2620    0.6140 hn        1 GLJ      0.330800
     10 HA          1.0950    0.2620    1.6080 h1        1 GLJ      0.041700
     11 HB2        -0.2760    0.0570   -1.1700 hc        1 GLJ      0.052200
     12 HB3         0.0940   -1.3530   -0.0960 hc        1 GLJ      0.052200
     13 HG2        -1.3090   -0.4070    1.7140 hc        1 GLJ      0.058200
     14 HG3        -1.5500    1.1310    0.7980 hc        1 GLJ      0.058200
     15 HD2        -2.4570   -1.6800   -0.2400 h2        1 GLJ      0.061700
     16 OE2        -3.7330   -0.3870    0.8220 oh        1 GLJ     -0.644300
     17 HE1        -2.7280    0.9550   -1.1810 ho        1 GLJ      0.406500
     18 H2          0.9670    2.1060   -0.6530 hn        1 GLJ      0.330800
     19 OXT         2.4710   -1.4740    0.0180 o         1 GLJ     -0.842800
     20 HE2        -4.5080   -0.6370    0.3070 ho        1 GLJ      0.406500
@<TRIPOS>BOND
     1    1    2 1   
     2    1    9 1   
     3    1   18 1   
     4    2    3 1   
     5    2    5 1   
     6    2   10 1   
     7    3    4 1   
     8    3   19 1   
     9    5    6 1   
    10    5   11 1   
    11    5   12 1   
    12    6    7 1   
    13    6   13 1   
    14    6   14 1   
    15    7    8 1   
    16    7   15 1   
    17    7   16 1   
    18    8   17 1   
    19   16   20 1   
@<TRIPOS>SUBSTRUCTURE
     1 GLJ         1 TEMP              0 ****  ****    0 ROOT
