@<TRIPOS>MOLECULE
GLK
   20    19     1     0     0
SMALL
bcc


@<TRIPOS>ATOM
      1 N           1.2140    1.8150   -0.7320 n3        1 GLK     -0.889800
      2 CA          1.1310    0.6030    0.0690 c3        1 GLK      0.137500
      3 C           2.3420   -0.3230   -0.2190 c3        1 GLK      0.332900
      4 CB         -0.1670   -0.1990   -0.1180 c3        1 GLK     -0.108400
      5 CG         -1.3500    0.4790    0.5260 c3        1 GLK     -0.201400
      6 CD         -2.6750   -0.1040   -0.0070 c         1 GLK      0.910600
      7 OE1        -2.8200   -0.1990   -1.2600 o         1 GLK     -0.846800
      8 OE2        -3.5530   -0.4360    0.8390 o         1 GLK     -0.846800
      9 O           3.5020    0.2820    0.3160 oh        1 GLK     -0.632300
     10 H           1.0570    1.5910   -1.6970 hn        1 GLK      0.344800
     11 H2          0.4880    2.4430   -0.4400 hn        1 GLK      0.344800
     12 HA          1.2090    0.9180    1.1520 h1        1 GLK      0.060700
     13 HB2        -0.3820   -0.3410   -1.2120 hc        1 GLK      0.058200
     14 HB3        -0.0420   -1.2210    0.3250 hc        1 GLK      0.058200
     15 HG2        -1.3100    0.3600    1.6380 hc        1 GLK      0.020200
     16 HG3        -1.3580    1.5750    0.2990 hc        1 GLK      0.020200
     17 H1          4.2320   -0.3300    0.1650 ho        1 GLK      0.404500
     18 OXT         2.2870   -1.5680    0.4380 oh        1 GLK     -0.632300
     19 H10         2.4540   -0.5620   -1.3120 h2        1 GLK      0.061700
     20 HXT         1.9380   -1.4280    1.3260 ho        1 GLK      0.404500
@<TRIPOS>BOND
     1    1    2 1   
     2    1   10 1   
     3    1   11 1   
     4    2    3 1   
     5    2    4 1   
     6    2   12 1   
     7    3    9 1   
     8    3   18 1   
     9    3   19 1   
    10    4    5 1   
    11    4   13 1   
    12    4   14 1   
    13    5    6 1   
    14    5   15 1   
    15    5   16 1   
    16    6    7 1   
    17    6    8 1   
    18    9   17 1   
    19   18   20 1   
@<TRIPOS>SUBSTRUCTURE
     1 GLK         1 TEMP              0 ****  ****    0 ROOT
