@<TRIPOS>MOLECULE
GLK
   20    19     1     0     0
SMALL
bcc


@<TRIPOS>ATOM
      1 N          -1.8260   -0.5510    0.3670 n3        1 GLK     -0.919800
      2 CA         -0.4040   -0.5660    0.3260 c3        1 GLK      0.091500
      3 C           0.1410   -0.5440    1.7350 c3        1 GLK      0.334900
      4 CB          0.0910    0.6500   -0.4240 c3        1 GLK     -0.095400
      5 CG          0.5440    0.2380   -1.8080 c3        1 GLK     -0.206400
      6 CD          0.9970    1.4610   -2.5750 c         1 GLK      0.912600
      7 OE1         2.2050    1.8120   -2.5430 o         1 GLK     -0.845800
      8 OE2         0.1650    2.1280   -3.2450 o         1 GLK     -0.845800
      9 O           0.0790   -1.8400    2.2830 oh        1 GLK     -0.629300
     10 H          -2.1290   -1.3380    0.7250 hn        1 GLK      0.347800
     11 H2         -2.1550   -0.4570   -0.4830 hn        1 GLK      0.347800
     12 HA         -0.0990   -1.3760   -0.1290 h1        1 GLK      0.064700
     13 HB2        -0.6330    1.3030   -0.4990 hc        1 GLK      0.061200
     14 HB3         0.8420    1.0480    0.0600 hc        1 GLK      0.061200
     15 HG2        -0.1990   -0.1870   -2.2810 hc        1 GLK      0.018700
     16 HG3         1.2870   -0.3930   -1.7330 hc        1 GLK      0.018700
     17 H1          0.8370   -2.0170    2.7130 ho        1 GLK      0.402500
     18 OXT        -0.6290    0.3350    2.5230 oh        1 GLK     -0.629300
     19 H10         1.0710   -0.2390    1.7210 h2        1 GLK      0.107700
     20 HXT        -0.1850    0.5310    3.2680 ho        1 GLK      0.402500
@<TRIPOS>BOND
     1    1    2 1   
     2    1   10 1   
     3    1   11 1   
     4    2    3 1   
     5    2    4 1   
     6    2   12 1   
     7    3    9 1   
     8    3   18 1   
     9    3   19 1   
    10    4    5 1   
    11    4   13 1   
    12    4   14 1   
    13    5    6 1   
    14    5   15 1   
    15    5   16 1   
    16    6    7 1   
    17    6    8 1   
    18    9   17 1   
    19   18   20 1   
@<TRIPOS>SUBSTRUCTURE
     1 GLK         1 TEMP              0 ****  ****    0 ROOT
