@<TRIPOS>MOLECULE
GLL
   16    17     1     0     0
SMALL
bcc


@<TRIPOS>ATOM
      1 C1         -0.0280   -0.0540   -0.0410 c         1 GLL      0.769500
      2 O1         -0.7060    0.0040   -1.0820 o         1 GLL     -0.616500
      3 N1          1.3890   -0.1450   -0.0050 n         1 GLL     -0.568900
      4 N2         -0.5690   -0.1430    1.2700 n         1 GLL     -0.568900
      5 C2          1.8710   -0.0120    1.3650 c3        1 GLL      0.208100
      6 C3          0.4890   -0.0110    2.2640 c3        1 GLL      0.208100
      7 N1'         2.5460    1.2150    1.7700 n         1 GLL     -0.568900
      8 N2'         0.5880    1.2170    3.0440 n         1 GLL     -0.568900
      9 C1'         1.7050    1.9840    2.6180 c         1 GLL      0.769500
     10 O1'         1.9590    3.1380    3.0070 o         1 GLL     -0.616500
     11 HN1         1.9050    0.2150   -0.7700 hn        1 GLL      0.330500
     12 HN2        -1.4770    0.2190    1.4310 hn        1 GLL      0.330500
     13 H2          2.5240   -0.8930    1.6140 h2        1 GLL      0.114700
     14 H3          0.4510   -0.8910    2.9640 h2        1 GLL      0.114700
     15 HN1'        3.1600    1.6920    1.1560 hn        1 GLL      0.330500
     16 HN2'       -0.2220    1.6950    3.3580 hn        1 GLL      0.330500
@<TRIPOS>BOND
     1    1    2 2   
     2    1    3 1   
     3    1    4 1   
     4    3    5 1   
     5    3   11 1   
     6    4    6 1   
     7    4   12 1   
     8    5    6 1   
     9    5    7 1   
    10    5   13 1   
    11    6    8 1   
    12    6   14 1   
    13    7    9 1   
    14    7   15 1   
    15    8    9 1   
    16    8   16 1   
    17    9   10 2   
@<TRIPOS>SUBSTRUCTURE
     1 GLL         1 TEMP              0 ****  ****    0 ROOT
