@<TRIPOS>MOLECULE
GLL
   16    17     1     0     0
SMALL
bcc


@<TRIPOS>ATOM
      1 C1         -0.0010    0.2190   -1.8860 c         1 GLL      0.769500
      2 O1         -0.0030    0.9380   -2.9000 o         1 GLL     -0.616500
      3 N1          1.1690   -0.2880   -1.2590 n         1 GLL     -0.568900
      4 N2         -1.1670   -0.2930   -1.2580 n         1 GLL     -0.568900
      5 C2          0.8270   -0.9400    0.0000 c3        1 GLL      0.208100
      6 C3         -0.8220   -0.9430    0.0010 c3        1 GLL      0.208100
      7 N1'         1.1700   -0.2880    1.2580 n         1 GLL     -0.568900
      8 N2'        -1.1660   -0.2930    1.2600 n         1 GLL     -0.568900
      9 C1'         0.0010    0.2200    1.8870 c         1 GLL      0.769500
     10 O1'        -0.0000    0.9390    2.9000 o         1 GLL     -0.616500
     11 HN1         2.0170    0.2120   -1.3670 hn        1 GLL      0.330500
     12 HN2        -2.0180    0.2030   -1.3650 hn        1 GLL      0.330500
     13 H2          1.2420   -1.9850    0.0000 h2        1 GLL      0.114700
     14 H3         -1.2320   -1.9910    0.0010 h2        1 GLL      0.114700
     15 HN1'        2.0180    0.2120    1.3660 hn        1 GLL      0.330500
     16 HN2'       -2.0170    0.2040    1.3670 hn        1 GLL      0.330500
@<TRIPOS>BOND
     1    1    2 2   
     2    1    3 1   
     3    1    4 1   
     4    3    5 1   
     5    3   11 1   
     6    4    6 1   
     7    4   12 1   
     8    5    6 1   
     9    5    7 1   
    10    5   13 1   
    11    6    8 1   
    12    6   14 1   
    13    7    9 1   
    14    7   15 1   
    15    8    9 1   
    16    8   16 1   
    17    9   10 2   
@<TRIPOS>SUBSTRUCTURE
     1 GLL         1 TEMP              0 ****  ****    0 ROOT
