@<TRIPOS>MOLECULE
GLL
   16    16     1     0     0
SMALL
bcc


@<TRIPOS>ATOM
      1 C1         -0.8390   -0.4620   -1.4000 c1        1 GLL      0.360000
      2 O1         -1.5530   -0.2860   -2.3670 o         1 GLL     -0.341000
      3 N1          0.2570   -0.4620   -1.4000 n2        1 GLL     -0.378000
      4 N2         -1.2930   -0.4940    0.0550 n3        1 GLL     -0.378000
      5 C2          0.6440   -0.4620   -0.1270 c3        1 GLL      0.094000
      6 C3         -0.4740   -0.3990    0.6450 c3        1 GLL      0.094000
      7 N1'         1.3510    0.5850    0.1180 n         1 GLL     -0.378000
      8 N2'        -0.4820    0.4530    1.1360 n         1 GLL     -0.378000
      9 C1'         0.8010    1.1770    0.8460 c2        1 GLL      0.360000
     10 O1'         1.2220    2.1490    1.4390 o         1 GLL     -0.341000
     11 HN1         0.7930   -0.3180   -2.1230 hn        1 GLL      0.244000
     12 HN2        -2.1520   -0.5900    0.3440 hn        1 GLL      0.244000
     13 H2          1.1520   -1.2700    0.0750 h2        1 GLL      0.154000
     14 H3         -0.4580   -1.1350    1.2870 h2        1 GLL      0.154000
     15 HN1'        2.1650    0.7850   -0.2400 hn        1 GLL      0.244000
     16 HN2'       -1.1320    0.7290    1.7130 hn        1 GLL      0.244000
@<TRIPOS>BOND
     1    1    2 1   
     2    1    4 1   
     3    3    5 1   
     4    3   11 1   
     5    4    6 1   
     6    4   12 1   
     7    5    6 1   
     8    5    7 1   
     9    5   13 1   
    10    6    8 1   
    11    6   14 1   
    12    7    9 1   
    13    7   15 1   
    14    8    9 1   
    15    8   16 1   
    16    9   10 1   
@<TRIPOS>SUBSTRUCTURE
     1 GLL         1 TEMP              0 ****  ****    0 ROOT
