@<TRIPOS>MOLECULE
GLM
   12    11     1     0     0
SMALL
bcc


@<TRIPOS>ATOM
      1 N          -1.8310    0.0030   -0.7590 n3        1 GLM     -0.888800
      2 CA         -0.4050   -0.0050   -0.7510 c3        1 GLM      0.053800
      3 C           0.0910    0.0040    0.6780 c         1 GLM      0.521100
      4 O          -0.7040    0.0250    1.5970 o         1 GLM     -0.537100
      5 CM          1.5770   -0.0130    0.9640 c3        1 GLM     -0.203100
      6 H          -2.1370   -0.7170   -1.2350 hn        1 GLM      0.355800
      7 H2         -2.1300    0.7760   -1.1480 hn        1 GLM      0.355800
      8 HA1        -0.0720    0.7900   -1.2170 h1        1 GLM      0.073700
      9 HA2        -0.0800   -0.8100   -1.2040 h1        1 GLM      0.073700
     10 HM1         1.9710   -0.8290    0.5910 hc        1 GLM      0.065033
     11 HM2         1.9970    0.7700    0.5520 hc        1 GLM      0.065033
     12 HM3         1.7240    0.0070    1.9320 hc        1 GLM      0.065033
@<TRIPOS>BOND
     1    1    2 1   
     2    1    6 1   
     3    1    7 1   
     4    2    3 1   
     5    2    8 1   
     6    2    9 1   
     7    3    4 2   
     8    3    5 1   
     9    5   10 1   
    10    5   11 1   
    11    5   12 1   
@<TRIPOS>SUBSTRUCTURE
     1 GLM         1 TEMP              0 ****  ****    0 ROOT
