@<TRIPOS>MOLECULE
GLM
   12    11     1     0     0
SMALL
bcc


@<TRIPOS>ATOM
      1 N          -0.3210    0.0460   -2.0380 n3        1 GLM     -0.888800
      2 CA         -0.8460   -0.1210   -0.7120 c3        1 GLM      0.053800
      3 C           0.0530    0.2660    0.4500 c         1 GLM      0.521100
      4 O           1.1940    0.7090    0.2820 o         1 GLM     -0.537100
      5 CM         -0.5440    0.0700    1.8040 c3        1 GLM     -0.203100
      6 H           0.5070   -0.5060   -2.1630 hn        1 GLM      0.355800
      7 H2         -0.0860    1.0060   -2.2080 hn        1 GLM      0.355800
      8 HA1        -1.1250   -1.2060   -0.5760 h1        1 GLM      0.073700
      9 HA2        -1.7910    0.4890   -0.6250 h1        1 GLM      0.073700
     10 HM1         0.1730    0.3750    2.6040 hc        1 GLM      0.065033
     11 HM2        -1.4740    0.6830    1.8990 hc        1 GLM      0.065033
     12 HM3        -0.8110   -1.0050    1.9480 hc        1 GLM      0.065033
@<TRIPOS>BOND
     1    1    2 1   
     2    1    6 1   
     3    1    7 1   
     4    2    3 1   
     5    2    8 1   
     6    2    9 1   
     7    3    4 2   
     8    3    5 1   
     9    5   10 1   
    10    5   11 1   
    11    5   12 1   
@<TRIPOS>SUBSTRUCTURE
     1 GLM         1 TEMP              0 ****  ****    0 ROOT
