@<TRIPOS>MOLECULE
GLN
   19    18     1     0     0
SMALL
bcc


@<TRIPOS>ATOM
      1 N           1.5580   -0.8820    1.2600 n3        1 GLN     -0.892800
      2 CA          0.7770    0.2990    0.9170 c3        1 GLN      0.018500
      3 C          -0.2960    0.6990    1.9860 c         1 GLN      0.887600
      4 O          -0.2770    0.0960    3.0970 o         1 GLN     -0.841300
      5 CB          0.0740    0.1900   -0.4380 c3        1 GLN     -0.073400
      6 CG          1.0520    0.1020   -1.5840 c3        1 GLN     -0.142400
      7 CD          0.4420    0.0600   -2.9680 c         1 GLN      0.656100
      8 OE1         1.1580   -0.0790   -3.9880 o         1 GLN     -0.667100
      9 NE2        -0.9170    0.1670   -3.1330 n         1 GLN     -0.679000
     10 OXT        -1.1100    1.6150    1.6820 o         1 GLN     -0.841300
     11 H           1.8160   -0.7950    2.2290 hn        1 GLN      0.332800
     12 H2          0.9590   -1.6880    1.2010 hn        1 GLN      0.332800
     13 HA          1.5070    1.1600    0.8670 h1        1 GLN      0.042700
     14 HB2        -0.6040   -0.7030   -0.4380 hc        1 GLN      0.050700
     15 HB3        -0.5670    1.1100   -0.5300 hc        1 GLN      0.050700
     16 HG2         1.7440    0.9860   -1.5620 hc        1 GLN      0.075700
     17 HG3         1.6880   -0.8190   -1.4800 hc        1 GLN      0.075700
     18 HE21       -1.3000    0.1740   -4.0430 hn        1 GLN      0.307500
     19 HE22       -1.5140    0.3250   -2.3610 hn        1 GLN      0.307500
@<TRIPOS>BOND
     1    1    2 1   
     2    1   11 1   
     3    1   12 1   
     4    2    3 1   
     5    2    5 1   
     6    2   13 1   
     7    3    4 1   
     8    3   10 1   
     9    5    6 1   
    10    5   14 1   
    11    5   15 1   
    12    6    7 1   
    13    6   16 1   
    14    6   17 1   
    15    7    8 2   
    16    7    9 1   
    17    9   18 1   
    18    9   19 1   
@<TRIPOS>SUBSTRUCTURE
     1 GLN         1 TEMP              0 ****  ****    0 ROOT
