@<TRIPOS>MOLECULE
GLO
   24    22     1     0     0
SMALL
bcc


@<TRIPOS>ATOM
      1 C1         -2.8020   -0.7330   -1.6540 c1        1 GLO      0.158000
      2 C2         -1.2910   -0.6780   -1.6490 c2        1 GLO     -0.062000
      3 C3         -0.7910   -0.6770   -0.2220 c3        1 GLO     -0.019000
      4 C4          0.5190    0.0730   -0.1470 c3        1 GLO      0.004000
      5 C5          0.6690    0.6880    1.2260 c3        1 GLO      0.004000
      6 C6          2.0510    1.2870    1.3610 c3        1 GLO     -0.056000
      7 O1         -3.3710   -1.8010   -1.7840 o         1 GLO     -0.277000
      8 O2         -0.7780   -1.8010   -2.3250 oh        1 GLO     -0.313000
      9 O3         -0.5980   -2.0040    0.2080 oh        1 GLO     -0.323000
     10 O4          1.5840   -0.8180   -0.3820 oh        1 GLO     -0.321000
     11 O5         -0.2980    1.6960    1.3970 oh        1 GLO     -0.346000
     12 O6          2.1770    1.8970    2.6260 oh        1 GLO     -0.343000
     13 H1         -3.3210    0.0890   -1.5520 ha        1 GLO      0.125000
     14 H2         -0.9930    0.1380   -2.0980 h4        1 GLO      0.139000
     15 H3         -1.4500   -0.2410    0.3540 h1        1 GLO      0.131000
     16 H4          0.5290    0.7790   -0.8230 h1        1 GLO      0.125000
     17 H5          0.5450   -0.0020    1.9070 h1        1 GLO      0.094000
     18 H61         2.1860    1.9580    0.6600 h1        1 GLO      0.086000
     19 H62         2.7240    0.5800    1.2700 h1        1 GLO      0.086000
     20 HO2        -0.7180   -1.6220   -3.1940 ho        1 GLO      0.224000
     21 HO3        -1.1730   -2.1910    0.8600 ho        1 GLO      0.226000
     22 HO4         2.0820   -0.5140   -1.0530 ho        1 GLO      0.219000
     23 HO5        -0.5070    1.7630    2.2580 ho        1 GLO      0.229000
     24 HO6         3.0240    2.1360    2.7570 ho        1 GLO      0.212000
@<TRIPOS>BOND
     1    1    7 1   
     2    1   13 1   
     3    2    3 1   
     4    2    8 1   
     5    2   14 1   
     6    3    4 1   
     7    3    9 1   
     8    3   15 1   
     9    4    5 1   
    10    4   10 1   
    11    4   16 1   
    12    5    6 1   
    13    5   11 1   
    14    5   17 1   
    15    6   12 1   
    16    6   18 1   
    17    6   19 1   
    18    8   20 1   
    19    9   21 1   
    20   10   22 1   
    21   11   23 1   
    22   12   24 1   
@<TRIPOS>SUBSTRUCTURE
     1 GLO         1 TEMP              0 ****  ****    0 ROOT
