@<TRIPOS>MOLECULE
GLO
   24    23     1     0     0
SMALL
bcc


@<TRIPOS>ATOM
      1 C1         -0.6600    0.8770   -2.3390 c         1 GLO      0.560900
      2 C2          0.4780   -0.0540   -1.9740 c3        1 GLO     -0.011900
      3 C3          0.1920   -0.7820   -0.6490 c3        1 GLO      0.091100
      4 C4          0.4990    0.1330    0.5520 c3        1 GLO      0.084100
      5 C5         -0.6180    0.0250    1.6030 c3        1 GLO      0.109100
      6 C6         -0.2450    0.8070    2.8680 c3        1 GLO      0.097400
      7 O1         -1.0870    1.7310   -1.5600 o         1 GLO     -0.546100
      8 O2          0.7050   -0.9530   -3.0430 oh        1 GLO     -0.590800
      9 O3          0.9380   -1.9800   -0.6000 oh        1 GLO     -0.594800
     10 O4          1.7720   -0.1900    1.0740 oh        1 GLO     -0.599800
     11 O5         -1.8530    0.4740    1.0880 oh        1 GLO     -0.587800
     12 O6          0.6110   -0.0400    3.6190 oh        1 GLO     -0.610800
     13 H1         -1.0670    0.7450   -3.3660 h4        1 GLO      0.023200
     14 H2          1.4270    0.5540   -1.8900 h1        1 GLO      0.096700
     15 H3         -0.8850   -1.1170   -0.6190 h1        1 GLO      0.099700
     16 H4          0.5840    1.2030    0.2030 h1        1 GLO      0.085700
     17 H5         -0.7950   -1.0560    1.8720 h1        1 GLO      0.099700
     18 H61        -1.1720    1.0360    3.4580 h1        1 GLO      0.041200
     19 H62         0.2800    1.7630    2.6050 h1        1 GLO      0.041200
     20 HO2         0.3770   -1.8250   -2.7790 ho        1 GLO      0.424000
     21 HO3         1.8720   -1.7390   -0.5130 ho        1 GLO      0.424000
     22 HO4         1.6490   -0.8390    1.7840 ho        1 GLO      0.431000
     23 HO5        -1.7070    1.3350    0.6680 ho        1 GLO      0.420000
     24 HO6         0.9640    0.4900    4.3430 ho        1 GLO      0.412000
@<TRIPOS>BOND
     1    1    2 1   
     2    1    7 2   
     3    1   13 1   
     4    2    3 1   
     5    2    8 1   
     6    2   14 1   
     7    3    4 1   
     8    3    9 1   
     9    3   15 1   
    10    4    5 1   
    11    4   10 1   
    12    4   16 1   
    13    5    6 1   
    14    5   11 1   
    15    5   17 1   
    16    6   12 1   
    17    6   18 1   
    18    6   19 1   
    19    8   20 1   
    20    9   21 1   
    21   10   22 1   
    22   11   23 1   
    23   12   24 1   
@<TRIPOS>SUBSTRUCTURE
     1 GLO         1 TEMP              0 ****  ****    0 ROOT
