@<TRIPOS>MOLECULE
GLP
   28    28     1     0     0
SMALL
bcc


@<TRIPOS>ATOM
      1 C1         -0.4720    0.0850   -1.7160 c3        1 GLP      0.344900
      2 C2          1.0330    0.1620   -1.7650 c3        1 GLP      0.084500
      3 C3          1.6390    0.2170   -0.4050 c3        1 GLP      0.160100
      4 C4          1.1450   -0.8760    0.4760 c3        1 GLP      0.016100
      5 C5         -0.3630   -0.9490    0.5080 c3        1 GLP      0.091100
      6 C6         -0.9000    0.2730    1.2280 c3        1 GLP      0.215400
      7 O1         -0.9610   -0.1300   -3.0140 oh        1 GLP     -0.617800
      8 N2          1.5350   -1.0060   -2.4550 n3        1 GLP     -0.897800
      9 O3          1.3150    1.5040    0.2060 oh        1 GLP     -0.668800
     10 O4          1.6720   -2.1470   -0.0020 oh        1 GLP     -0.652800
     11 O5         -0.9550   -0.9990   -0.8350 os        1 GLP     -0.482600
     12 O6         -1.8070   -0.1400    2.2650 os        1 GLP     -0.569200
     13 P          -2.6190    0.9970    3.0750 p5        1 GLP      1.335900
     14 O1P        -1.7520    2.2190    3.2330 o         1 GLP     -0.924167
     15 O2P        -3.8530    1.3610    2.3200 o         1 GLP     -0.924167
     16 O3P        -2.9940    0.4730    4.4260 o         1 GLP     -0.924167
     17 H1         -0.8140    0.9230   -1.3900 h2        1 GLP      0.100700
     18 H2          1.3080    0.9990   -2.2830 h1        1 GLP      0.057700
     19 H3          2.5970    0.1420   -0.4860 h1        1 GLP      0.012700
     20 H4          1.4840   -0.7130    1.4190 h1        1 GLP      0.192700
     21 H5         -0.6350   -1.7630    1.0080 h1        1 GLP      0.055700
     22 H61        -1.3930    0.8690    0.5600 h1        1 GLP      0.001700
     23 H62        -0.1490    0.7800    1.6290 h1        1 GLP      0.001700
     24 HO1        -1.7320    0.3240   -3.1240 ho        1 GLP      0.402000
     25 HN21        2.4240   -0.9100   -2.6070 hn        1 GLP      0.340300
     26 HN22        1.0980   -1.1000   -3.2520 hn        1 GLP      0.340300
     27 HO3         2.0540    1.9750    0.3080 ho        1 GLP      0.509000
     28 HO4         2.0980   -2.5690    0.6740 ho        1 GLP      0.401000
@<TRIPOS>BOND
     1    1    2 1   
     2    1    7 1   
     3    1   11 1   
     4    1   17 1   
     5    2    3 1   
     6    2    8 1   
     7    2   18 1   
     8    3    4 1   
     9    3    9 1   
    10    3   19 1   
    11    4    5 1   
    12    4   10 1   
    13    4   20 1   
    14    5    6 1   
    15    5   11 1   
    16    5   21 1   
    17    6   12 1   
    18    6   22 1   
    19    6   23 1   
    20    7   24 1   
    21    8   25 1   
    22    8   26 1   
    23    9   27 1   
    24   10   28 1   
    25   12   13 1   
    26   13   14 1   
    27   13   15 1   
    28   13   16 1   
@<TRIPOS>SUBSTRUCTURE
     1 GLP         1 TEMP              0 ****  ****    0 ROOT
