@<TRIPOS>MOLECULE
GLP
   28    28     1     0     0
SMALL
bcc


@<TRIPOS>ATOM
      1 C1          1.1770    0.9810    1.7310 c3        1 GLP      0.335900
      2 C2          0.4500    0.6540    3.0770 c3        1 GLP      0.082500
      3 C3         -0.7120   -0.3440    2.8740 c3        1 GLP      0.105100
      4 C4         -1.5320   -0.0360    1.5990 c3        1 GLP      0.125100
      5 C5         -0.5360   -0.0070    0.4280 c3        1 GLP      0.087100
      6 C6         -1.0720    0.1490   -1.0220 c3        1 GLP      0.246400
      7 O1          2.0880   -0.0240    1.4040 oh        1 GLP     -0.714800
      8 N2          1.3570    0.2080    4.1270 n3        1 GLP     -0.905800
      9 O3         -1.6290   -0.2780    3.9650 oh        1 GLP     -0.638800
     10 O4         -2.4990   -1.0500    1.3980 oh        1 GLP     -0.575800
     11 O5          0.2700    1.1550    0.6750 os        1 GLP     -0.410600
     12 O6         -0.5530   -0.8130   -1.8410 os        1 GLP     -0.560200
     13 P           0.9280   -0.3830   -2.6620 p5        1 GLP      1.338900
     14 O1P         1.8600   -0.3710   -1.4660 o         1 GLP     -0.932500
     15 O2P         1.1150   -1.5080   -3.6350 o         1 GLP     -0.932500
     16 O3P         0.5880    0.9650   -3.2300 o         1 GLP     -0.932500
     17 H1          1.7090    1.9730    1.8340 h2        1 GLP      0.027700
     18 H2         -0.0130    1.6240    3.4280 h1        1 GLP      0.047700
     19 H3         -0.3160   -1.3970    2.7950 h1        1 GLP      0.053700
     20 H4         -2.0460    0.9570    1.7150 h1        1 GLP      0.029700
     21 H5          0.0890   -0.9440    0.4670 h1        1 GLP      0.095700
     22 H61        -2.1930    0.0380   -0.9660 h1        1 GLP      0.010200
     23 H62        -0.7990    1.1790   -1.3950 h1        1 GLP      0.010200
     24 HO1         2.0980   -0.1380    0.4080 ho        1 GLP      0.544000
     25 HN21        1.7380   -0.6840    3.8590 hn        1 GLP      0.341300
     26 HN22        2.1270    0.8520    4.1690 hn        1 GLP      0.341300
     27 HO3        -1.1140   -0.3880    4.7710 ho        1 GLP      0.398000
     28 HO4        -3.0250   -1.0740    2.2070 ho        1 GLP      0.379000
@<TRIPOS>BOND
     1    1    2 1   
     2    1    7 1   
     3    1   11 1   
     4    1   17 1   
     5    2    3 1   
     6    2    8 1   
     7    2   18 1   
     8    3    4 1   
     9    3    9 1   
    10    3   19 1   
    11    4    5 1   
    12    4   10 1   
    13    4   20 1   
    14    5    6 1   
    15    5   11 1   
    16    5   21 1   
    17    6   12 1   
    18    6   22 1   
    19    6   23 1   
    20    7   24 1   
    21    8   25 1   
    22    8   26 1   
    23    9   27 1   
    24   10   28 1   
    25   12   13 1   
    26   13   14 1   
    27   13   15 1   
    28   13   16 1   
@<TRIPOS>SUBSTRUCTURE
     1 GLP         1 TEMP              0 ****  ****    0 ROOT
