@<TRIPOS>MOLECULE
GLQ
   17    16     1     0     0
SMALL
bcc


@<TRIPOS>ATOM
      1 N          -1.8270    1.5950   -0.1710 n3        1 GLQ     -0.900800
      2 CA         -1.4680    0.3210    0.4280 c3        1 GLQ      0.039500
      3 C          -2.5370   -0.7430    0.2790 c         1 GLQ      0.574900
      4 O          -3.4640   -0.7140   -0.5330 o         1 GLQ     -0.559100
      5 CB         -0.1480   -0.3050   -0.0580 c3        1 GLQ     -0.096400
      6 CG          1.0400    0.5860    0.2030 c3        1 GLQ     -0.203400
      7 CD          2.3560   -0.2190    0.1800 c         1 GLQ      0.911600
      8 OE1         2.3610   -1.3750    0.6940 o         1 GLQ     -0.845300
      9 OE2         3.3670    0.3340   -0.3360 o         1 GLQ     -0.845300
     10 H          -0.9970    2.1500   -0.2770 hn        1 GLQ      0.349300
     11 H2         -2.2280    1.4460   -1.0790 hn        1 GLQ      0.349300
     12 HA         -1.3610    0.5230    1.5390 h1        1 GLQ      0.072700
     13 HXT        -2.4040   -1.6040    0.9740 h4        1 GLQ     -0.009800
     14 HB1         0.0170   -1.2780    0.4810 hc        1 GLQ      0.056700
     15 HB2        -0.2200   -0.5320   -1.1530 hc        1 GLQ      0.056700
     16 HG1         1.1020    1.4030   -0.5570 hc        1 GLQ      0.023700
     17 HG2         0.9560    1.0600    1.2140 hc        1 GLQ      0.023700
@<TRIPOS>BOND
     1    1    2 1   
     2    1   10 1   
     3    1   11 1   
     4    2    3 1   
     5    2    5 1   
     6    2   12 1   
     7    3    4 2   
     8    3   13 1   
     9    5    6 1   
    10    5   14 1   
    11    5   15 1   
    12    6    7 1   
    13    6   16 1   
    14    6   17 1   
    15    7    8 1   
    16    7    9 1   
@<TRIPOS>SUBSTRUCTURE
     1 GLQ         1 TEMP              0 ****  ****    0 ROOT
