@<TRIPOS>MOLECULE
GLQ
   17    16     1     0     0
SMALL
bcc


@<TRIPOS>ATOM
      1 N          -1.9530    0.6980    0.6600 n3        1 GLQ     -0.894800
      2 CA         -0.5310    0.6980    0.6600 c3        1 GLQ      0.033500
      3 C          -0.0270    0.6980    2.0850 c         1 GLQ      0.588900
      4 O          -0.4480   -0.1220    2.8790 o         1 GLQ     -0.552100
      5 CB         -0.0270   -0.5360   -0.0520 c3        1 GLQ     -0.096400
      6 CG          0.8520   -0.1250   -1.2130 c3        1 GLQ     -0.204400
      7 CD          1.3860   -1.3600   -1.9030 c         1 GLQ      0.911600
      8 OE1         2.4810   -1.8630   -1.5360 o         1 GLQ     -0.844300
      9 OE2         0.7370   -1.8850   -2.8450 o         1 GLQ     -0.844300
     10 H          -2.2570    1.2000    1.3590 hn        1 GLQ      0.344300
     11 H2         -2.2570    1.0520   -0.1230 hn        1 GLQ      0.344300
     12 HA         -0.2050    1.4950    0.2000 h1        1 GLQ      0.076700
     13 HXT         0.6190    1.3710    2.3740 h4        1 GLQ     -0.017800
     14 HB1        -0.7860   -1.0520   -0.3860 hc        1 GLQ      0.056700
     15 HB2         0.4900   -1.0830    0.5700 hc        1 GLQ      0.056700
     16 HG1         1.5980    0.4110   -0.8820 hc        1 GLQ      0.021200
     17 HG2         0.3290    0.4020   -1.8470 hc        1 GLQ      0.021200
@<TRIPOS>BOND
     1    1    2 1   
     2    1   10 1   
     3    1   11 1   
     4    2    3 1   
     5    2    5 1   
     6    2   12 1   
     7    3    4 2   
     8    3   13 1   
     9    5    6 1   
    10    5   14 1   
    11    5   15 1   
    12    6    7 1   
    13    6   16 1   
    14    6   17 1   
    15    7    8 1   
    16    7    9 1   
@<TRIPOS>SUBSTRUCTURE
     1 GLQ         1 TEMP              0 ****  ****    0 ROOT
