@<TRIPOS>MOLECULE
GLR
   19    18     1     0     0
SMALL
bcc


@<TRIPOS>ATOM
      1 O1B         3.0920   -0.6910   -1.6410 o         1 GLR     -0.847300
      2 O1A         4.0070    0.0760    0.2470 o         1 GLR     -0.847300
      3 C1          3.0340   -0.0510   -0.5570 c         1 GLR      0.898600
      4 C2          1.7230    0.6830   -0.1830 c3        1 GLR     -0.010900
      5 O2          1.9100    1.5100    0.9590 oh        1 GLR     -0.653800
      6 C3          0.5510   -0.2790    0.0960 c3        1 GLR      0.143100
      7 O3          0.5710   -0.7020    1.4520 oh        1 GLR     -0.606800
      8 C4         -0.7810    0.3910   -0.2380 c3        1 GLR     -0.211400
      9 O5         -1.8890   -1.7420   -0.4620 o         1 GLR     -0.590100
     10 C5         -1.9770   -0.5150   -0.3360 c         1 GLR      0.481100
     11 C6         -3.3220    0.2240   -0.3180 c         1 GLR      0.843600
     12 O6A        -3.8780    0.4260    0.7990 o         1 GLR     -0.838800
     13 O6B        -3.7940    0.6110   -1.4250 o         1 GLR     -0.838800
     14 H21         1.4530    1.3770   -1.0260 h1        1 GLR      0.042700
     15 HO21        2.7280    1.2100    1.3880 ho        1 GLR      0.422000
     16 H31         0.6790   -1.2250   -0.5000 h1        1 GLR      0.098700
     17 HO31        0.5940    0.1010    1.9890 ho        1 GLR      0.390000
     18 H41        -1.0000    1.1720    0.5370 hc        1 GLR      0.062200
     19 H42        -0.6950    0.9080   -1.2320 hc        1 GLR      0.062200
@<TRIPOS>BOND
     1    1    3 1   
     2    2    3 1   
     3    3    4 1   
     4    4    5 1   
     5    4    6 1   
     6    4   14 1   
     7    5   15 1   
     8    6    7 1   
     9    6    8 1   
    10    6   16 1   
    11    7   17 1   
    12    8   10 1   
    13    8   18 1   
    14    8   19 1   
    15    9   10 2   
    16   10   11 1   
    17   11   12 1   
    18   11   13 1   
@<TRIPOS>SUBSTRUCTURE
     1 GLR         1 TEMP              0 ****  ****    0 ROOT
