@<TRIPOS>MOLECULE
GLR
   19    18     1     0     0
SMALL
bcc


@<TRIPOS>ATOM
      1 O1B        -2.2680    1.5120   -2.2660 o         1 GLR     -0.852300
      2 O1A        -0.3660    1.3880   -3.3260 o         1 GLR     -0.852300
      3 C1         -1.0120    1.4330   -2.2460 c         1 GLR      0.888600
      4 C2         -0.2780    1.3930   -0.9250 c3        1 GLR     -0.010900
      5 O2          0.9550    2.0610   -1.0520 oh        1 GLR     -0.625800
      6 C3         -0.0330   -0.0450   -0.5280 c3        1 GLR      0.132100
      7 O3          1.2440   -0.4420   -0.9670 oh        1 GLR     -0.646800
      8 C4         -0.1110   -0.1720    0.9770 c3        1 GLR     -0.184400
      9 O5         -0.5370   -2.4740    0.6220 o         1 GLR     -0.600100
     10 C5         -0.0630   -1.6350    1.3620 c         1 GLR      0.478100
     11 C6          0.5750   -2.0520    2.6690 c         1 GLR      0.845600
     12 O6A         1.8030   -2.3240    2.7110 o         1 GLR     -0.837300
     13 O6B        -0.1230   -2.1280    3.7140 o         1 GLR     -0.837300
     14 H21        -0.8170    1.8330   -0.2390 h1        1 GLR      0.066700
     15 HO21        0.8810    2.8850   -0.7280 ho        1 GLR      0.406000
     16 H31        -0.7120   -0.6160   -0.9390 h1        1 GLR      0.056700
     17 HO31        1.1660   -1.1370   -1.5170 ho        1 GLR      0.425000
     18 H41        -0.9480    0.2210    1.2950 hc        1 GLR      0.074200
     19 H42         0.6450    0.2970    1.3840 hc        1 GLR      0.074200
@<TRIPOS>BOND
     1    1    3 1   
     2    2    3 1   
     3    3    4 1   
     4    4    5 1   
     5    4    6 1   
     6    4   14 1   
     7    5   15 1   
     8    6    7 1   
     9    6    8 1   
    10    6   16 1   
    11    7   17 1   
    12    8   10 1   
    13    8   18 1   
    14    8   19 1   
    15    9   10 2   
    16   10   11 1   
    17   11   12 1   
    18   11   13 1   
@<TRIPOS>SUBSTRUCTURE
     1 GLR         1 TEMP              0 ****  ****    0 ROOT
