@<TRIPOS>MOLECULE
GLR
   19    18     1     0     0
SMALL
bcc


@<TRIPOS>ATOM
      1 O1B        -0.1040    0.7570    0.3140 o         1 GLR     -0.852300
      2 O1A         1.4930   -0.2560   -0.8760 o         1 GLR     -0.852300
      3 C1          1.0110    0.1780    0.2170 c         1 GLR      0.888600
      4 C2          1.8860   -0.0170    1.4800 c3        1 GLR     -0.010900
      5 O2          3.2200    0.3840    1.1920 oh        1 GLR     -0.625800
      6 C3          1.8600   -1.4870    1.9410 c3        1 GLR      0.132100
      7 O3          2.4400   -2.3310    0.9460 oh        1 GLR     -0.646800
      8 C4          2.6600   -1.7100    3.2210 c3        1 GLR     -0.184400
      9 O5          0.7610   -2.7900    4.2510 o         1 GLR     -0.600100
     10 C5          1.9400   -2.4210    4.3320 c         1 GLR      0.478100
     11 C6          2.7930   -2.6520    5.5870 c         1 GLR      0.845600
     12 O6A         3.4600   -3.7220    5.6600 o         1 GLR     -0.837300
     13 O6B         2.7950   -1.7530    6.4750 o         1 GLR     -0.837300
     14 H21         1.5460    0.6540    2.3100 h1        1 GLR      0.066700
     15 HO21        3.4370   -0.0300    0.3440 ho        1 GLR      0.406000
     16 H31         0.7860   -1.7950    2.0920 h1        1 GLR      0.056700
     17 HO31        2.1180   -2.0150    0.0880 ho        1 GLR      0.425000
     18 H41         3.0090   -0.7210    3.6220 hc        1 GLR      0.074200
     19 H42         3.5760   -2.3170    2.9810 hc        1 GLR      0.074200
@<TRIPOS>BOND
     1    1    3 1   
     2    2    3 1   
     3    3    4 1   
     4    4    5 1   
     5    4    6 1   
     6    4   14 1   
     7    5   15 1   
     8    6    7 1   
     9    6    8 1   
    10    6   16 1   
    11    7   17 1   
    12    8   10 1   
    13    8   18 1   
    14    8   19 1   
    15    9   10 2   
    16   10   11 1   
    17   11   12 1   
    18   11   13 1   
@<TRIPOS>SUBSTRUCTURE
     1 GLR         1 TEMP              0 ****  ****    0 ROOT
