@<TRIPOS>MOLECULE
GLS
   29    30     1     0     0
SMALL
bcc


@<TRIPOS>ATOM
      1 C1         -0.0320   -0.3130   -0.6900 c3        1 GLS      0.212200
      2 C2         -1.4550   -0.5520   -0.1230 c3        1 GLS      0.153100
      3 O2         -2.3720   -0.0190   -1.0600 oh        1 GLS     -0.585800
      4 C3         -1.6130    0.1520    1.2350 c3        1 GLS      0.100100
      5 O3         -2.8840   -0.2340    1.7280 oh        1 GLS     -0.605800
      6 C4         -0.4940   -0.2980    2.1860 c3        1 GLS      0.084100
      7 O4         -0.6850    0.4470    3.3770 oh        1 GLS     -0.591800
      8 C5          0.8590    0.0130    1.5360 c3        1 GLS      0.068100
      9 C6          2.0290   -0.5310    2.3640 c3        1 GLS      0.136400
     10 O6          3.2690   -0.1300    1.8310 oh        1 GLS     -0.584800
     11 O5          0.9700   -0.6550    0.2740 os        1 GLS     -0.438600
     12 N2          0.2340   -1.1260   -1.8910 n         1 GLS     -0.492900
     13 C8          0.7100   -0.2620   -2.9280 c         1 GLS      0.789500
     14 O8          1.1100   -0.6250   -4.0420 o         1 GLS     -0.589500
     15 N1          0.6130    1.0950   -2.5080 n         1 GLS     -0.599500
     16 C7          0.1600    1.1720   -1.1880 c         1 GLS      0.696500
     17 O7         -0.0250    2.2010   -0.5380 o         1 GLS     -0.571500
     18 H2         -1.6290   -1.6580    0.0020 h1        1 GLS      0.074700
     19 HO2        -3.2490   -0.1000   -0.6570 ho        1 GLS      0.433000
     20 H3         -1.5730    1.2710    1.1010 h1        1 GLS      0.092700
     21 HO3        -2.9850    0.1940    2.5890 ho        1 GLS      0.431000
     22 H4         -0.5840   -1.3990    2.3980 h1        1 GLS      0.060700
     23 HO4        -0.0540    0.1130    4.0270 ho        1 GLS      0.412000
     24 H5          0.9690    1.1240    1.3800 h1        1 GLS      0.099700
     25 H61         1.9680   -1.6500    2.4240 h1        1 GLS      0.056200
     26 H62         1.9980   -0.0840    3.3940 h1        1 GLS      0.056200
     27 HO6         3.3170   -0.4720    0.9280 ho        1 GLS      0.414000
     28 HN2         0.7340   -1.9760   -1.7530 hn        1 GLS      0.326500
     29 HN1         0.7280    1.8590   -3.1250 hn        1 GLS      0.362500
@<TRIPOS>BOND
     1    1    2 1   
     2    1   11 1   
     3    1   12 1   
     4    1   16 1   
     5    2    3 1   
     6    2    4 1   
     7    2   18 1   
     8    3   19 1   
     9    4    5 1   
    10    4    6 1   
    11    4   20 1   
    12    5   21 1   
    13    6    7 1   
    14    6    8 1   
    15    6   22 1   
    16    7   23 1   
    17    8    9 1   
    18    8   11 1   
    19    8   24 1   
    20    9   10 1   
    21    9   25 1   
    22    9   26 1   
    23   10   27 1   
    24   12   13 1   
    25   12   28 1   
    26   13   14 2   
    27   13   15 1   
    28   15   16 1   
    29   15   29 1   
    30   16   17 2   
@<TRIPOS>SUBSTRUCTURE
     1 GLS         1 TEMP              0 ****  ****    0 ROOT
