@<TRIPOS>MOLECULE
GLS
   29    30     1     0     0
SMALL
bcc


@<TRIPOS>ATOM
      1 C1          1.1700    0.1090    0.3050 c3        1 GLS      0.167200
      2 C2          0.6750    1.3120   -0.4830 c3        1 GLS      0.113100
      3 O2          1.0380    2.5110    0.2240 oh        1 GLS     -0.592800
      4 C3         -0.8030    1.3830   -0.5290 c3        1 GLS      0.101100
      5 O3         -1.1940    2.4440   -1.4450 oh        1 GLS     -0.604800
      6 C4         -1.4150    0.1010   -0.9860 c3        1 GLS      0.123100
      7 O4         -2.8360    0.1870   -0.8360 oh        1 GLS     -0.590800
      8 C5         -0.9070   -1.0980   -0.1950 c3        1 GLS      0.141100
      9 C6         -1.4260   -2.3530   -0.8310 c3        1 GLS      0.135400
     10 O6         -0.9600   -3.4780   -0.1050 oh        1 GLS     -0.594800
     11 O5          0.5540   -1.1600   -0.1480 os        1 GLS     -0.418600
     12 N2          2.5740    0.1090    0.3050 n         1 GLS     -0.499900
     13 C8          3.0180    0.1090    1.6720 c         1 GLS      0.778500
     14 O8          4.1740    0.0290    2.0500 o         1 GLS     -0.587500
     15 N1          1.8660    0.1090    2.5100 n         1 GLS     -0.604500
     16 C7          0.7270    0.1090    1.6850 c         1 GLS      0.692500
     17 O7         -0.4280    0.0830    2.0650 o         1 GLS     -0.562500
     18 H2          1.0500    1.3150   -1.3840 h1        1 GLS      0.072700
     19 HO2         1.4360    3.0740   -0.3350 ho        1 GLS      0.426000
     20 H3         -1.1380    1.5940    0.3630 h1        1 GLS      0.092700
     21 HO3        -1.6850    3.0430   -1.0110 ho        1 GLS      0.429000
     22 H4         -1.2040   -0.0310   -1.9300 h1        1 GLS      0.057700
     23 HO4        -3.2100    0.3240   -1.6290 ho        1 GLS      0.429000
     24 H5         -1.2490   -1.0410    0.7170 h1        1 GLS      0.104700
     25 H61        -2.4020   -2.3430   -0.8230 h1        1 GLS      0.049200
     26 H62        -1.1090   -2.4070   -1.7520 h1        1 GLS      0.049200
     27 HO6        -1.2930   -4.2200   -0.4630 ho        1 GLS      0.406000
     28 HN2         3.1090    0.0780   -0.4330 hn        1 GLS      0.323500
     29 HN1         1.8670    0.1090    3.4220 hn        1 GLS      0.362500
@<TRIPOS>BOND
     1    1    2 1   
     2    1   11 1   
     3    1   12 1   
     4    1   16 1   
     5    2    3 1   
     6    2    4 1   
     7    2   18 1   
     8    3   19 1   
     9    4    5 1   
    10    4    6 1   
    11    4   20 1   
    12    5   21 1   
    13    6    7 1   
    14    6    8 1   
    15    6   22 1   
    16    7   23 1   
    17    8    9 1   
    18    8   11 1   
    19    8   24 1   
    20    9   10 1   
    21    9   25 1   
    22    9   26 1   
    23   10   27 1   
    24   12   13 1   
    25   12   28 1   
    26   13   14 2   
    27   13   15 1   
    28   15   16 1   
    29   15   29 1   
    30   16   17 2   
@<TRIPOS>SUBSTRUCTURE
     1 GLS         1 TEMP              0 ****  ****    0 ROOT
