@<TRIPOS>MOLECULE
GLT
   24    24     1     0     0
SMALL
bcc


@<TRIPOS>ATOM
      1 C1          1.6080   -0.3140   -0.9030 c3        1 GLT      0.188200
      2 C2          0.3430   -0.5820   -1.7230 c3        1 GLT      0.119100
      3 C3         -0.8570    0.2130   -1.1810 c3        1 GLT      0.070100
      4 C4         -1.2450   -0.2280    0.2430 c3        1 GLT      0.156100
      5 C5         -0.1450    0.1360    1.2360 c3        1 GLT      0.014400
      6 C6         -0.5060   -0.2860    2.6530 c3        1 GLT      0.146400
      7 S5          1.3700   -0.7110    0.8220 ss        1 GLT     -0.328200
      8 O1          1.9710    1.0290   -1.1570 oh        1 GLT     -0.601800
      9 O2          0.5360   -0.2610   -3.0880 oh        1 GLT     -0.596800
     10 O3         -2.0040   -0.0210   -1.9850 oh        1 GLT     -0.610800
     11 O4         -2.4230    0.4440    0.6600 oh        1 GLT     -0.598800
     12 O6         -0.0500    0.7350    3.5280 oh        1 GLT     -0.596800
     13 H1          2.4340   -1.0010   -1.2360 h2        1 GLT      0.085700
     14 H2          0.1130   -1.6850   -1.7210 h1        1 GLT      0.102700
     15 H3         -0.6180    1.3150   -1.1930 h1        1 GLT      0.068700
     16 H4         -1.4330   -1.3390    0.2510 h1        1 GLT      0.056700
     17 H5          0.0210    1.2450    1.2140 h1        1 GLT      0.112700
     18 H61        -0.0040   -1.2560    2.9210 h1        1 GLT      0.048200
     19 H62        -1.6210   -0.4060    2.7420 h1        1 GLT      0.048200
     20 HO1         2.7380    1.2280   -0.6040 ho        1 GLT      0.430000
     21 HO2         0.8930    0.6370   -3.1300 ho        1 GLT      0.423000
     22 HO3        -1.7170    0.0190   -2.9080 ho        1 GLT      0.429000
     23 HO4        -3.0720    0.3420   -0.0500 ho        1 GLT      0.428000
     24 HO6        -0.4850    0.5850    4.3750 ho        1 GLT      0.405000
@<TRIPOS>BOND
     1    1    2 1   
     2    1    7 1   
     3    1    8 1   
     4    1   13 1   
     5    2    3 1   
     6    2    9 1   
     7    2   14 1   
     8    3    4 1   
     9    3   10 1   
    10    3   15 1   
    11    4    5 1   
    12    4   11 1   
    13    4   16 1   
    14    5    6 1   
    15    5    7 1   
    16    5   17 1   
    17    6   12 1   
    18    6   18 1   
    19    6   19 1   
    20    8   20 1   
    21    9   21 1   
    22   10   22 1   
    23   11   23 1   
    24   12   24 1   
@<TRIPOS>SUBSTRUCTURE
     1 GLT         1 TEMP              0 ****  ****    0 ROOT
