@<TRIPOS>MOLECULE
GLT
   24    24     1     0     0
SMALL
bcc


@<TRIPOS>ATOM
      1 C1         -0.7560    0.3140   -1.5200 c3        1 GLT      0.201200
      2 C2          0.7870    0.3140   -1.5200 c3        1 GLT      0.117100
      3 C3          1.4110    0.3140   -0.0270 c3        1 GLT      0.100100
      4 C4          0.8120   -0.8430    0.8950 c3        1 GLT      0.164100
      5 C5         -0.7190   -0.8470    0.9150 c3        1 GLT     -0.042600
      6 C6         -1.2270    0.4500    1.6850 c3        1 GLT      0.136400
      7 S5         -1.3610   -0.8490   -0.6050 ss        1 GLT     -0.373200
      8 O1         -1.2400    0.1230   -2.9280 oh        1 GLT     -0.580800
      9 O2          1.2250   -0.7860   -2.1780 oh        1 GLT     -0.594800
     10 O3          1.1640    1.4870    0.5420 oh        1 GLT     -0.595800
     11 O4          1.2540   -2.0560    0.4280 oh        1 GLT     -0.586800
     12 O6         -2.4980    0.1990    2.2430 oh        1 GLT     -0.594800
     13 H1         -1.0740    1.1760   -1.1880 h2        1 GLT      0.072700
     14 H2          1.1010    1.1090   -1.9910 h1        1 GLT      0.053700
     15 H3          2.3780    0.1940   -0.0920 h1        1 GLT      0.076700
     16 H4          1.1380   -0.7180    1.8070 h1        1 GLT      0.096700
     17 H5         -1.0280   -1.6410    1.3910 h1        1 GLT      0.117700
     18 H61        -1.2880    1.1970    1.0600 h1        1 GLT      0.061700
     19 H62        -0.5980    0.6730    2.3980 h1        1 GLT      0.061700
     20 HO1        -2.0500    0.4780   -3.0140 ho        1 GLT      0.427000
     21 HO2         1.6890   -0.5380   -2.8930 ho        1 GLT      0.433000
     22 HO3         1.9280    1.9190    0.6740 ho        1 GLT      0.411000
     23 HO4         1.6460   -2.5020    1.0880 ho        1 GLT      0.429000
     24 HO6        -2.6950    0.8340    2.8300 ho        1 GLT      0.408000
@<TRIPOS>BOND
     1    1    2 1   
     2    1    7 1   
     3    1    8 1   
     4    1   13 1   
     5    2    3 1   
     6    2    9 1   
     7    2   14 1   
     8    3    4 1   
     9    3   10 1   
    10    3   15 1   
    11    4    5 1   
    12    4   11 1   
    13    4   16 1   
    14    5    6 1   
    15    5    7 1   
    16    5   17 1   
    17    6   12 1   
    18    6   18 1   
    19    6   19 1   
    20    8   20 1   
    21    9   21 1   
    22   10   22 1   
    23   11   23 1   
    24   12   24 1   
@<TRIPOS>SUBSTRUCTURE
     1 GLT         1 TEMP              0 ****  ****    0 ROOT
