@<TRIPOS>MOLECULE
GLV
    6     5     1     0     0
SMALL
bcc


@<TRIPOS>ATOM
      1 C1         -0.5980    0.0380   -0.8780 c         1 GLV      0.472900
      2 O1         -0.2100    0.7180   -1.8330 o         1 GLV     -0.599100
      3 C2          0.0420   -0.0200    0.5050 c         1 GLV      0.838600
      4 O2          0.9170   -0.9080    0.6990 o         1 GLV     -0.821300
      5 O3         -0.3900    0.7850    1.3750 o         1 GLV     -0.821300
      6 H1         -1.5020   -0.6120   -0.9980 h4        1 GLV     -0.068800
@<TRIPOS>BOND
     1    1    2 2   
     2    1    3 1   
     3    1    6 1   
     4    3    4 1   
     5    3    5 1   
@<TRIPOS>SUBSTRUCTURE
     1 GLV         1 TEMP              0 ****  ****    0 ROOT
