@<TRIPOS>MOLECULE
GLV
    6     4     1     0     0
SMALL
bcc


@<TRIPOS>ATOM
      1 C1          0.3620   -0.0000   -0.6960 c1        1 GLV      0.141000
      2 O1          1.5780   -0.0000   -0.6960 o         1 GLV     -0.360000
      3 C2         -0.3950   -0.0000    0.6140 c1        1 GLV      0.308000
      4 O2         -0.7100   -1.0900    1.1590 o         1 GLV     -0.556000
      5 O3         -0.7090    1.0900    1.1590 o         1 GLV     -0.556000
      6 H1         -0.1260    0.0000   -1.5410 ha        1 GLV      0.024000
@<TRIPOS>BOND
     1    1    2 1   
     2    1    6 1   
     3    3    4 1   
     4    3    5 1   
@<TRIPOS>SUBSTRUCTURE
     1 GLV         1 TEMP              0 ****  ****    0 ROOT
