@<TRIPOS>MOLECULE
GLV
    6     5     1     0     0
SMALL
bcc


@<TRIPOS>ATOM
      1 C1          0.0270    0.0170    0.0290 c         1 GLV      0.472900
      2 O1          0.9680   -0.7240   -0.2690 o         1 GLV     -0.599100
      3 C2         -0.7890   -0.0390    1.3170 c         1 GLV      0.838600
      4 O2         -0.3990    0.6780    2.2790 o         1 GLV     -0.821300
      5 O3         -1.8300   -0.7520    1.3100 o         1 GLV     -0.821300
      6 H1         -0.2900    0.8190   -0.6850 h4        1 GLV     -0.068800
@<TRIPOS>BOND
     1    1    2 2   
     2    1    3 1   
     3    1    6 1   
     4    3    4 1   
     5    3    5 1   
@<TRIPOS>SUBSTRUCTURE
     1 GLV         1 TEMP              0 ****  ****    0 ROOT
