@<TRIPOS>MOLECULE
GLW
   23    23     1     0     0
SMALL
bcc


@<TRIPOS>ATOM
      1 C1         -0.9450   -0.5550   -1.4030 c3        1 GLW      0.304900
      2 C2          0.5680   -0.5550   -1.4030 c3        1 GLW      0.096100
      3 C3          1.1320   -0.5550   -0.0310 c3        1 GLW      0.073100
      4 C4          0.5550    0.5310    0.8160 c3        1 GLW      0.125100
      5 C5         -0.9630    0.5270    0.8040 c3        1 GLW      0.145100
      6 C6         -1.4550    1.7440    1.5220 c3        1 GLW     -0.089100
      7 O1         -1.3920   -1.7750   -0.9370 oh        1 GLW     -0.639800
      8 O2          1.0340   -1.7280   -2.0980 oh        1 GLW     -0.593800
      9 O3          2.5700   -0.3710   -0.1140 oh        1 GLW     -0.606800
     10 O5         -1.5140    0.5230   -0.5510 os        1 GLW     -0.443600
     11 O4          1.0090    0.3560    2.1640 oh        1 GLW     -0.595800
     12 H1         -1.2600   -0.4320   -2.3190 h2        1 GLW      0.084700
     13 H2          0.8850    0.2390   -1.8750 h1        1 GLW      0.099700
     14 H3          0.9450   -1.4160    0.3880 h1        1 GLW      0.064700
     15 H4          0.8720    1.3920    0.4850 h1        1 GLW      0.058700
     16 H5         -1.2800   -0.2660    1.2760 h1        1 GLW      0.062700
     17 H61        -2.4290    1.7810    1.4700 hc        1 GLW      0.052700
     18 H62        -1.0760    2.5420    1.1060 hc        1 GLW      0.052700
     19 H63        -1.1810    1.7030    2.4580 hc        1 GLW      0.052700
     20 HO1        -2.0800   -2.0460   -1.4280 ho        1 GLW      0.428000
     21 HO2         1.3700   -1.4930   -2.8850 ho        1 GLW      0.422000
     22 HO3         2.9790   -1.0860    0.2180 ho        1 GLW      0.423000
     23 HO4         1.6560    0.9390    2.3370 ho        1 GLW      0.424000
@<TRIPOS>BOND
     1    1    2 1   
     2    1    7 1   
     3    1   10 1   
     4    1   12 1   
     5    2    3 1   
     6    2    8 1   
     7    2   13 1   
     8    3    4 1   
     9    3    9 1   
    10    3   14 1   
    11    4    5 1   
    12    4   11 1   
    13    4   15 1   
    14    5    6 1   
    15    5   10 1   
    16    5   16 1   
    17    6   17 1   
    18    6   18 1   
    19    6   19 1   
    20    7   20 1   
    21    8   21 1   
    22    9   22 1   
    23   11   23 1   
@<TRIPOS>SUBSTRUCTURE
     1 GLW         1 TEMP              0 ****  ****    0 ROOT
