@<TRIPOS>MOLECULE
GLW
   23    23     1     0     0
SMALL
bcc


@<TRIPOS>ATOM
      1 C1          1.4700   -0.4070   -0.7510 c3        1 GLW      0.304900
      2 C2          0.0560   -0.6140   -1.3210 c3        1 GLW      0.096100
      3 C3         -0.9780    0.1560   -0.4900 c3        1 GLW      0.073100
      4 C4         -0.8110   -0.1810    1.0000 c3        1 GLW      0.125100
      5 C5          0.6280    0.1450    1.4340 c3        1 GLW      0.145100
      6 C6          0.8780   -0.2600    2.8720 c3        1 GLW     -0.089100
      7 O1          1.8440    0.9290   -1.0050 oh        1 GLW     -0.639800
      8 O2         -0.0130   -0.2270   -2.6770 oh        1 GLW     -0.593800
      9 O3         -2.2990   -0.2170   -0.8480 oh        1 GLW     -0.606800
     10 O5          1.5650   -0.5990    0.6420 os        1 GLW     -0.443600
     11 O4         -1.6750    0.6170    1.7900 oh        1 GLW     -0.595800
     12 H1          2.2040   -1.1380   -1.1960 h2        1 GLW      0.084700
     13 H2         -0.1880   -1.7140   -1.3210 h1        1 GLW      0.099700
     14 H3         -0.8470    1.2630   -0.6510 h1        1 GLW      0.064700
     15 H4         -1.0370   -1.2700    1.1690 h1        1 GLW      0.058700
     16 H5          0.8200    1.2440    1.2840 h1        1 GLW      0.062700
     17 H61         1.9030    0.0500    3.1850 hc        1 GLW      0.052700
     18 H62         0.1190    0.2410    3.5190 hc        1 GLW      0.052700
     19 H63         0.7890   -1.3660    2.9880 hc        1 GLW      0.052700
     20 HO1         2.7120    1.0690   -0.6080 ho        1 GLW      0.428000
     21 HO2         0.3360    0.6740   -2.7400 ho        1 GLW      0.422000
     22 HO3        -2.3470   -0.1760   -1.8120 ho        1 GLW      0.423000
     23 HO4        -2.5640    0.4900    1.4320 ho        1 GLW      0.424000
@<TRIPOS>BOND
     1    1    2 1   
     2    1    7 1   
     3    1   10 1   
     4    1   12 1   
     5    2    3 1   
     6    2    8 1   
     7    2   13 1   
     8    3    4 1   
     9    3    9 1   
    10    3   14 1   
    11    4    5 1   
    12    4   11 1   
    13    4   15 1   
    14    5    6 1   
    15    5   10 1   
    16    5   16 1   
    17    6   17 1   
    18    6   18 1   
    19    6   19 1   
    20    7   20 1   
    21    8   21 1   
    22    9   22 1   
    23   11   23 1   
@<TRIPOS>SUBSTRUCTURE
     1 GLW         1 TEMP              0 ****  ****    0 ROOT
