@<TRIPOS>MOLECULE
GLY
    9     8     1     0     0
SMALL
bcc


@<TRIPOS>ATOM
      1 N           2.0850   -0.1980    0.0450 n3        1 GLY     -0.894800
      2 CA          0.8040   -0.8600   -0.0810 c3        1 GLY      0.011800
      3 C          -0.4460    0.0130    0.1930 c         1 GLY      0.880600
      4 O          -0.2750    1.2290    0.5030 o         1 GLY     -0.852800
      5 OXT        -1.5760   -0.5410    0.0900 o         1 GLY     -0.852800
      6 H           2.0910    0.5920   -0.5790 hn        1 GLY      0.325800
      7 H2          2.1480    0.1880    0.9720 hn        1 GLY      0.325800
      8 HA2         0.7180   -1.2720   -1.1230 h1        1 GLY      0.028700
      9 HA3         0.7820   -1.7290    0.6320 h1        1 GLY      0.028700
@<TRIPOS>BOND
     1    1    2 1   
     2    1    6 1   
     3    1    7 1   
     4    2    3 1   
     5    2    8 1   
     6    2    9 1   
     7    3    4 1   
     8    3    5 1   
@<TRIPOS>SUBSTRUCTURE
     1 GLY         1 TEMP              0 ****  ****    0 ROOT
