@<TRIPOS>MOLECULE
GLZ
    9     8     1     0     0
SMALL
bcc


@<TRIPOS>ATOM
      1 N          -1.1610    0.0010   -0.3960 n3        1 GLZ     -0.915800
      2 CA          0.2650    0.0010   -0.3960 c3        1 GLZ      0.035800
      3 C           0.7690    0.0010    1.0300 c         1 GLZ      0.563900
      4 O           0.7360   -1.0230    1.6870 o         1 GLZ     -0.530100
      5 H          -1.4650   -0.6240   -0.9870 hn        1 GLZ      0.357300
      6 H2         -1.4650    0.8250   -0.6410 hn        1 GLZ      0.357300
      7 HA1         0.5900    0.7980   -0.8560 h1        1 GLZ      0.058200
      8 HA2         0.5900   -0.7960   -0.8560 h1        1 GLZ      0.058200
      9 HXT         1.1430    0.8160    1.4160 h4        1 GLZ      0.015200
@<TRIPOS>BOND
     1    1    2 1   
     2    1    5 1   
     3    1    6 1   
     4    2    3 1   
     5    2    7 1   
     6    2    8 1   
     7    3    4 2   
     8    3    9 1   
@<TRIPOS>SUBSTRUCTURE
     1 GLZ         1 TEMP              0 ****  ****    0 ROOT
