@<TRIPOS>MOLECULE
GLZ
    9     8     1     0     0
SMALL
bcc


@<TRIPOS>ATOM
      1 N          -0.3100   -0.0340    1.7030 n3        1 GLZ     -0.915800
      2 CA          0.5400    0.1240    0.5500 c3        1 GLZ      0.035800
      3 C          -0.0860   -0.4060   -0.7250 c         1 GLZ      0.563900
      4 O           0.3270   -0.0530   -1.8290 o         1 GLZ     -0.530100
      5 H          -1.1230    0.5440    1.6360 hn        1 GLZ      0.357300
      6 H2          0.1900    0.1910    2.5400 hn        1 GLZ      0.357300
      7 HA1         0.8580    1.1940    0.3690 h1        1 GLZ      0.058200
      8 HA2         1.4820   -0.4760    0.7200 h1        1 GLZ      0.058200
      9 HXT        -0.9120   -1.1410   -0.6120 h4        1 GLZ      0.015200
@<TRIPOS>BOND
     1    1    2 1   
     2    1    5 1   
     3    1    6 1   
     4    2    3 1   
     5    2    7 1   
     6    2    8 1   
     7    3    4 2   
     8    3    9 1   
@<TRIPOS>SUBSTRUCTURE
     1 GLZ         1 TEMP              0 ****  ****    0 ROOT
