@<TRIPOS>MOLECULE
GM0
   31    31     1     0     0
SMALL
bcc


@<TRIPOS>ATOM
      1 P          -2.2110    0.3960   -0.4380 p5        1 GM0      1.331900
      2 C1          2.9770   -1.3100    0.4310 c3        1 GM0      0.322900
      3 O1         -2.3640   -0.9270    0.2740 o         1 GM0     -0.916500
      4 C2          1.8390   -2.3310    0.2740 c3        1 GM0      0.089100
      5 O2          1.3990   -2.7210    1.5620 oh        1 GM0     -0.623800
      6 C3          0.7090   -1.7790   -0.6080 c3        1 GM0      0.099100
      7 O3         -0.3570   -2.6960   -0.5210 oh        1 GM0     -0.677800
      8 C4          0.2850   -0.3490   -0.1750 c3        1 GM0      0.188100
      9 O4         -0.6090    0.1390   -1.0930 os        1 GM0     -0.556200
     10 C5          1.5340    0.5570   -0.1090 c3        1 GM0      0.085100
     11 O5          2.5890    0.0110    0.7020 os        1 GM0     -0.450600
     12 C6          1.2100    1.9160    0.5430 c3        1 GM0      0.108100
     13 O6          2.3130    2.4130    1.2940 oh        1 GM0     -0.613800
     14 C7          0.7930    2.9370   -0.5260 c3        1 GM0      0.142400
     15 O7         -0.1660    3.8420   -0.0300 oh        1 GM0     -0.669800
     16 O8         -3.0650    0.6300   -1.6400 o         1 GM0     -0.916500
     17 O9         -1.8990    1.5780    0.4440 o         1 GM0     -0.916500
     18 H2          2.2710   -3.2580   -0.2010 h1        1 GM0      0.034700
     19 HO2         0.4610   -2.4850    1.6250 ho        1 GM0      0.441000
     20 H3          1.0660   -1.7550   -1.6750 h1        1 GM0      0.018700
     21 HO3        -1.1930   -2.1770   -0.3690 ho        1 GM0      0.503000
     22 H4         -0.1760   -0.4120    0.8570 h1        1 GM0      0.066700
     23 H5          1.9450    0.7120   -1.1460 h1        1 GM0      0.014700
     24 H6          0.3730    1.8020    1.2930 h1        1 GM0      0.140700
     25 HO6         3.1110    2.2130    0.7930 ho        1 GM0      0.378000
     26 H7          1.6750    3.5690   -0.8200 h1        1 GM0      0.028200
     27 H7A         0.3880    2.4000   -1.4250 h1        1 GM0      0.028200
     28 HO7        -0.9520    3.3090    0.2200 ho        1 GM0      0.487000
     29 H1          3.6640   -1.5920    1.2800 h2        1 GM0      0.080700
     30 O10         3.7920   -1.2570   -0.7240 oh        1 GM0     -0.652800
     31 H15         3.2250   -1.0210   -1.4670 ho        1 GM0      0.406000
@<TRIPOS>BOND
     1    1    3 1   
     2    1    9 1   
     3    1   16 1   
     4    1   17 1   
     5    2    4 1   
     6    2   11 1   
     7    2   29 1   
     8    2   30 1   
     9    4    5 1   
    10    4    6 1   
    11    4   18 1   
    12    5   19 1   
    13    6    7 1   
    14    6    8 1   
    15    6   20 1   
    16    7   21 1   
    17    8    9 1   
    18    8   10 1   
    19    8   22 1   
    20   10   11 1   
    21   10   12 1   
    22   10   23 1   
    23   12   13 1   
    24   12   14 1   
    25   12   24 1   
    26   13   25 1   
    27   14   15 1   
    28   14   26 1   
    29   14   27 1   
    30   15   28 1   
    31   30   31 1   
@<TRIPOS>SUBSTRUCTURE
     1 GM0         1 TEMP              0 ****  ****    0 ROOT
