@<TRIPOS>MOLECULE
GM0
   31    30     1     0     0
SMALL
bcc


@<TRIPOS>ATOM
      1 P          -0.6050    0.6150   -3.1730 p4        1 GM0      1.701200
      2 C1          0.9590   -1.4660    1.0920 c3        1 GM0      0.323900
      3 O1          0.5960    0.4520   -4.0730 os        1 GM0     -1.240000
      4 C2          2.0650   -1.1380    0.2770 c3        1 GM0      0.110100
      5 O2          2.5130   -2.3870   -0.4890 oh        1 GM0     -0.626800
      6 C3          1.7270   -0.0880   -0.6810 c3        1 GM0      0.107100
      7 O3          2.3310   -0.3930   -1.9180 oh        1 GM0     -0.670800
      8 C4          0.1400    0.0740   -0.9080 c3        1 GM0      0.180100
      9 O4         -0.1200    0.9920   -1.7010 os        1 GM0     -0.551200
     10 C5         -0.2290    0.4700    0.6110 c3        1 GM0      0.107100
     11 O5          0.0860   -0.5870    1.5800 os        1 GM0     -0.491600
     12 C6         -1.6540    0.7690    0.6910 c3        1 GM0      0.110100
     13 O6         -2.3950   -0.4650    0.9290 oh        1 GM0     -0.681800
     14 C7         -1.9040    1.7420    1.8350 c3        1 GM0      0.131400
     15 O7         -3.2740    2.0570    1.8920 oh        1 GM0     -0.647800
     16 O8         -1.4980    1.7330   -3.7170 o         1 GM0     -0.917000
     17 O9         -1.3770   -0.6700   -3.1280 o         1 GM0     -0.965800
     18 H1          0.4480   -2.1130    0.6060 h2        1 GM0      0.064700
     19 O10         1.5740   -2.2140    2.3640 oh        1 GM0     -0.629800
     20 H2          2.8110   -0.8240    0.8540 h1        1 GM0      0.044700
     21 HO2         3.3220   -2.6350   -0.2080 ho        1 GM0      0.438000
     22 H3          2.1080    0.8110   -0.3370 h1        1 GM0      0.028700
     23 HO3         3.0040    0.1400   -2.0520 ho        1 GM0      0.498000
     24 H4         -0.2760   -0.7710   -1.1730 h1        1 GM0      0.057700
     25 H5          0.3010    1.3190    0.8660 h1        1 GM0      0.054700
     26 H6         -1.9530    1.1730   -0.1530 h1        1 GM0      0.094700
     27 HO6        -3.2130   -0.4040    0.5540 ho        1 GM0      0.498000
     28 H7         -1.6390    1.3490    2.6430 h1        1 GM0      0.024700
     29 H7A        -1.3870    2.5590    1.6860 h1        1 GM0      0.024700
     30 HO7        -3.4090    2.6740    2.5110 ho        1 GM0      0.423000
     31 H15         0.9510   -2.7760    2.7200 ho        1 GM0      0.400000
@<TRIPOS>BOND
     1    1    9 1   
     2    1   16 1   
     3    1   17 2   
     4    2    4 1   
     5    2   11 1   
     6    2   18 1   
     7    2   19 1   
     8    4    5 1   
     9    4    6 1   
    10    4   20 1   
    11    5   21 1   
    12    6    7 1   
    13    6    8 1   
    14    6   22 1   
    15    7   23 1   
    16    8    9 1   
    17    8   10 1   
    18    8   24 1   
    19   10   11 1   
    20   10   12 1   
    21   10   25 1   
    22   12   13 1   
    23   12   14 1   
    24   12   26 1   
    25   13   27 1   
    26   14   15 1   
    27   14   28 1   
    28   14   29 1   
    29   15   30 1   
    30   19   31 1   
@<TRIPOS>SUBSTRUCTURE
     1 GM0         1 TEMP              0 ****  ****    0 ROOT
