@<TRIPOS>MOLECULE
GM0
   31    28     1     0     0
SMALL
bcc


@<TRIPOS>ATOM
      1 P           0.2440    0.7720    1.5470 p5        1 GM0      1.472800
      2 C1         -1.4530   -2.2290    6.6570 c3        1 GM0      0.455000
      3 O1          1.3870   -0.1850    1.6060 o         1 GM0     -0.867500
      4 C2         -1.3260   -1.7900    5.2940 c1        1 GM0     -0.391100
      5 O2          3.6600   -0.8360    2.8040 oh        1 GM0     -0.855500
      6 C3         -1.2290   -1.4410    4.1500 c1        1 GM0      0.084900
      7 O3          2.8420   -1.9620    0.2910 oh        1 GM0     -0.855500
      8 C4         -1.1660   -1.0950    2.7270 c3        1 GM0      0.346400
      9 O4         -0.9030    0.2870    2.6140 os        1 GM0     -0.596200
     10 C5         -2.4390   -1.4620    2.0570 c2        1 GM0     -0.587200
     11 O5         -0.8820   -3.5030    6.9040 oh        1 GM0     -0.644300
     12 C6         -2.7570   -2.7450    1.6730 c2        1 GM0      0.526300
     13 O6         -2.0790   -3.8170    1.8040 o         1 GM0     -0.823300
     14 C7         -4.1170   -2.9080    0.9890 c3        1 GM0      0.048400
     15 O7         -4.4080   -4.2520    0.6520 oh        1 GM0     -0.663800
     16 O8          0.4440    2.2280    1.6850 o         1 GM0     -0.867500
     17 O9         -0.5950    0.4540    0.1900 oh        1 GM0     -0.799400
     18 H2         -0.9760   -1.5310    7.4040 h2        1 GM0      0.083700
     19 HO2         3.3640    0.0110    2.4560 ho        1 GM0      0.423000
     20 H3          2.8940   -1.4010    2.6420 ho        1 GM0      0.423000
     21 HO3         3.0520   -1.0460    0.5060 ho        1 GM0      0.423000
     22 H4          1.9620   -2.0650    0.6710 ho        1 GM0      0.423000
     23 H5         -0.2920   -1.6730    2.2810 h1        1 GM0      0.061700
     24 H6         -3.1480   -0.6440    1.9060 ha        1 GM0      0.104000
     25 HO6        -1.2350   -0.2460    0.2860 ho        1 GM0      0.451000
     26 H7         -3.6300   -4.7810    0.8970 ho        1 GM0      0.425000
     27 H7A        -4.9400   -2.5570    1.6660 h1        1 GM0      0.013200
     28 HO7        -4.1460   -2.3130    0.0380 h1        1 GM0      0.013200
     29 H1         -0.9980   -4.0440    6.1140 ho        1 GM0      0.410500
     30 O10        -2.7960   -2.3850    7.0850 oh        1 GM0     -0.644300
     31 H15        -3.3080   -2.7290    6.3450 ho        1 GM0      0.410500
@<TRIPOS>BOND
     1    1    3 1   
     2    1    9 1   
     3    1   16 1   
     4    1   17 1   
     5    2    4 1   
     6    2   11 1   
     7    2   18 1   
     8    2   30 1   
     9    4    6 3   
    10    5   19 1   
    11    5   20 1   
    12    6    8 1   
    13    7   21 1   
    14    7   22 1   
    15    8    9 1   
    16    8   10 1   
    17    8   23 1   
    18   10   12 2   
    19   10   24 1   
    20   11   29 1   
    21   12   13 1   
    22   12   14 1   
    23   14   15 1   
    24   14   27 1   
    25   14   28 1   
    26   15   26 1   
    27   17   25 1   
    28   30   31 1   
@<TRIPOS>SUBSTRUCTURE
     1 GM0         1 TEMP              0 ****  ****    0 ROOT
