@<TRIPOS>MOLECULE
GM0
   31    28     1     0     0
SMALL
bcc


@<TRIPOS>ATOM
      1 P           0.2550    0.5910    1.2220 p5        1 GM0      1.473800
      2 C1         -1.5420   -1.6160    6.7120 c3        1 GM0      0.455000
      3 O1          1.3870   -0.3650    1.3920 o         1 GM0     -0.868000
      4 C2         -1.3790   -1.3890    5.3010 c1        1 GM0     -0.390100
      5 O2          3.3680   -1.5960    0.1130 oh        1 GM0     -0.854000
      6 C3         -1.2520   -1.2170    4.1200 c1        1 GM0      0.082900
      7 O3          3.0980   -1.6260    2.9480 oh        1 GM0     -0.854000
      8 C4         -1.1530   -1.0890    2.6630 c3        1 GM0      0.346400
      9 O4         -0.8870    0.2620    2.3530 os        1 GM0     -0.596200
     10 C5         -2.4110   -1.5590    2.0280 c2        1 GM0     -0.587200
     11 O5         -0.9310   -2.8080    7.1760 oh        1 GM0     -0.644300
     12 C6         -2.7110   -2.8860    1.8210 c2        1 GM0      0.526300
     13 O6         -2.0280   -3.9220    2.1130 o         1 GM0     -0.823300
     14 C7         -4.0570   -3.1560    1.1420 c3        1 GM0      0.048400
     15 O7         -4.3310   -4.5370    0.9910 oh        1 GM0     -0.663800
     16 O8          0.4690    2.0490    1.1670 o         1 GM0     -0.868000
     17 O9         -0.6010    0.1090   -0.0760 oh        1 GM0     -0.798400
     18 H2         -1.1250   -0.7870    7.3540 h2        1 GM0      0.083700
     19 HO2         2.6410   -2.0000    0.6040 ho        1 GM0      0.422500
     20 H3          3.1830   -0.6570    0.2140 ho        1 GM0      0.422500
     21 HO3         2.1660   -1.8230    2.7930 ho        1 GM0      0.422500
     22 H4          3.2350   -0.8430    2.4030 ho        1 GM0      0.422500
     23 H5         -0.2690   -1.7230    2.3290 h1        1 GM0      0.061700
     24 H6         -3.1230   -0.7770    1.7520 ha        1 GM0      0.104000
     25 HO6        -1.2190   -0.5940    0.1100 ho        1 GM0      0.450000
     26 H7         -3.5540   -5.0190    1.3230 ho        1 GM0      0.425000
     27 H7A        -4.8950   -2.7230    1.7490 h1        1 GM0      0.013200
     28 HO7        -4.0720   -2.7010    0.1170 h1        1 GM0      0.013200
     29 H1         -0.9850   -3.4680    6.4760 ho        1 GM0      0.410500
     30 O10        -2.8940   -1.7660    7.1140 oh        1 GM0     -0.644300
     31 H15        -3.3610   -2.2450    6.4210 ho        1 GM0      0.410500
@<TRIPOS>BOND
     1    1    3 1   
     2    1    9 1   
     3    1   16 1   
     4    1   17 1   
     5    2    4 1   
     6    2   11 1   
     7    2   18 1   
     8    2   30 1   
     9    4    6 3   
    10    5   19 1   
    11    5   20 1   
    12    6    8 1   
    13    7   21 1   
    14    7   22 1   
    15    8    9 1   
    16    8   10 1   
    17    8   23 1   
    18   10   12 2   
    19   10   24 1   
    20   11   29 1   
    21   12   13 1   
    22   12   14 1   
    23   14   15 1   
    24   14   27 1   
    25   14   28 1   
    26   15   26 1   
    27   17   25 1   
    28   30   31 1   
@<TRIPOS>SUBSTRUCTURE
     1 GM0         1 TEMP              0 ****  ****    0 ROOT
