@<TRIPOS>MOLECULE
GM1
   13    12     1     0     0
SMALL
bcc


@<TRIPOS>ATOM
      1 C1         -0.0460   -0.0010    0.0640 c         1 GM1      0.506100
      2 N1          1.4450   -0.0040    0.0010 nz        1 GM1     -0.740400
      3 O1         -0.5650   -0.0010    1.1690 o         1 GM1     -0.331100
      4 C2         -0.7970    0.0030   -1.2620 c3        1 GM1      0.030800
      5 N2         -2.2730    0.0050   -1.0760 nz        1 GM1     -0.835600
      6 HN11        1.8310   -0.0070    0.9670 hn        1 GM1      0.506133
      7 HN12        1.7940   -0.8430   -0.4880 hn        1 GM1      0.506133
      8 H21        -0.5100    0.9250   -1.8630 hx        1 GM1      0.172700
      9 H22        -0.5130   -0.9190   -1.8650 hx        1 GM1      0.172700
     10 HN21       -2.5810    0.8410   -0.5520 hn        1 GM1      0.502133
     11 HN22       -2.7320    0.0080   -2.0040 hn        1 GM1      0.502133
     12 H13         1.7980    0.8360   -0.4840 hn        1 GM1      0.506133
     13 H23        -2.5840   -0.8320   -0.5560 hn        1 GM1      0.502133
@<TRIPOS>BOND
     1    1    2 1   
     2    1    3 2   
     3    1    4 1   
     4    2    6 1   
     5    2    7 1   
     6    2   12 1   
     7    4    5 1   
     8    4    8 1   
     9    4    9 1   
    10    5   10 1   
    11    5   11 1   
    12    5   13 1   
@<TRIPOS>SUBSTRUCTURE
     1 GM1         1 TEMP              0 ****  ****    0 ROOT
