@<TRIPOS>MOLECULE
GM1
   11    10     1     0     0
SMALL
bcc


@<TRIPOS>ATOM
      1 C1         -0.0160    0.1960   -0.4460 c         1 GM1      0.608100
      2 N1          0.5400    0.0740   -1.6930 n         1 GM1     -0.674000
      3 O1         -1.2150    0.5210   -0.3210 o         1 GM1     -0.624100
      4 C2          0.8780   -0.0770    0.7730 c3        1 GM1      0.090800
      5 N2          0.2430    0.0670    2.0510 n3        1 GM1     -0.885800
      6 HN11       -0.0120    0.2440   -2.4970 hn        1 GM1      0.311500
      7 HN12        1.4850   -0.1810   -1.8080 hn        1 GM1      0.311500
      8 H21         1.7540    0.6320    0.7310 h1        1 GM1      0.070700
      9 H22         1.2720   -1.1300    0.6900 h1        1 GM1      0.070700
     10 HN21       -0.1020    1.0000    2.1730 hn        1 GM1      0.360800
     11 HN22       -0.5300   -0.5670    2.1360 hn        1 GM1      0.360800
@<TRIPOS>BOND
     1    1    2 1   
     2    1    3 2   
     3    1    4 1   
     4    2    6 1   
     5    2    7 1   
     6    4    5 1   
     7    4    8 1   
     8    4    9 1   
     9    5   10 1   
    10    5   11 1   
@<TRIPOS>SUBSTRUCTURE
     1 GM1         1 TEMP              0 ****  ****    0 ROOT
