@<TRIPOS>MOLECULE
GM1
   13    12     1     0     0
SMALL
bcc


@<TRIPOS>ATOM
      1 C1         -0.0470    0.0000    0.0650 c         1 GM1      0.506100
      2 N1          1.4450   -0.0020    0.0020 n4        1 GM1     -0.740400
      3 O1         -0.5660    0.0000    1.1690 o         1 GM1     -0.331100
      4 C2         -0.7970    0.0020   -1.2620 c3        1 GM1      0.030800
      5 N2         -2.2720    0.0020   -1.0760 n4        1 GM1     -0.835600
      6 HN11        1.8300   -0.0010    0.9690 hn        1 GM1      0.506133
      7 HN12        1.7970    0.8370   -0.4850 hn        1 GM1      0.506133
      8 H21        -0.5110   -0.9190   -1.8640 hx        1 GM1      0.172700
      9 H22        -0.5110    0.9240   -1.8620 hx        1 GM1      0.172700
     10 HN21       -2.5830   -0.8350   -0.5570 hn        1 GM1      0.502133
     11 HN22       -2.5820    0.8380   -0.5530 hn        1 GM1      0.502133
     12 H13         1.7950   -0.8420   -0.4830 hn        1 GM1      0.506133
     13 H23        -2.7310    0.0040   -2.0050 hn        1 GM1      0.502133
@<TRIPOS>BOND
     1    1    2 1   
     2    1    3 2   
     3    1    4 1   
     4    2    6 1   
     5    2    7 1   
     6    2   12 1   
     7    4    5 1   
     8    4    8 1   
     9    4    9 1   
    10    5   10 1   
    11    5   11 1   
    12    5   13 1   
@<TRIPOS>SUBSTRUCTURE
     1 GM1         1 TEMP              0 ****  ****    0 ROOT
