@<TRIPOS>MOLECULE
GM2
  137   115     1     0     0
SMALL
bcc


@<TRIPOS>ATOM
      1 C1         -1.2930   -2.2050   -1.4490 c3        1 GM2      0.143000
      2 O1         -2.0060   -1.4870   -2.4340 os        1 GM2     -0.275000
      3 C2         -0.1360   -1.3070   -0.9590 c3        1 GM2      0.005000
      4 O5         -2.3010   -2.3520   -0.4530 os        1 GM2     -0.295000
      5 CB1        -2.4420   -2.2520   -3.5550 c3        1 GM2     -0.055000
      6 O2          0.8560   -1.3520   -1.9720 oh        1 GM2     -0.344000
      7 C3          0.4170   -1.8810    0.3540 c3        1 GM2     -0.046000
      8 O3          1.3760   -0.9530    0.8350 oh        1 GM2     -0.330000
      9 C4         -0.7270   -2.0380    1.3680 c3        1 GM2     -0.022000
     10 O4         -0.2550   -2.6810    2.5400 oh        1 GM2     -0.318000
     11 C5         -1.8190   -2.9310    0.7600 c3        1 GM2     -0.003000
     12 C6         -3.0340   -3.0270    1.6870 c3        1 GM2     -0.009000
     13 O6         -3.9890   -3.9330    1.1820 oh        1 GM2     -0.321000
     14 CL6        -0.6850  -10.2930   -0.0670 cl        1 GM2     -0.221083
     15 CL5        -1.7250   -6.6270   -4.7090 cl        1 GM2     -0.221083
     16 CL7         0.5480   -9.1000   -3.2330 cl        1 GM2     -0.221083
     17 CL4         0.2170   -6.2410   -1.3510 cl        1 GM2      0.585250
     18 CL3         1.7660   -6.1170   -5.4700 cl        1 GM2      0.557000
     19 CL2         2.7450   -3.9020   -1.7940 cl        1 GM2     -0.221083
     20 CL1         0.3890   -3.3370   -4.9380 cl        1 GM2      0.584000
     21 CB2        -1.7490   -1.7210   -4.8300 c3        1 GM2     -0.107000
     22 O          -0.0040   -4.1570   -3.4860 o         1 GM2     -0.660000
     23 N          -0.2990   -1.7720   -4.8230 n3        1 GM2     -0.318000
     24 CR1        -2.2350   -0.2670   -5.1150 c3        1 GM2      0.056000
     25 OR         -1.6530    0.6760   -4.2350 oh        1 GM2     -0.323000
     26 CR2        -1.8730    0.1650   -6.5330 c3        1 GM2     -0.152000
     27 CR3        -2.6630    1.3890   -6.9440 c3        1 GM2     -0.159000
     28 CR4        -2.2690    1.8530   -8.3300 c3        1 GM2     -0.156000
     29 CR5        -3.0660    3.0700   -8.7470 c3        1 GM2     -0.157000
     30 CR6        -2.6710    3.5370  -10.1310 c3        1 GM2     -0.158000
     31 CR7        -3.4690    4.7540  -10.5490 c3        1 GM2     -0.158000
     32 CR8        -3.0730    5.2220  -11.9330 c3        1 GM2     -0.158000
     33 CR9        -3.8710    6.4380  -12.3510 c3        1 GM2     -0.158000
     34 CRA        -3.4750    6.9060  -13.7350 c3        1 GM2     -0.158000
     35 CRB        -4.2730    8.1230  -14.1530 c3        1 GM2     -0.158000
     36 CRC        -3.8770    8.5910  -15.5370 c3        1 GM2     -0.158000
     37 CRD        -4.6750    9.8070  -15.9550 c3        1 GM2     -0.158000
     38 CRE        -4.2800   10.2750  -17.3390 c3        1 GM2     -0.158000
     39 CRF        -5.0780   11.4910  -17.7570 c3        1 GM2     -0.158000
     40 CRG        -4.6830   11.9600  -19.1420 c3        1 GM2     -0.159000
     41 CRH        -5.4750   13.1710  -19.5620 c3        1 GM2     -0.210000
     42 CL8        -1.8610  -11.6820   -2.9070 cl        1 GM2     -0.221083
     43 CL9        -1.3720   -9.8120   -5.9290 cl        1 GM2     -0.221083
     44 CLA        -5.0910  -12.1770   -1.9870 cl        1 GM2     -0.221083
     45 CLB        -1.1200  -13.1990   -6.0730 cl        1 GM2     -0.221083
     46 CLC        -6.5430  -13.5050   -4.7280 cl        1 GM2     -0.221083
     47 CLD        -4.2040  -14.1960   -7.0720 cl        1 GM2     -0.221083
     48 CLE        -4.5680  -16.3650   -3.0300 cl        1 GM2     -0.221083
     49 CLF        -6.9180  -17.0090   -5.9480 cl        1 GM2      0.585250
     50 CLG        -7.3550  -19.7860   -3.2590 cl        1 GM2      0.585250
     51 CLH        -9.3280  -20.4780   -6.7680 cl        1 GM2     -0.221083
     52 CLI        -9.8270  -22.9100   -4.5200 cl        1 GM2      0.585250
     53 H1         -0.9100   -3.2070   -1.7940 h2        1 GM2      0.141000
     54 H2         -0.4890   -0.2510   -0.8110 h1        1 GM2      0.119000
     55 HB11       -3.5490   -2.0820   -3.6270 h1        1 GM2      0.109500
     56 HB12       -2.2330   -3.3470   -3.4260 h1        1 GM2      0.109500
     57 HA          1.6020   -0.8290   -1.6480 ho        1 GM2      0.232000
     58 H3          0.8980   -2.8810    0.1570 h1        1 GM2      0.115000
     59 HB          2.0010   -1.4520    1.3750 ho        1 GM2      0.213000
     60 H4         -1.1500   -1.0260    1.6200 h1        1 GM2      0.105000
     61 HC          0.3060   -2.0380    2.9930 ho        1 GM2      0.208000
     62 H5         -1.4050   -3.9570    0.5500 h1        1 GM2      0.111000
     63 H6C1       -2.7080   -3.4510    2.6750 h1        1 GM2      0.102500
     64 H6C2       -3.4890   -2.0120    1.8270 h1        1 GM2      0.102500
     65 H6         -4.2640   -3.6000    0.3180 ho        1 GM2      0.210000
     66 HL61        0.0430   -9.3290   -0.5440 ha        1 GM2      0.216500
     67 HL62        2.3840   -9.2480   -0.9470 ha        1 GM2      0.001000
     68 HL51       -1.1940   -5.6600   -4.0170 ha        1 GM2      0.216500
     69 HL52        0.4520   -6.2440   -2.6740 ha        1 GM2     -0.192917
     70 HL71       -0.2920   -9.3690   -4.2100 ha        1 GM2      0.216500
     71 HL72        1.3420  -11.9790   -5.2510 ha        1 GM2      0.001000
     72 HL41        0.2260   -7.4120   -0.6690 ha        1 GM2     -0.192917
     73 HL42       -0.0150   -5.0180   -0.8340 ha        1 GM2     -0.192917
     74 HL31        2.7060   -6.8170   -6.1130 ha        1 GM2     -0.067000
     75 HL32        1.3180   -4.7650   -5.5910 DU        1 GM2     -0.327000
     76 HL21        1.5840   -3.5560   -2.2790 ha        1 GM2      0.216500
     77 HL22        1.2210   -6.9600   -4.5860 ha        1 GM2     -0.067000
     78 HB2        -2.1210   -2.3620   -5.6850 h1        1 GM2      0.118000
     79 H           0.0540   -1.3290   -3.9870 hn        1 GM2      0.215000
     80 HR1        -3.3550   -0.2710   -4.9840 h1        1 GM2      0.079000
     81 HR         -1.9230    0.4390   -3.3380 ho        1 GM2      0.219000
     82 HR21       -0.7750    0.3900   -6.5800 hc        1 GM2      0.095000
     83 HR22       -2.0840   -0.6810   -7.2370 hc        1 GM2      0.095000
     84 HR31       -2.4800    2.2090   -6.2000 hc        1 GM2      0.086000
     85 HR32       -3.7610    1.1570   -6.9230 hc        1 GM2      0.086000
     86 HR41       -2.4350    1.0230   -9.0670 hc        1 GM2      0.079000
     87 HR42       -1.1740    2.0960   -8.3470 hc        1 GM2      0.079000
     88 HR51       -2.9010    3.8980   -8.0080 hc        1 GM2      0.079500
     89 HR52       -4.1620    2.8260   -8.7310 hc        1 GM2      0.079500
     90 HR61       -2.8340    2.7090  -10.8700 hc        1 GM2      0.078500
     91 HR62       -1.5760    3.7820  -10.1470 hc        1 GM2      0.078500
     92 HR71       -3.3050    5.5830   -9.8110 hc        1 GM2      0.079000
     93 HR72       -4.5630    4.5090  -10.5340 hc        1 GM2      0.079000
     94 HR81       -3.2360    4.3930  -12.6710 hc        1 GM2      0.078500
     95 HR82       -1.9780    5.4670  -11.9490 hc        1 GM2      0.078500
     96 HR91       -4.9650    6.1930  -12.3360 hc        1 GM2      0.079000
     97 HR92       -3.7070    7.2670  -11.6130 hc        1 GM2      0.079000
     98 HC'        -2.3800    7.1510  -13.7510 hc        1 GM2      0.079000
     99 HR11       -3.6380    6.0770  -14.4730 hc        1 GM2      0.079000
    100 H0         -4.1090    8.9510  -13.4150 hc        1 GM2      0.079000
    101 H7         -5.3680    7.8780  -14.1380 hc        1 GM2      0.079000
    102 H8         -2.7830    8.8350  -15.5530 hc        1 GM2      0.079000
    103 H9         -4.0410    7.7620  -16.2750 hc        1 GM2      0.079000
    104 H10        -5.7700    9.5620  -15.9400 hc        1 GM2      0.079000
    105 H11        -4.5120   10.6360  -15.2170 hc        1 GM2      0.079000
    106 H12        -4.4430    9.4460  -18.0770 hc        1 GM2      0.079000
    107 H13        -3.1850   10.5200  -17.3550 hc        1 GM2      0.079000
    108 H14        -4.9140   12.3200  -17.0190 hc        1 GM2      0.079000
    109 H15        -6.1720   11.2460  -17.7420 hc        1 GM2      0.079000
    110 H16        -4.8460   11.1290  -19.8780 hc        1 GM2      0.078000
    111 H17        -3.5870   12.2030  -19.1550 hc        1 GM2      0.078000
    112 H18        -5.1680   13.5000  -20.5840 hc        1 GM2      0.072000
    113 H19        -5.3060   14.0180  -18.8540 hc        1 GM2      0.072000
    114 H20        -6.5680   12.9420  -19.5780 hc        1 GM2      0.072000
    115 HL81        2.1490   -8.6140   -0.8990 ha        1 GM2      0.001000
    116 HL82       -1.3370  -11.1110   -1.8410 ha        1 GM2      0.216500
    117 HL91        0.9430  -11.4570   -5.0850 ha        1 GM2      0.001000
    118 HL92       -1.2840  -11.1220   -5.9100 ha        1 GM2      0.216500
    119 HL11       -3.0310  -14.1820   -3.9740 ha        1 GM2      0.001000
    120 HL12       -3.8370  -12.0210   -2.3440 ha        1 GM2      0.216500
    121 H21        -2.3350  -13.5880   -6.3870 ha        1 GM2      0.216500
    122 H22        -4.1240  -11.8290   -4.8620 ha        1 GM2      0.001000
    123 H23        -3.6420  -13.8860   -4.0040 ha        1 GM2      0.001000
    124 H24        -5.9220  -13.0450   -3.6620 ha        1 GM2      0.216500
    125 H25        -3.5910  -11.7080   -5.2640 ha        1 GM2      0.001000
    126 H26        -5.0320  -13.9140   -6.0890 ha        1 GM2      0.216500
    127 H27        -5.3270  -17.3660   -2.7350 ha        1 GM2      0.216500
    128 H28        -6.6110  -17.4930   -4.7290 ha        1 GM2     -0.192917
    129 H29        -6.4360  -15.8040   -6.2890 ha        1 GM2     -0.192917
    130 H30        -7.6870  -17.7010   -6.8160 ha        1 GM2     -0.192917
    131 H31        -7.7760  -20.8590   -2.5760 ha        1 GM2     -0.192917
    132 H32        -6.4830  -18.9140   -2.7030 ha        1 GM2     -0.192917
    133 H33        -8.7280  -19.3500   -6.9340 ha        1 GM2      0.216500
    134 H34        -7.8310  -19.6170   -4.5050 ha        1 GM2     -0.192917
    135 H35       -10.3370  -22.8720   -5.7610 ha        1 GM2     -0.192917
    136 H36       -10.1220  -23.9540   -3.7300 ha        1 GM2     -0.192917
    137 H37        -9.0330  -21.9110   -4.0840 ha        1 GM2     -0.192917
@<TRIPOS>BOND
     1    1    2 1   
     2    1    3 1   
     3    1    4 1   
     4    1   53 1   
     5    2    5 1   
     6    3    6 1   
     7    3    7 1   
     8    3   54 1   
     9    4   11 1   
    10    5   21 1   
    11    5   55 1   
    12    5   56 1   
    13    6   57 1   
    14    7    8 1   
    15    7    9 1   
    16    7   58 1   
    17    8   59 1   
    18    9   10 1   
    19    9   11 1   
    20    9   60 1   
    21   10   61 1   
    22   11   12 1   
    23   11   62 1   
    24   12   13 1   
    25   12   63 1   
    26   12   64 1   
    27   13   65 1   
    28   14   66 1   
    29   15   68 1   
    30   16   70 1   
    31   17   69 1   
    32   17   72 1   
    33   17   73 1   
    34   18   74 1   
    35   18   77 1   
    36   19   76 1   
    37   20   22 1   
    38   20   23 1   
    39   21   23 1   
    40   21   24 1   
    41   21   78 1   
    42   23   79 1   
    43   24   25 1   
    44   24   26 1   
    45   24   80 1   
    46   25   81 1   
    47   26   27 1   
    48   26   82 1   
    49   26   83 1   
    50   27   28 1   
    51   27   84 1   
    52   27   85 1   
    53   28   29 1   
    54   28   86 1   
    55   28   87 1   
    56   29   30 1   
    57   29   88 1   
    58   29   89 1   
    59   30   31 1   
    60   30   90 1   
    61   30   91 1   
    62   31   32 1   
    63   31   92 1   
    64   31   93 1   
    65   32   33 1   
    66   32   94 1   
    67   32   95 1   
    68   33   34 1   
    69   33   96 1   
    70   33   97 1   
    71   34   35 1   
    72   34   98 1   
    73   34   99 1   
    74   35   36 1   
    75   35  100 1   
    76   35  101 1   
    77   36   37 1   
    78   36  102 1   
    79   36  103 1   
    80   37   38 1   
    81   37  104 1   
    82   37  105 1   
    83   38   39 1   
    84   38  106 1   
    85   38  107 1   
    86   39   40 1   
    87   39  108 1   
    88   39  109 1   
    89   40   41 1   
    90   40  110 1   
    91   40  111 1   
    92   41  112 1   
    93   41  113 1   
    94   41  114 1   
    95   42  116 1   
    96   43  118 1   
    97   44  120 1   
    98   45  121 1   
    99   46  124 1   
   100   47  126 1   
   101   48  127 1   
   102   49  128 1   
   103   49  129 1   
   104   49  130 1   
   105   50  131 1   
   106   50  132 1   
   107   50  134 1   
   108   51  133 1   
   109   52  135 1   
   110   52  136 1   
   111   52  137 1   
   112   67  115 1   
   113   71  117 1   
   114  119  123 1   
   115  122  125 1   
@<TRIPOS>SUBSTRUCTURE
     1 GM2         1 TEMP              0 ****  ****    0 ROOT
