@<TRIPOS>MOLECULE
GM2
  138   113     1     0     0
SMALL
bcc


@<TRIPOS>ATOM
      1 C1         -0.4960   -0.3710    0.1770 c3        1 GM2      0.162000
      2 O1         -0.9290   -1.2710   -0.8300 os        1 GM2     -0.290000
      3 C2          0.9190   -0.8110    0.6000 c3        1 GM2      0.021000
      4 O5         -0.4910    0.8540   -0.5470 os        1 GM2     -0.345000
      5 CB1        -2.3260   -1.2170   -1.1070 c3        1 GM2     -0.041000
      6 O2          0.7510   -1.9420    1.4310 oh        1 GM2     -0.319000
      7 C3          1.5880    0.3380    1.3710 c3        1 GM2     -0.041000
      8 O3          2.9290   -0.0690    1.5900 oh        1 GM2     -0.325000
      9 C4          1.5460    1.6270    0.5340 c3        1 GM2     -0.025000
     10 O4          2.0310    2.7120    1.3050 oh        1 GM2     -0.312000
     11 C5          0.0900    1.9510    0.1710 c3        1 GM2      0.001000
     12 C6          0.0090    3.1570   -0.7690 c3        1 GM2     -0.017000
     13 O6         -1.3300    3.5160   -1.0210 oh        1 GM2     -0.304000
     14 Cl6        -1.6220   -9.2850   -5.3170 cl        1 GM2     -0.222312
     15 Cl5        -3.8820   -6.7590   -5.0270 cl        1 GM2     -0.222312
     16 Cl7        -4.2910   -8.5460   -2.2560 cl        1 GM2     -0.222312
     17 Cl4        -1.5020   -6.3150   -7.4040 cl        1 GM2     -0.222312
     18 Cl3        -6.7620   -4.9160   -5.5670 cl        1 GM2     -0.222312
     19 Cl2        -0.6360   -5.0230   -4.4390 cl        1 GM2     -0.222312
     20 Cl1        -4.6000   -4.3770   -2.2270 cl        1 GM2      0.027000
     21 CB2        -2.5030   -1.3460   -2.6300 c3        1 GM2     -0.132000
     22 O          -4.3930   -3.6540   -3.7870 oh        1 GM2     -0.313000
     23 N          -1.8730   -2.6010   -3.1410 nz        1 GM2     -0.046000
     24 CR1        -1.9060   -0.1030   -3.3520 c3        1 GM2      0.028000
     25 OR         -0.4980   -0.2210   -3.4100 oh        1 GM2     -0.332000
     26 CR2        -2.4260    0.0040   -4.7820 c3        1 GM2     -0.169000
     27 CR3        -2.1180    1.3670   -5.3660 c3        1 GM2     -0.158000
     28 CR4        -2.5900    1.4610   -6.8020 c3        1 GM2     -0.157000
     29 CR5        -2.2960    2.8280   -7.3820 c3        1 GM2     -0.158000
     30 CR6        -2.7640    2.9240   -8.8190 c3        1 GM2     -0.158000
     31 CR7        -2.4710    4.2910   -9.4000 c3        1 GM2     -0.158000
     32 CR8        -2.9380    4.3870  -10.8360 c3        1 GM2     -0.157000
     33 CR9        -2.6460    5.7530  -11.4180 c3        1 GM2     -0.158000
     34 CRA        -3.1120    5.8490  -12.8550 c3        1 GM2     -0.157000
     35 CRB        -2.8190    7.2150  -13.4370 c3        1 GM2     -0.158000
     36 CRC        -3.2860    7.3110  -14.8740 c3        1 GM2     -0.158000
     37 CRD        -2.9930    8.6780  -15.4560 c3        1 GM2     -0.158000
     38 CRE        -3.4580    8.7730  -16.8930 c3        1 GM2     -0.158000
     39 CRF        -3.1660   10.1390  -17.4760 c3        1 GM2     -0.158000
     40 CRG        -3.6310   10.2370  -18.9130 c3        1 GM2     -0.159000
     41 CRH        -3.3410   11.5950  -19.4970 c3        1 GM2     -0.211000
     42 Cl8        -5.1470  -10.0940   -5.2920 cl        1 GM2     -0.222312
     43 Cl9        -6.8960  -10.6640   -2.4460 cl        1 GM2     -0.222312
     44 ClA        -2.7210  -11.9900   -6.8480 cl        1 GM2     -0.222312
     45 ClB        -6.0300  -13.3340   -4.4480 cl        1 GM2     -0.222312
     46 ClC        -4.3970  -14.9820   -7.1770 cl        1 GM2     -0.222312
     47 ClD        -6.4660  -15.9770   -2.4590 cl        1 GM2     -0.222312
     48 ClE        -3.2420  -18.4830   -7.8970 cl        1 GM2     -0.222312
     49 ClF        -5.1860  -18.0760   -4.7780 cl        1 GM2     -0.222312
     50 ClG        -4.1870  -21.2960   -6.1050 cl        1 GM2     -0.222312
     51 ClH        -4.2410  -20.4950   -2.6910 cl        1 GM2     -0.222312
     52 ClI        -5.7230  -23.9880   -4.8340 cl        1 GM2      0.582000
     53 H1         -1.2040   -0.3260    1.0490 h2        1 GM2      0.120000
     54 H2          1.5310   -1.0800   -0.3050 h1        1 GM2      0.116000
     55 HB11       -2.7850   -0.2500   -0.7740 h1        1 GM2      0.120000
     56 HB12       -2.8130   -2.0740   -0.5680 h1        1 GM2      0.120000
     57 HA          1.6330   -2.1750    1.7570 ho        1 GM2      0.235000
     58 H3          1.0630    0.5010    2.3530 h1        1 GM2      0.114000
     59 HB          3.2820    0.4960    2.2900 ho        1 GM2      0.222000
     60 H4          2.1590    1.4920   -0.3990 h1        1 GM2      0.107000
     61 HC          2.9960    2.6680    1.2710 ho        1 GM2      0.218000
     62 H5         -0.5120    2.1420    1.1020 h1        1 GM2      0.122000
     63 H6C1        0.5500    2.9370   -1.7270 h1        1 GM2      0.112000
     64 H6C2        0.4670    4.0460   -0.2550 h1        1 GM2      0.112000
     65 H6         -1.7360    2.7800   -1.4960 ho        1 GM2      0.193000
     66 HL61       -3.4470   -8.8760   -8.2010 ha        1 GM2      0.002286
     67 HL62       -0.7830  -10.2320   -5.5650 ha        1 GM2      0.222062
     68 HL51       -6.4800   -6.1770   -5.5460 ha        1 GM2      0.222062
     69 HL52       -4.0550   -7.6750   -4.0860 ha        1 GM2      0.222062
     70 HL71       -6.5050   -7.9120   -4.1400 ha        1 GM2      0.002286
     71 HL72       -5.2630   -9.4160   -2.4620 ha        1 GM2      0.222062
     72 HL41       -1.0450   -5.6630   -5.5230 ha        1 GM2      0.222062
     73 HL42       -2.1680   -7.3880   -7.1090 ha        1 GM2      0.222062
     74 HL31       -3.7670   -2.3340   -5.4930 ha        1 GM2      0.002286
     75 HL32       -5.0190   -4.1610   -4.3320 ho        1 GM2      0.264000
     76 HL21       -3.6910   -2.9230   -5.8240 ha        1 GM2      0.002286
     77 HL22       -2.1250   -3.3970   -2.5460 hn        1 GM2      0.263667
     78 HB2        -3.6110   -1.4150   -2.8530 hx        1 GM2      0.163000
     79 H          -2.1990   -2.7910   -4.0990 hn        1 GM2      0.263667
     80 HR1        -2.2080    0.8030   -2.7540 h1        1 GM2      0.116000
     81 HR         -0.1460    0.0460   -2.5460 ho        1 GM2      0.242000
     82 HR21       -3.5340   -0.1690   -4.7830 hc        1 GM2      0.092500
     83 HR22       -1.9480   -0.7880   -5.4160 hc        1 GM2      0.092500
     84 HR31       -1.0110    1.5470   -5.3150 hc        1 GM2      0.094000
     85 HR32       -2.6170    2.1630   -4.7530 hc        1 GM2      0.094000
     86 HR41       -2.0800    0.6740   -7.4190 hc        1 GM2      0.081500
     87 HR42       -3.6920    1.2600   -6.8520 hc        1 GM2      0.081500
     88 HR51       -1.1940    3.0300   -7.3310 hc        1 GM2      0.083500
     89 HR52       -2.8070    3.6160   -6.7670 hc        1 GM2      0.083500
     90 HR61       -2.2530    2.1370   -9.4340 hc        1 GM2      0.080000
     91 HR62       -3.8660    2.7210   -8.8700 hc        1 GM2      0.080000
     92 HR71       -1.3690    4.4940   -9.3480 hc        1 GM2      0.081000
     93 HR72       -2.9820    5.0780   -8.7850 hc        1 GM2      0.081000
     94 HR81       -2.4280    3.5990  -11.4510 hc        1 GM2      0.079500
     95 HR82       -4.0410    4.1840  -10.8880 hc        1 GM2      0.079500
     96 HR91       -1.5430    5.9560  -11.3660 hc        1 GM2      0.080000
     97 HR92       -3.1560    6.5410  -10.8030 hc        1 GM2      0.080000
     98 HC'        -4.2150    5.6470  -12.9070 hc        1 GM2      0.079000
     99 HR11       -2.6020    5.0610  -13.4700 hc        1 GM2      0.079000
    100 H0         -1.7170    7.4180  -13.3850 hc        1 GM2      0.079500
    101 H7         -3.3300    8.0040  -12.8230 hc        1 GM2      0.079500
    102 H8         -4.3880    7.1090  -14.9260 hc        1 GM2      0.079000
    103 H9         -2.7760    6.5230  -15.4880 hc        1 GM2      0.079000
    104 H10        -1.8900    8.8800  -15.4040 hc        1 GM2      0.079000
    105 H11        -3.5030    9.4660  -14.8420 hc        1 GM2      0.079000
    106 H12        -4.5610    8.5710  -16.9460 hc        1 GM2      0.079000
    107 H13        -2.9480    7.9850  -17.5080 hc        1 GM2      0.079000
    108 H14        -3.6760   10.9280  -16.8620 hc        1 GM2      0.079000
    109 H15        -2.0630   10.3420  -17.4240 hc        1 GM2      0.079000
    110 H16        -3.1200    9.4470  -19.5250 hc        1 GM2      0.078000
    111 H17        -4.7330   10.0320  -18.9640 hc        1 GM2      0.078000
    112 H18        -3.6920   11.6450  -20.5560 hc        1 GM2      0.072333
    113 H19        -2.2450   11.8070  -19.4790 hc        1 GM2      0.072333
    114 H20        -3.8610   12.3940  -18.9160 hc        1 GM2      0.072333
    115 HL81       -3.4220   -9.2210   -7.6180 ha        1 GM2      0.002286
    116 HL82       -4.1440  -10.7110   -5.8590 ha        1 GM2      0.222062
    117 HL91       -6.5470  -11.5910   -3.3010 ha        1 GM2      0.222062
    118 HL92       -7.1120   -8.1180   -4.3620 ha        1 GM2      0.002286
    119 HL11       -7.6520  -13.8160   -7.4920 ha        1 GM2      0.002286
    120 HL12       -3.3010  -13.1550   -6.9860 ha        1 GM2      0.222062
    121 H21        -6.9760  -15.9280   -5.3880 ha        1 GM2      0.002286
    122 H22        -6.2420  -14.3480   -3.6220 ha        1 GM2      0.222062
    123 H23        -5.5580  -14.6510   -6.7010 ha        1 GM2      0.222062
    124 H24        -7.6370  -14.1170   -6.8850 ha        1 GM2      0.002286
    125 H25        -7.2800  -16.2210   -5.9180 ha        1 GM2      0.002286
    126 H26        -6.0330  -16.9030   -3.2850 ha        1 GM2      0.222062
    127 H27        -3.9360  -17.6680   -7.1760 ha        1 GM2      0.222062
    128 H28        -2.0370  -20.7480   -9.1550 ha        1 GM2      0.002286
    129 H29        -4.8030  -19.1560   -4.1080 ha        1 GM2      0.222062
    130 H30        -2.6820  -23.0620   -4.2250 ha        1 GM2      0.002286
    131 H31        -3.7450  -20.4190   -6.9620 ha        1 GM2      0.222062
    132 H32        -2.3510  -21.0480   -8.6360 ha        1 GM2      0.002286
    133 H33        -2.2400  -23.0160   -3.7130 ha        1 GM2      0.002286
    134 H34        -4.0440  -21.5550   -3.4210 ha        1 GM2      0.222062
    135 H35        -5.9010  -23.9980   -6.1610 ha        1 GM2     -0.191000
    136 H36        -6.3390  -24.9820   -4.1810 ha        1 GM2     -0.191000
    137 H37        -4.9750  -23.0370   -4.2110 ha        1 GM2     -0.191000
    138 HN3        -0.8500   -2.4820   -3.1440 hn        1 GM2      0.263667
@<TRIPOS>BOND
     1    1    2 1   
     2    1    3 1   
     3    1    4 1   
     4    1   53 1   
     5    2    5 1   
     6    3    6 1   
     7    3    7 1   
     8    3   54 1   
     9    4   11 1   
    10    5   21 1   
    11    5   55 1   
    12    5   56 1   
    13    6   57 1   
    14    7    8 1   
    15    7    9 1   
    16    7   58 1   
    17    8   59 1   
    18    9   10 1   
    19    9   11 1   
    20    9   60 1   
    21   10   61 1   
    22   11   12 1   
    23   11   62 1   
    24   12   13 1   
    25   12   63 1   
    26   12   64 1   
    27   13   65 1   
    28   14   67 1   
    29   15   69 1   
    30   16   71 1   
    31   17   73 1   
    32   18   68 1   
    33   19   72 1   
    34   20   22 1   
    35   21   23 1   
    36   21   24 1   
    37   21   78 1   
    38   22   75 1   
    39   23   77 1   
    40   23   79 1   
    41   23  138 1   
    42   24   25 1   
    43   24   26 1   
    44   24   80 1   
    45   25   81 1   
    46   26   27 1   
    47   26   82 1   
    48   26   83 1   
    49   27   28 1   
    50   27   84 1   
    51   27   85 1   
    52   28   29 1   
    53   28   86 1   
    54   28   87 1   
    55   29   30 1   
    56   29   88 1   
    57   29   89 1   
    58   30   31 1   
    59   30   90 1   
    60   30   91 1   
    61   31   32 1   
    62   31   92 1   
    63   31   93 1   
    64   32   33 1   
    65   32   94 1   
    66   32   95 1   
    67   33   34 1   
    68   33   96 1   
    69   33   97 1   
    70   34   35 1   
    71   34   98 1   
    72   34   99 1   
    73   35   36 1   
    74   35  100 1   
    75   35  101 1   
    76   36   37 1   
    77   36  102 1   
    78   36  103 1   
    79   37   38 1   
    80   37  104 1   
    81   37  105 1   
    82   38   39 1   
    83   38  106 1   
    84   38  107 1   
    85   39   40 1   
    86   39  108 1   
    87   39  109 1   
    88   40   41 1   
    89   40  110 1   
    90   40  111 1   
    91   41  112 1   
    92   41  113 1   
    93   41  114 1   
    94   42  116 1   
    95   43  117 1   
    96   44  120 1   
    97   45  122 1   
    98   46  123 1   
    99   47  126 1   
   100   48  127 1   
   101   49  129 1   
   102   50  131 1   
   103   51  134 1   
   104   52  135 1   
   105   52  136 1   
   106   52  137 1   
   107   66  115 1   
   108   70  118 1   
   109   74   76 1   
   110  119  124 1   
   111  121  125 1   
   112  128  132 1   
   113  130  133 1   
@<TRIPOS>SUBSTRUCTURE
     1 GM2         1 TEMP              0 ****  ****    0 ROOT
