@<TRIPOS>MOLECULE
GM6
   59    60     1     0     0
SMALL
bcc


@<TRIPOS>ATOM
      1 OAG         1.6870   -1.8770   -0.7580 oh        1 GM6     -0.370300
      2 NAF         1.5330   -0.5370   -0.8600 n4        1 GM6     -0.458300
      3 CAD         2.2910    0.1130    0.3240 c         1 GM6      0.579100
      4 OAE         1.6850    1.0310    0.8420 o         1 GM6     -0.370100
      5 CAC         3.6480   -0.4410    0.6410 c3        1 GM6     -0.147400
      6 CAB         3.9990   -0.2190    2.1200 c3        1 GM6     -0.121700
      7 CAK         5.4740    0.1290    2.2290 c         1 GM6      0.551100
      8 OAL         6.3070    0.1300    1.3350 o         1 GM6     -0.421100
      9 NAM         5.9650    0.5270    3.6050 n4        1 GM6     -0.679800
     10 CAN         7.4120    0.9250    3.6800 c3        1 GM6      0.041500
     11 CAY         8.3220   -0.3040    3.7790 c         1 GM6      0.511100
     12 OAZ         7.9300   -1.4570    3.8860 o         1 GM6     -0.385100
     13 NBB         9.7960   -0.0440    3.7680 n4        1 GM6     -0.650800
     14 CBA        10.6100   -1.2720    4.0000 c3        1 GM6      0.078100
     15 CAO         7.6880    1.8520    4.9070 c3        1 GM6      0.015800
     16 CAP         6.6110    2.8020    5.1410 cc        1 GM6     -0.337400
     17 CAT         6.6370    4.1910    4.8890 cd        1 GM6      0.006900
     18 NAU         5.5030    4.7850    5.3910 na        1 GM6     -0.134400
     19 CAR         4.7200    3.8040    6.0260 ca        1 GM6     -0.052200
     20 CAV         3.5080    3.9150    6.7270 ca        1 GM6     -0.086000
     21 CAX         2.9860    2.7600    7.2910 ca        1 GM6     -0.097000
     22 CAW         3.6450    1.5200    7.1760 ca        1 GM6     -0.092000
     23 CAS         4.8380    1.3970    6.4780 ca        1 GM6     -0.182000
     24 CAQ         5.3940    2.5360    5.8870 ca        1 GM6     -0.119800
     25 CAA         3.6920   -1.4620    2.9560 c3        1 GM6     -0.100400
     26 CAH         2.2120   -1.8360    2.9430 c3        1 GM6     -0.058700
     27 CAJ         2.0420   -3.2170    3.5480 c3        1 GM6     -0.110600
     28 CAI         1.3700   -0.8270    3.6940 c3        1 GM6     -0.110600
     29 HAG         1.0870   -2.3280   -1.4030 ho        1 GM6      0.505000
     30 HAF         0.5290   -0.2600   -0.8060 hn        1 GM6      0.487800
     31 HAC1        3.6960   -1.5440    0.4050 hc        1 GM6      0.142200
     32 HAC2        4.3860    0.0780   -0.0390 hc        1 GM6      0.142200
     33 HAB         3.4010    0.6530    2.5270 hc        1 GM6      0.132700
     34 HAM         5.7860   -0.2500    4.2610 hn        1 GM6      0.504300
     35 HAN         7.6510    1.4920    2.7260 hx        1 GM6      0.153700
     36 HBB        10.0150    0.6490    4.5020 hn        1 GM6      0.483300
     37 HBA1       10.3900   -2.0300    3.1990 hx        1 GM6      0.135367
     38 HBA2       11.7000   -0.9870    3.9700 hx        1 GM6      0.135367
     39 HBA3       10.3570   -1.7100    5.0050 hx        1 GM6      0.135367
     40 HAO1        8.6460    2.3980    4.6900 hc        1 GM6      0.086700
     41 HAO2        7.8270    1.2080    5.8200 hc        1 GM6      0.086700
     42 HAT         7.4110    4.7840    4.3860 h4        1 GM6      0.195000
     43 HAU         5.3120    5.7600    5.4080 hn        1 GM6      0.343700
     44 HAV         3.0010    4.8860    6.8450 ha        1 GM6      0.178000
     45 HAX         2.0460    2.8150    7.8680 ha        1 GM6      0.179000
     46 HAW         3.2090    0.6400    7.6780 ha        1 GM6      0.162000
     47 HAS         5.3750    0.4390    6.4640 ha        1 GM6      0.108000
     48 HAA1        3.9840   -1.2890    4.0260 hc        1 GM6      0.071200
     49 HAA2        4.2910   -2.3300    2.5680 hc        1 GM6      0.071200
     50 HAH         1.8640   -1.8750    1.8700 hc        1 GM6      0.024700
     51 HAJ1        2.6270   -3.9770    2.9750 hc        1 GM6      0.060367
     52 HAJ2        2.3830   -3.2270    4.6110 hc        1 GM6      0.060367
     53 HAJ3        0.9640   -3.5120    3.5260 hc        1 GM6      0.060367
     54 HAI1        0.3050   -1.1700    3.7280 hc        1 GM6      0.060367
     55 HAI2        1.3990    0.1730    3.1980 hc        1 GM6      0.060367
     56 HAI3        1.7240   -0.7180    4.7480 hc        1 GM6      0.060367
     57 HAF2        1.9320   -0.1940   -1.7560 hn        1 GM6      0.487800
     58 HAM2        5.4040    1.3490    3.9420 hn        1 GM6      0.504300
     59 HBB2       10.0550    0.3610    2.8550 hn        1 GM6      0.483300
@<TRIPOS>BOND
     1    1    2 1   
     2    1   29 1   
     3    2    3 1   
     4    2   30 1   
     5    2   57 1   
     6    3    4 2   
     7    3    5 1   
     8    5    6 1   
     9    5   31 1   
    10    5   32 1   
    11    6    7 1   
    12    6   25 1   
    13    6   33 1   
    14    7    8 2   
    15    7    9 1   
    16    9   10 1   
    17    9   34 1   
    18    9   58 1   
    19   10   11 1   
    20   10   15 1   
    21   10   35 1   
    22   11   12 2   
    23   11   13 1   
    24   13   14 1   
    25   13   36 1   
    26   13   59 1   
    27   14   37 1   
    28   14   38 1   
    29   14   39 1   
    30   15   16 1   
    31   15   40 1   
    32   15   41 1   
    33   16   17 2   
    34   16   24 1   
    35   17   18 1   
    36   17   42 1   
    37   18   19 1   
    38   18   43 1   
    39   19   20 ar  
    40   19   24 ar  
    41   20   21 ar  
    42   20   44 1   
    43   21   22 ar  
    44   21   45 1   
    45   22   23 ar  
    46   22   46 1   
    47   23   24 ar  
    48   23   47 1   
    49   25   26 1   
    50   25   48 1   
    51   25   49 1   
    52   26   27 1   
    53   26   28 1   
    54   26   50 1   
    55   27   51 1   
    56   27   52 1   
    57   27   53 1   
    58   28   54 1   
    59   28   55 1   
    60   28   56 1   
@<TRIPOS>SUBSTRUCTURE
     1 GM6         1 TEMP              0 ****  ****    0 ROOT
