@<TRIPOS>MOLECULE
GM6
   56    52     1     0     0
SMALL
bcc


@<TRIPOS>ATOM
      1 OAG        -6.0600   -0.0920   -2.2490 oh        1 GM6     -0.433100
      2 NAF        -4.9240   -0.6180   -2.8520 n         1 GM6     -0.351400
      3 CAD        -3.7050   -0.7650   -2.0910 c         1 GM6      0.594100
      4 OAE        -3.7390   -0.7320   -0.8790 o         1 GM6     -0.578100
      5 CAC        -2.3870   -0.9440   -2.8060 c3        1 GM6     -0.156400
      6 CAB        -1.3300   -1.4530   -1.8190 c3        1 GM6     -0.122700
      7 CAK        -0.5990   -0.2840   -1.2230 c         1 GM6      0.659100
      8 OAL        -0.3200    0.6690   -1.9140 o         1 GM6     -0.634100
      9 NAM        -0.2670   -0.2750    0.2130 n         1 GM6     -0.562900
     10 CAN         0.8060    0.5390    0.6900 c3        1 GM6      0.039700
     11 CAY         2.1230   -0.0160    0.1870 c         1 GM6      0.645100
     12 OAZ         2.3390   -1.2070    0.2420 o         1 GM6     -0.632100
     13 NBB         3.1230    0.8720   -0.3420 n         1 GM6     -0.567900
     14 CBA         4.4990    0.4410   -0.4310 c3        1 GM6      0.078300
     15 CAO         0.8110    0.5500    2.2460 c3        1 GM6     -0.002200
     16 CAP         1.1950    2.0160    2.7710 ce        1 GM6     -0.207000
     17 CAT         2.1630    2.7590    2.0700 c1        1 GM6      0.236500
     18 NAU         2.3940    3.9270    2.7680 nf        1 GM6     -0.487400
     19 CAR         1.5740    3.9240    3.9090 ch        1 GM6      0.046000
     20 CAV         1.4680    4.8300    5.0130 c1        1 GM6     -0.068250
     21 CAX         0.6270    4.5300    6.0850 c1        1 GM6     -0.068250
     22 CAW        -0.1220    3.3310    6.0820 c1        1 GM6     -0.068250
     23 CAS        -0.0190    2.4370    4.9940 c1        1 GM6     -0.068250
     24 CAQ         0.8360    2.7420    3.9050 cg        1 GM6     -0.104300
     25 CAA        -0.3420   -2.3520   -2.5510 c3        1 GM6     -0.072400
     26 CAH        -1.0800   -3.5870   -3.1020 c3        1 GM6     -0.068700
     27 CAJ        -0.7440   -3.7630   -4.5830 c3        1 GM6     -0.092100
     28 CAI        -0.6510   -4.8120   -2.3400 c3        1 GM6     -0.092100
     29 HAG        -6.5880    0.2470   -2.8620 ho        1 GM6      0.437000
     30 HAF        -4.9680   -0.9400   -3.7180 hn        1 GM6      0.300500
     31 HAC1       -2.4950   -1.5880   -3.5270 hc        1 GM6      0.085700
     32 HAC2       -2.0950   -0.0710   -3.1820 hc        1 GM6      0.085700
     33 HAB        -1.7680   -1.9620   -1.1040 hc        1 GM6      0.090700
     34 HAM        -0.7530   -0.7970    0.8040 hn        1 GM6      0.341500
     35 HAN         0.6910    1.4530    0.3600 h1        1 GM6      0.093700
     36 HBB         2.8920    1.7350   -0.5840 hn        1 GM6      0.338500
     37 HBA1        5.0710    1.2140   -0.6490 h1        1 GM6      0.041367
     38 HBA2        4.5840   -0.2350   -1.1310 h1        1 GM6      0.041367
     39 HBA3        4.7790    0.0580    0.4290 h1        1 GM6      0.041367
     40 HAO1        1.4820   -0.1080    2.5800 hc        1 GM6      0.066200
     41 HAO2       -0.0830    0.3050    2.5800 hc        1 GM6      0.066200
     42 HAT         2.6220    2.4780    1.2590 DU        1 GM6      0.220500
     43 HAU         2.9770    4.5850    2.5300 DU        1 GM6      0.220500
     44 HAV         1.9940    5.6730    5.0160 ha        1 GM6      0.071500
     45 HAX         0.5560    5.1460    6.8360 ha        1 GM6      0.071500
     46 HAW        -0.7230    3.1170    6.8480 ha        1 GM6      0.071500
     47 HAS        -0.5320    1.6160    4.9920 ha        1 GM6      0.071500
     48 HAA1        0.0680   -1.8490   -3.3030 hc        1 GM6      0.062200
     49 HAA2        0.3590   -2.6400   -1.9290 hc        1 GM6      0.062200
     50 HAH        -2.0330   -3.4630   -3.0010 hc        1 GM6      0.039700
     51 HAJ1       -0.9770   -2.9330   -5.0770 hc        1 GM6      0.036867
     52 HAJ2        0.2240   -3.9460   -4.6840 hc        1 GM6      0.036867
     53 HAJ3       -1.2700   -4.5330   -4.9550 hc        1 GM6      0.036867
     54 HAI1       -0.9810   -4.7560   -1.4190 hc        1 GM6      0.036867
     55 HAI2       -1.0200   -5.6080   -2.7700 hc        1 GM6      0.036867
     56 HAI3        0.3180   -4.8670   -2.3330 hc        1 GM6      0.036867
@<TRIPOS>BOND
     1    1    2 1   
     2    1   29 1   
     3    2    3 1   
     4    2   30 1   
     5    3    4 2   
     6    3    5 1   
     7    5    6 1   
     8    5   31 1   
     9    5   32 1   
    10    6    7 1   
    11    6   25 1   
    12    6   33 1   
    13    7    8 2   
    14    7    9 1   
    15    9   10 1   
    16    9   34 1   
    17   10   11 1   
    18   10   15 1   
    19   10   35 1   
    20   11   12 2   
    21   11   13 1   
    22   13   14 1   
    23   13   36 1   
    24   14   37 1   
    25   14   38 1   
    26   14   39 1   
    27   15   16 1   
    28   15   40 1   
    29   15   41 1   
    30   16   17 2   
    31   16   24 1   
    32   17   18 2   
    33   18   19 1   
    34   19   24 3   
    35   20   21 3   
    36   20   44 1   
    37   21   45 1   
    38   22   23 3   
    39   22   46 1   
    40   23   47 1   
    41   25   26 1   
    42   25   48 1   
    43   25   49 1   
    44   26   27 1   
    45   26   28 1   
    46   26   50 1   
    47   27   51 1   
    48   27   52 1   
    49   27   53 1   
    50   28   54 1   
    51   28   55 1   
    52   28   56 1   
@<TRIPOS>SUBSTRUCTURE
     1 GM6         1 TEMP              0 ****  ****    0 ROOT
