@<TRIPOS>MOLECULE
GM6
   59    60     1     0     0
SMALL
bcc


@<TRIPOS>ATOM
      1 OAG         1.6980   -1.8900   -0.7590 oh        1 GM6     -0.370300
      2 NAF         1.5450   -0.5510   -0.8650 n4        1 GM6     -0.458300
      3 CAD         2.3000    0.1010    0.3200 c         1 GM6      0.579100
      4 OAE         1.6920    1.0200    0.8340 o         1 GM6     -0.370100
      5 CAC         3.6560   -0.4510    0.6410 c3        1 GM6     -0.147400
      6 CAB         4.0030   -0.2270    2.1210 c3        1 GM6     -0.121700
      7 CAK         5.4780    0.1220    2.2330 c         1 GM6      0.551100
      8 OAL         6.3140    0.1180    1.3430 o         1 GM6     -0.421100
      9 NAM         5.9640    0.5270    3.6090 n4        1 GM6     -0.679800
     10 CAN         7.4120    0.9210    3.6880 c3        1 GM6      0.041500
     11 CAY         8.3180   -0.3100    3.7990 c         1 GM6      0.511100
     12 OAZ         7.9210   -1.4610    3.9120 o         1 GM6     -0.385100
     13 NBB         9.7930   -0.0540    3.7950 n4        1 GM6     -0.650800
     14 CBA        10.6020   -1.2840    4.0370 c3        1 GM6      0.078100
     15 CAO         7.6840    1.8550    4.9110 c3        1 GM6      0.015800
     16 CAP         6.6090    2.8100    5.1330 cc        1 GM6     -0.337400
     17 CAT         6.6410    4.1970    4.8720 cd        1 GM6      0.006900
     18 NAU         5.5050    4.7970    5.3650 na        1 GM6     -0.134400
     19 CAR         4.7170    3.8230    6.0030 ca        1 GM6     -0.052200
     20 CAV         3.5020    3.9420    6.6970 ca        1 GM6     -0.086000
     21 CAX         2.9740    2.7920    7.2660 ca        1 GM6     -0.097000
     22 CAW         3.6300    1.5490    7.1620 ca        1 GM6     -0.092000
     23 CAS         4.8250    1.4180    6.4710 ca        1 GM6     -0.182000
     24 CAQ         5.3870    2.5520    5.8750 ca        1 GM6     -0.119800
     25 CAA         3.6950   -1.4690    2.9580 c3        1 GM6     -0.100400
     26 CAH         2.2150   -1.8430    2.9420 c3        1 GM6     -0.058700
     27 CAJ         2.0450   -3.2240    3.5480 c3        1 GM6     -0.110600
     28 CAI         1.3710   -0.8340    3.6900 c3        1 GM6     -0.110600
     29 HAG         1.1000   -2.3430   -1.4050 ho        1 GM6      0.505000
     30 HAF         0.5410   -0.2730   -0.8150 hn        1 GM6      0.487800
     31 HAC1        3.7050   -1.5550    0.4070 hc        1 GM6      0.142200
     32 HAC2        4.3960    0.0670   -0.0370 hc        1 GM6      0.142200
     33 HAB         3.4040    0.6460    2.5250 hc        1 GM6      0.132700
     34 HAM         5.4040    1.3530    3.9380 hn        1 GM6      0.504300
     35 HAN         7.6570    1.4810    2.7320 hx        1 GM6      0.153700
     36 HBB        10.0090    0.6410    4.5270 hn        1 GM6      0.483300
     37 HBA1       11.6930   -1.0010    4.0110 hx        1 GM6      0.135367
     38 HBA2       10.3840   -2.0450    3.2380 hx        1 GM6      0.135367
     39 HBA3       10.3420   -1.7160    5.0420 hx        1 GM6      0.135367
     40 HAO1        8.6450    2.3980    4.6940 hc        1 GM6      0.086700
     41 HAO2        7.8170    1.2170    5.8280 hc        1 GM6      0.086700
     42 HAT         7.4180    4.7850    4.3690 h4        1 GM6      0.195000
     43 HAU         5.3170    5.7730    5.3750 hn        1 GM6      0.343700
     44 HAV         2.9970    4.9150    6.8060 ha        1 GM6      0.178000
     45 HAX         2.0310    2.8530    7.8380 ha        1 GM6      0.179000
     46 HAW         3.1890    0.6740    7.6680 ha        1 GM6      0.162000
     47 HAS         5.3600    0.4590    6.4660 ha        1 GM6      0.108000
     48 HAA1        3.9850   -1.2940    4.0280 hc        1 GM6      0.071200
     49 HAA2        4.2950   -2.3370    2.5710 hc        1 GM6      0.071200
     50 HAH         1.8690   -1.8840    1.8680 hc        1 GM6      0.024700
     51 HAJ1        2.6310   -3.9840    2.9780 hc        1 GM6      0.060367
     52 HAJ2        2.3840   -3.2320    4.6120 hc        1 GM6      0.060367
     53 HAJ3        0.9670   -3.5190    3.5240 hc        1 GM6      0.060367
     54 HAI1        1.4000    0.1660    3.1920 hc        1 GM6      0.060367
     55 HAI2        1.7230   -0.7230    4.7440 hc        1 GM6      0.060367
     56 HAI3        0.3060   -1.1770    3.7220 hc        1 GM6      0.060367
     57 HAF2        1.9480   -0.2100   -1.7600 hn        1 GM6      0.487800
     58 HAM2        5.7790   -0.2450    4.2690 hn        1 GM6      0.504300
     59 HBB2       10.0570    0.3460    2.8810 hn        1 GM6      0.483300
@<TRIPOS>BOND
     1    1    2 1   
     2    1   29 1   
     3    2    3 1   
     4    2   30 1   
     5    2   57 1   
     6    3    4 2   
     7    3    5 1   
     8    5    6 1   
     9    5   31 1   
    10    5   32 1   
    11    6    7 1   
    12    6   25 1   
    13    6   33 1   
    14    7    8 2   
    15    7    9 1   
    16    9   10 1   
    17    9   34 1   
    18    9   58 1   
    19   10   11 1   
    20   10   15 1   
    21   10   35 1   
    22   11   12 2   
    23   11   13 1   
    24   13   14 1   
    25   13   36 1   
    26   13   59 1   
    27   14   37 1   
    28   14   38 1   
    29   14   39 1   
    30   15   16 1   
    31   15   40 1   
    32   15   41 1   
    33   16   17 2   
    34   16   24 1   
    35   17   18 1   
    36   17   42 1   
    37   18   19 1   
    38   18   43 1   
    39   19   20 ar  
    40   19   24 ar  
    41   20   21 ar  
    42   20   44 1   
    43   21   22 ar  
    44   21   45 1   
    45   22   23 ar  
    46   22   46 1   
    47   23   24 ar  
    48   23   47 1   
    49   25   26 1   
    50   25   48 1   
    51   25   49 1   
    52   26   27 1   
    53   26   28 1   
    54   26   50 1   
    55   27   51 1   
    56   27   52 1   
    57   27   53 1   
    58   28   54 1   
    59   28   55 1   
    60   28   56 1   
@<TRIPOS>SUBSTRUCTURE
     1 GM6         1 TEMP              0 ****  ****    0 ROOT
