@<TRIPOS>MOLECULE
GM6
   59    60     1     0     0
SMALL
bcc


@<TRIPOS>ATOM
      1 OAG         2.1340   -0.3520   -1.6630 oh        1 GM6     -0.370300
      2 NAF         1.5580    0.5600   -0.8490 ny        1 GM6     -0.457300
      3 CAD         2.4040    0.6400    0.4450 c         1 GM6      0.578100
      4 OAE         2.2920    1.6960    1.0390 o         1 GM6     -0.395100
      5 CAC         3.2280   -0.5650    0.7740 c3        1 GM6     -0.150400
      6 CAB         3.8130   -0.5150    2.1860 c3        1 GM6     -0.123700
      7 CAK         5.1570    0.1910    2.1920 c         1 GM6      0.545100
      8 OAL         5.8880    0.4160    1.2410 o         1 GM6     -0.415100
      9 NAM         5.6460    0.6500    3.5510 ny        1 GM6     -0.679800
     10 CAN         7.1260    0.8830    3.6590 c3        1 GM6      0.036500
     11 CAY         7.8810   -0.4340    3.8650 c         1 GM6      0.511100
     12 OAZ         7.3540   -1.5330    3.9620 o         1 GM6     -0.392100
     13 NBB         9.3710   -0.3370    3.9730 ny        1 GM6     -0.650800
     14 CBA        10.0280   -1.6510    4.2270 c3        1 GM6      0.078100
     15 CAO         7.4670    1.8540    4.8350 c3        1 GM6      0.016800
     16 CAP         6.5000    2.9330    4.9630 cc        1 GM6     -0.337400
     17 CAT         6.6950    4.2900    4.6230 cd        1 GM6      0.007900
     18 NAU         5.6190    5.0400    5.0370 na        1 GM6     -0.133400
     19 CAR         4.7060    4.1990    5.6970 ca        1 GM6     -0.052200
     20 CAV         3.4880    4.4930    6.3340 ca        1 GM6     -0.086000
     21 CAX         2.8160    3.4460    6.9450 ca        1 GM6     -0.097000
     22 CAW         3.3320    2.1340    6.9390 ca        1 GM6     -0.091000
     23 CAS         4.5290    1.8310    6.3070 ca        1 GM6     -0.182000
     24 CAQ         5.2340    2.8570    5.6700 ca        1 GM6     -0.118800
     25 CAA         4.0030   -1.9460    2.7090 c3        1 GM6     -0.096400
     26 CAH         2.7270   -2.4950    3.3400 c3        1 GM6     -0.065700
     27 CAJ         2.8020   -4.0090    3.3950 c3        1 GM6     -0.107100
     28 CAI         2.5100   -1.9330    4.7290 c3        1 GM6     -0.107100
     29 HAG         1.6480   -0.3790   -2.5250 ho        1 GM6      0.507000
     30 HAF         0.5890    0.2750   -0.6000 hn        1 GM6      0.489800
     31 HAC1        4.0420   -0.6630   -0.0070 hc        1 GM6      0.153700
     32 HAC2        2.5850   -1.4920    0.6820 hc        1 GM6      0.153700
     33 HAB         3.1020    0.0380    2.8690 hc        1 GM6      0.125700
     34 HAM         5.3440   -0.0260    4.2700 hn        1 GM6      0.503300
     35 HAN         7.4590    1.3570    2.6820 hx        1 GM6      0.159700
     36 HBB         9.6020    0.3100    4.7450 hn        1 GM6      0.484300
     37 HBA1       11.1410   -1.4840    4.2960 hx        1 GM6      0.135367
     38 HBA2        9.6470   -2.0860    5.1920 hx        1 GM6      0.135367
     39 HBA3        9.7990   -2.3600    3.3850 hx        1 GM6      0.135367
     40 HAO1        7.4990    1.2620    5.7920 hc        1 GM6      0.085200
     41 HAO2        8.4890    2.2730    4.6220 hc        1 GM6      0.085200
     42 HAT         7.5490    4.7560    4.1170 h4        1 GM6      0.195000
     43 HAU         5.5400    6.0290    4.9810 hn        1 GM6      0.343700
     44 HAV         3.0930    5.5210    6.3660 ha        1 GM6      0.178000
     45 HAX         1.8670    3.6450    7.4730 ha        1 GM6      0.179000
     46 HAW         2.7780    1.3450    7.4760 ha        1 GM6      0.162000
     47 HAS         4.9520    0.8200    6.3800 ha        1 GM6      0.107000
     48 HAA1        4.8270   -1.9850    3.4710 hc        1 GM6      0.073700
     49 HAA2        4.3170   -2.6110    1.8590 hc        1 GM6      0.073700
     50 HAH         1.8510   -2.2070    2.6930 hc        1 GM6      0.044700
     51 HAJ1        3.6800   -4.3410    4.0000 hc        1 GM6      0.057700
     52 HAJ2        2.8890   -4.4400    2.3690 hc        1 GM6      0.057700
     53 HAJ3        1.8750   -4.4170    3.8700 hc        1 GM6      0.057700
     54 HAI1        2.4770   -0.8170    4.7160 hc        1 GM6      0.057700
     55 HAI2        1.5370   -2.3050    5.1400 hc        1 GM6      0.057700
     56 HAI3        3.3210   -2.2630    5.4220 hc        1 GM6      0.057700
     57 HAF2        1.5260    1.5020   -1.2930 hn        1 GM6      0.489800
     58 HAM2        5.1820    1.5660    3.7790 hn        1 GM6      0.503300
     59 HBB2        9.7440    0.0620    3.0980 hn        1 GM6      0.484300
@<TRIPOS>BOND
     1    1    2 1   
     2    1   29 1   
     3    2    3 1   
     4    2   30 1   
     5    2   57 1   
     6    3    4 2   
     7    3    5 1   
     8    5    6 1   
     9    5   31 1   
    10    5   32 1   
    11    6    7 1   
    12    6   25 1   
    13    6   33 1   
    14    7    8 2   
    15    7    9 1   
    16    9   10 1   
    17    9   34 1   
    18    9   58 1   
    19   10   11 1   
    20   10   15 1   
    21   10   35 1   
    22   11   12 2   
    23   11   13 1   
    24   13   14 1   
    25   13   36 1   
    26   13   59 1   
    27   14   37 1   
    28   14   38 1   
    29   14   39 1   
    30   15   16 1   
    31   15   40 1   
    32   15   41 1   
    33   16   17 2   
    34   16   24 1   
    35   17   18 1   
    36   17   42 1   
    37   18   19 1   
    38   18   43 1   
    39   19   20 ar  
    40   19   24 ar  
    41   20   21 ar  
    42   20   44 1   
    43   21   22 ar  
    44   21   45 1   
    45   22   23 ar  
    46   22   46 1   
    47   23   24 ar  
    48   23   47 1   
    49   25   26 1   
    50   25   48 1   
    51   25   49 1   
    52   26   27 1   
    53   26   28 1   
    54   26   50 1   
    55   27   51 1   
    56   27   52 1   
    57   27   53 1   
    58   28   54 1   
    59   28   55 1   
    60   28   56 1   
@<TRIPOS>SUBSTRUCTURE
     1 GM6         1 TEMP              0 ****  ****    0 ROOT
