@<TRIPOS>MOLECULE
GM6
   56    57     1     0     0
SMALL
bcc


@<TRIPOS>ATOM
      1 OAG        -5.2590   -0.3680    2.9300 oh        1 GM6     -0.437100
      2 NAF        -4.4980    0.6250    2.4610 n         1 GM6     -0.353400
      3 CAD        -3.3100    0.1990    1.7840 c         1 GM6      0.590100
      4 OAE        -3.2690   -0.9300    1.2670 o         1 GM6     -0.566100
      5 CAC        -2.2060    1.2220    1.6540 c3        1 GM6     -0.151400
      6 CAB        -1.2970    0.9500    0.4620 c3        1 GM6     -0.126700
      7 CAK         0.1490    1.2700    0.8470 c         1 GM6      0.661100
      8 OAL         0.4270    1.9630    1.8520 o         1 GM6     -0.643100
      9 NAM         1.1450    0.7940    0.0220 n         1 GM6     -0.547900
     10 CAN         2.5410    0.8870    0.3760 c3        1 GM6      0.038700
     11 CAY         3.1600    2.2310   -0.0970 c         1 GM6      0.642100
     12 OAZ         4.0320    2.2580   -0.9880 o         1 GM6     -0.620100
     13 NBB         2.7150    3.3670    0.5320 n         1 GM6     -0.567900
     14 CBA         3.1930    4.6710    0.2040 c3        1 GM6      0.078300
     15 CAO         3.3890   -0.2560   -0.2170 c3        1 GM6     -0.013200
     16 CAP         2.8260   -1.5800    0.0660 cc        1 GM6     -0.157400
     17 CAT         3.0410   -2.3640    1.2020 cd        1 GM6     -0.090100
     18 NAU         2.3380   -3.5650    1.0980 na        1 GM6     -0.189400
     19 CAR         1.6560   -3.5740   -0.1210 ca        1 GM6     -0.045200
     20 CAV         0.8170   -4.5400   -0.7000 ca        1 GM6     -0.138000
     21 CAX         0.2820   -4.2630   -1.9480 ca        1 GM6     -0.112000
     22 CAW         0.5650   -3.0620   -2.6230 ca        1 GM6     -0.151000
     23 CAS         1.3890   -2.0970   -2.0640 ca        1 GM6     -0.100000
     24 CAQ         1.9440   -2.3320   -0.8040 ca        1 GM6     -0.095800
     25 CAA        -1.6780    1.7840   -0.7550 c3        1 GM6     -0.073400
     26 CAH        -3.0510    1.4380   -1.3140 c3        1 GM6     -0.067700
     27 CAJ        -3.4800    2.5010   -2.3050 c3        1 GM6     -0.095100
     28 CAI        -3.0610    0.0730   -1.9690 c3        1 GM6     -0.095100
     29 HAG        -5.6670   -0.7840    2.1440 ho        1 GM6      0.435000
     30 HAF        -4.3020    1.2500    3.2350 hn        1 GM6      0.297500
     31 HAC1       -1.6090    1.1820    2.6090 hc        1 GM6      0.090200
     32 HAC2       -2.6320    2.2580    1.5740 hc        1 GM6      0.090200
     33 HAB        -1.3660   -0.1460    0.1960 hc        1 GM6      0.103700
     34 HAM         0.9110    0.1490   -0.7000 hn        1 GM6      0.329500
     35 HAN         2.6290    0.8520    1.5060 h1        1 GM6      0.078700
     36 HBB         2.0080    3.2910    1.2290 hn        1 GM6      0.338500
     37 HBA1        3.6210    5.1630    1.1200 h1        1 GM6      0.042033
     38 HBA2        3.9910    4.6100   -0.5830 h1        1 GM6      0.042033
     39 HBA3        2.3500    5.3080   -0.1800 h1        1 GM6      0.042033
     40 HAO1        3.4830   -0.1080   -1.3280 hc        1 GM6      0.076200
     41 HAO2        4.4200   -0.1590    0.2170 hc        1 GM6      0.076200
     42 HAT         3.6510   -2.1500    2.0820 h4        1 GM6      0.168000
     43 HAU         2.3210   -4.2850    1.7680 hn        1 GM6      0.301700
     44 HAV         0.5930   -5.4810   -0.1800 ha        1 GM6      0.134000
     45 HAX        -0.3810   -5.0000   -2.4270 ha        1 GM6      0.132000
     46 HAW         0.1210   -2.8920   -3.6160 ha        1 GM6      0.131000
     47 HAS         1.6190   -1.1670   -2.6030 ha        1 GM6      0.134000
     48 HAA1       -1.6580    2.8700   -0.4720 hc        1 GM6      0.051700
     49 HAA2       -0.9140    1.6350   -1.5640 hc        1 GM6      0.051700
     50 HAH        -3.7900    1.4250   -0.4610 hc        1 GM6      0.049700
     51 HAJ1       -2.7620    2.5530   -3.1580 hc        1 GM6      0.038367
     52 HAJ2       -4.4930    2.2650   -2.7090 hc        1 GM6      0.038367
     53 HAJ3       -3.5190    3.5030   -1.8130 hc        1 GM6      0.038367
     54 HAI1       -2.2610   -0.0000   -2.7440 hc        1 GM6      0.038367
     55 HAI2       -2.9000   -0.7280   -1.2060 hc        1 GM6      0.038367
     56 HAI3       -4.0460   -0.1080   -2.4630 hc        1 GM6      0.038367
@<TRIPOS>BOND
     1    1    2 1   
     2    1   29 1   
     3    2    3 1   
     4    2   30 1   
     5    3    4 2   
     6    3    5 1   
     7    5    6 1   
     8    5   31 1   
     9    5   32 1   
    10    6    7 1   
    11    6   25 1   
    12    6   33 1   
    13    7    8 2   
    14    7    9 1   
    15    9   10 1   
    16    9   34 1   
    17   10   11 1   
    18   10   15 1   
    19   10   35 1   
    20   11   12 2   
    21   11   13 1   
    22   13   14 1   
    23   13   36 1   
    24   14   37 1   
    25   14   38 1   
    26   14   39 1   
    27   15   16 1   
    28   15   40 1   
    29   15   41 1   
    30   16   17 2   
    31   16   24 1   
    32   17   18 1   
    33   17   42 1   
    34   18   19 1   
    35   18   43 1   
    36   19   20 ar  
    37   19   24 ar  
    38   20   21 ar  
    39   20   44 1   
    40   21   22 ar  
    41   21   45 1   
    42   22   23 ar  
    43   22   46 1   
    44   23   24 ar  
    45   23   47 1   
    46   25   26 1   
    47   25   48 1   
    48   25   49 1   
    49   26   27 1   
    50   26   28 1   
    51   26   50 1   
    52   27   51 1   
    53   27   52 1   
    54   27   53 1   
    55   28   54 1   
    56   28   55 1   
    57   28   56 1   
@<TRIPOS>SUBSTRUCTURE
     1 GM6         1 TEMP              0 ****  ****    0 ROOT
