@<TRIPOS>MOLECULE
GM8
   32    32     1     0     0
SMALL
bcc


@<TRIPOS>ATOM
      1 O           0.5210   -0.4810   -0.4130 o         1 GM8     -0.510000
      2 C           1.4680    0.1660    0.0400 c         1 GM8      0.636100
      3 CA          2.0650    0.0500    1.4250 c3        1 GM8     -0.136700
      4 CZ          0.9320    0.0180    2.4450 c3        1 GM8     -0.078400
      5 CQ          0.1860    1.3280    2.4900 c3        1 GM8     -0.101100
      6 CB          2.9350   -1.2060    1.5040 c3        1 GM8     -0.050700
      7 CG          3.8520   -1.3390    0.2650 c3        1 GM8      0.152500
      8 N           4.6560   -0.1520    0.0360 n8        1 GM8     -0.919800
      9 CD1         4.6460   -2.6500    0.3900 c3        1 GM8     -0.113400
     10 CE1         5.4570   -2.7010    1.6650 c3        1 GM8     -0.079400
     11 CE2         4.5780   -2.5060    2.8810 c3        1 GM8     -0.079400
     12 CD2         3.7550   -1.2370    2.7850 c3        1 GM8     -0.076400
     13 OXT         1.9680    1.0800   -0.8400 oh        1 GM8     -0.585100
     14 HG          2.7070    0.9540    1.6270 hc        1 GM8      0.069700
     15 HZ1         0.2250   -0.8110    2.1760 hc        1 GM8      0.055700
     16 HZ2         1.3500   -0.2050    3.4610 hc        1 GM8      0.055700
     17 HQ3        -0.2410    1.5690    1.4850 hc        1 GM8      0.040033
     18 HQ2         0.8630    2.1620    2.7970 hc        1 GM8      0.040033
     19 HQ1        -0.6530    1.2660    3.2240 hc        1 GM8      0.040033
     20 HB          2.2510   -2.1020    1.4930 hc        1 GM8      0.069700
     21 HA          3.1790   -1.4390   -0.6440 h1        1 GM8      0.072700
     22 H2          5.2740    0.0120    0.8070 hn        1 GM8      0.351300
     23 H3          2.7780    1.4760   -0.4870 ho        1 GM8      0.441000
     24 HD12        5.3230   -2.7690   -0.4960 hc        1 GM8      0.048700
     25 HD11        3.9190   -3.5030    0.3730 hc        1 GM8      0.048700
     26 HE12        5.9780   -3.6920    1.7360 hc        1 GM8      0.039700
     27 HE11        6.2540   -1.9110    1.6450 hc        1 GM8      0.039700
     28 HE22        5.2150   -2.4650    3.8030 hc        1 GM8      0.044200
     29 HE21        3.8900   -3.3860    2.9870 hc        1 GM8      0.044200
     30 HD21        4.4270   -0.3410    2.8350 hc        1 GM8      0.043700
     31 HD22        3.0720   -1.1860    3.6740 hc        1 GM8      0.043700
     32 HN3         5.2030   -0.2680   -0.7950 hn        1 GM8      0.351300
@<TRIPOS>BOND
     1    1    2 2   
     2    2    3 1   
     3    2   13 1   
     4    3    4 1   
     5    3    6 1   
     6    3   14 1   
     7    4    5 1   
     8    4   15 1   
     9    4   16 1   
    10    5   17 1   
    11    5   18 1   
    12    5   19 1   
    13    6    7 1   
    14    6   12 1   
    15    6   20 1   
    16    7    8 1   
    17    7    9 1   
    18    7   21 1   
    19    8   22 1   
    20    8   32 1   
    21    9   10 1   
    22    9   24 1   
    23    9   25 1   
    24   10   11 1   
    25   10   26 1   
    26   10   27 1   
    27   11   12 1   
    28   11   28 1   
    29   11   29 1   
    30   12   30 1   
    31   12   31 1   
    32   13   23 1   
@<TRIPOS>SUBSTRUCTURE
     1 GM8         1 TEMP              0 ****  ****    0 ROOT
