@<TRIPOS>MOLECULE
GM8
   31    31     1     0     0
SMALL
bcc


@<TRIPOS>ATOM
      1 O          -2.1700   -1.2640    0.9390 o         1 GM8     -0.847800
      2 C          -1.6780   -0.9630   -0.1840 c         1 GM8      0.908600
      3 CA         -0.9950    0.4180   -0.3670 c3        1 GM8     -0.188700
      4 CZ         -1.8500    1.5020    0.2670 c3        1 GM8     -0.061400
      5 CQ         -3.0980    1.7620   -0.5370 c3        1 GM8     -0.083100
      6 CB          0.4080    0.4140    0.2330 c3        1 GM8     -0.036700
      7 CG          1.1040   -0.9590    0.0940 c3        1 GM8      0.166500
      8 N           1.2080   -1.4310   -1.2820 n3        1 GM8     -0.913800
      9 CD1         2.4850   -0.8790    0.7690 c3        1 GM8     -0.067400
     10 CE1         3.3410    0.2280    0.1940 c3        1 GM8     -0.066400
     11 CE2         2.6360    1.5660    0.2830 c3        1 GM8     -0.068400
     12 CD2         1.2720    1.5120   -0.3720 c3        1 GM8     -0.072400
     13 OXT        -1.6990   -1.7340   -1.1900 o         1 GM8     -0.847800
     14 HG         -0.9180    0.6130   -1.4720 hc        1 GM8      0.038700
     15 HZ1        -2.1350    1.1650    1.3000 hc        1 GM8      0.028700
     16 HZ2        -1.2650    2.4550    0.3660 hc        1 GM8      0.028700
     17 HQ3        -2.8450    2.1640   -1.5480 hc        1 GM8      0.022367
     18 HQ2        -3.6660    0.8080   -0.6680 hc        1 GM8      0.022367
     19 HQ1        -3.7530    2.5040   -0.0180 hc        1 GM8      0.022367
     20 HB          0.3130    0.6030    1.3400 hc        1 GM8      0.041700
     21 HA          0.4820   -1.6820    0.7140 h1        1 GM8      0.051700
     22 H2          1.2740   -2.4310   -1.2660 hn        1 GM8      0.356800
     23 H3          0.3590   -1.1970   -1.7750 hn        1 GM8      0.356800
     24 HD12        2.3220   -0.6980    1.8640 hc        1 GM8      0.024200
     25 HD11        3.0200   -1.8580    0.6640 hc        1 GM8      0.024200
     26 HE12        4.3150    0.2790    0.7470 hc        1 GM8      0.028200
     27 HE11        3.5720    0.0010   -0.8800 hc        1 GM8      0.028200
     28 HE22        2.5220    1.8570    1.3610 hc        1 GM8      0.017700
     29 HE21        3.2620    2.3540   -0.2120 hc        1 GM8      0.017700
     30 HD21        1.3910    1.3310   -1.4720 hc        1 GM8      0.034700
     31 HD22        0.7620    2.5030   -0.2470 hc        1 GM8      0.034700
@<TRIPOS>BOND
     1    1    2 1   
     2    2    3 1   
     3    2   13 1   
     4    3    4 1   
     5    3    6 1   
     6    3   14 1   
     7    4    5 1   
     8    4   15 1   
     9    4   16 1   
    10    5   17 1   
    11    5   18 1   
    12    5   19 1   
    13    6    7 1   
    14    6   12 1   
    15    6   20 1   
    16    7    8 1   
    17    7    9 1   
    18    7   21 1   
    19    8   22 1   
    20    8   23 1   
    21    9   10 1   
    22    9   24 1   
    23    9   25 1   
    24   10   11 1   
    25   10   26 1   
    26   10   27 1   
    27   11   12 1   
    28   11   28 1   
    29   11   29 1   
    30   12   30 1   
    31   12   31 1   
@<TRIPOS>SUBSTRUCTURE
     1 GM8         1 TEMP              0 ****  ****    0 ROOT
