@<TRIPOS>MOLECULE
GM8
   32    32     1     0     0
SMALL
bcc


@<TRIPOS>ATOM
      1 O           0.5110   -0.5060   -0.4030 o         1 GM8     -0.510000
      2 C           1.4550    0.1500    0.0440 c         1 GM8      0.636100
      3 CA          2.0590    0.0430    1.4270 c3        1 GM8     -0.136700
      4 CZ          0.9310    0.0060    2.4520 c3        1 GM8     -0.078400
      5 CQ          0.1740    1.3090    2.4950 c3        1 GM8     -0.101100
      6 CB          2.9380   -1.2060    1.5060 c3        1 GM8     -0.050700
      7 CG          3.8510   -1.3360    0.2630 c3        1 GM8      0.152500
      8 N           4.6460   -0.1440    0.0280 n3        1 GM8     -0.919800
      9 CD1         4.6550   -2.6410    0.3890 c3        1 GM8     -0.113400
     10 CE1         5.4720   -2.6830    1.6610 c3        1 GM8     -0.079400
     11 CE2         4.5960   -2.4900    2.8800 c3        1 GM8     -0.079400
     12 CD2         3.7640   -1.2280    2.7840 c3        1 GM8     -0.076400
     13 OXT         1.9450    1.0650   -0.8410 oh        1 GM8     -0.585100
     14 HG          2.6950    0.9520    1.6230 hc        1 GM8      0.069700
     15 HZ1         0.2290   -0.8310    2.1890 hc        1 GM8      0.055700
     16 HZ2         1.3550   -0.2100    3.4660 hc        1 GM8      0.055700
     17 HQ3         0.8450    2.1500    2.7950 hc        1 GM8      0.040033
     18 HQ2        -0.6610    1.2430    3.2330 hc        1 GM8      0.040033
     19 HQ1        -0.2590    1.5420    1.4910 hc        1 GM8      0.040033
     20 HB          2.2610   -2.1070    1.5000 hc        1 GM8      0.069700
     21 HA          3.1750   -1.4440   -0.6420 h1        1 GM8      0.072700
     22 H2          5.2650    0.0260    0.7960 hn        1 GM8      0.351300
     23 H3          2.7530    1.4670   -0.4920 ho        1 GM8      0.441000
     24 HD12        3.9340   -3.5000    0.3770 hc        1 GM8      0.048700
     25 HD11        5.3290   -2.7570   -0.4990 hc        1 GM8      0.048700
     26 HE12        6.2630   -1.8870    1.6350 hc        1 GM8      0.039700
     27 HE11        6.0000   -3.6700    1.7320 hc        1 GM8      0.039700
     28 HE22        3.9160   -3.3760    2.9910 hc        1 GM8      0.044200
     29 HE21        5.2370   -2.4420    3.7990 hc        1 GM8      0.044200
     30 HD21        3.0840   -1.1790    3.6750 hc        1 GM8      0.043700
     31 HD22        4.4290   -0.3270    2.8280 hc        1 GM8      0.043700
     32 HN3         5.1900   -0.2590   -0.8050 hn        1 GM8      0.351300
@<TRIPOS>BOND
     1    1    2 2   
     2    2    3 1   
     3    2   13 1   
     4    3    4 1   
     5    3    6 1   
     6    3   14 1   
     7    4    5 1   
     8    4   15 1   
     9    4   16 1   
    10    5   17 1   
    11    5   18 1   
    12    5   19 1   
    13    6    7 1   
    14    6   12 1   
    15    6   20 1   
    16    7    8 1   
    17    7    9 1   
    18    7   21 1   
    19    8   22 1   
    20    8   32 1   
    21    9   10 1   
    22    9   24 1   
    23    9   25 1   
    24   10   11 1   
    25   10   26 1   
    26   10   27 1   
    27   11   12 1   
    28   11   28 1   
    29   11   29 1   
    30   12   30 1   
    31   12   31 1   
    32   13   23 1   
@<TRIPOS>SUBSTRUCTURE
     1 GM8         1 TEMP              0 ****  ****    0 ROOT
