@<TRIPOS>MOLECULE
GM8
   31    30     1     0     0
SMALL
bcc


@<TRIPOS>ATOM
      1 O          -1.0160   -0.7540   -2.3260 o         1 GM8     -0.583500
      2 C          -1.2780   -0.5130   -1.1200 c1        1 GM8      0.324000
      3 CA         -0.2290   -0.8440   -0.0130 c2        1 GM8     -0.171000
      4 CZ          0.0360   -2.3890    0.0080 c3        1 GM8     -0.143000
      5 CQ         -1.2280   -3.1120    0.4170 c3        1 GM8     -0.202000
      6 CB          0.9510   -0.1790   -0.2850 c3        1 GM8     -0.106000
      7 CG          0.6930    1.2280   -0.9970 c3        1 GM8     -0.009000
      8 N           0.1420    0.9960   -2.2700 n3        1 GM8     -0.349000
      9 CD1        -0.2350    2.1170   -0.2250 c3        1 GM8     -0.171000
     10 CE1        -0.3290    1.7340    1.0680 c3        1 GM8     -0.144000
     11 CE2         0.6900    1.2890    1.8190 c3        1 GM8     -0.148000
     12 CD2         1.6180    0.3960    1.0230 c3        1 GM8     -0.149000
     13 OXT        -2.3770    0.0160   -0.8080 o         1 GM8     -0.583500
     14 HG         -0.5720   -0.5590    0.8580 ha        1 GM8      0.080000
     15 HZ1         0.7480   -2.5890    0.6490 hc        1 GM8      0.068500
     16 HZ2         0.3080   -2.6860   -0.8840 hc        1 GM8      0.068500
     17 HQ3        -1.6760   -3.4630   -0.3810 hc        1 GM8      0.061000
     18 HQ2        -1.0010   -3.8530    1.0170 hc        1 GM8      0.061000
     19 HQ1        -1.8260   -2.4880    0.8790 hc        1 GM8      0.061000
     20 HB          1.5750   -0.7320   -0.7950 hc        1 GM8      0.084000
     21 HA          1.5500    1.6870   -1.1040 h1        1 GM8      0.057000
     22 H2          0.8110    0.9870   -2.8950 hn        1 GM8      0.163000
     23 H3         -0.4550    1.6630   -2.4710 hn        1 GM8      0.163000
     24 HD12       -1.1250    2.0820   -0.6340 hc        1 GM8      0.098000
     25 HD11        0.0990    3.0370   -0.2620 hc        1 GM8      0.098000
     26 HE12       -0.7030    2.5020    1.5500 hc        1 GM8      0.064000
     27 HE11       -1.0080    1.0280    1.0910 hc        1 GM8      0.064000
     28 HE22        0.3320    0.7840    2.5760 hc        1 GM8      0.058000
     29 HE21        1.1970    2.0560    2.1570 hc        1 GM8      0.058000
     30 HD21        2.4100    0.9110    0.7710 hc        1 GM8      0.063500
     31 HD22        1.8950   -0.3510    1.5880 hc        1 GM8      0.063500
@<TRIPOS>BOND
     1    1    2 1   
     2    2   13 1   
     3    3    4 1   
     4    3    6 1   
     5    3   14 1   
     6    4    5 1   
     7    4   15 1   
     8    4   16 1   
     9    5   17 1   
    10    5   18 1   
    11    5   19 1   
    12    6    7 1   
    13    6   12 1   
    14    6   20 1   
    15    7    8 1   
    16    7    9 1   
    17    7   21 1   
    18    8   22 1   
    19    8   23 1   
    20    9   10 1   
    21    9   24 1   
    22    9   25 1   
    23   10   11 1   
    24   10   26 1   
    25   10   27 1   
    26   11   12 1   
    27   11   28 1   
    28   11   29 1   
    29   12   30 1   
    30   12   31 1   
@<TRIPOS>SUBSTRUCTURE
     1 GM8         1 TEMP              0 ****  ****    0 ROOT
