@<TRIPOS>MOLECULE
GM8
   32    32     1     0     0
SMALL
bcc


@<TRIPOS>ATOM
      1 O           0.5550   -0.5160   -0.4640 o         1 GM8     -0.510000
      2 C           1.4880    0.1420    0.0020 c         1 GM8      0.636100
      3 CA          2.0590    0.0430    1.3990 c3        1 GM8     -0.136700
      4 CZ          0.9070    0.0100    2.3970 c3        1 GM8     -0.078400
      5 CQ          0.1500    1.3140    2.4160 c3        1 GM8     -0.101100
      6 CB          2.9370   -1.2060    1.5050 c3        1 GM8     -0.050700
      7 CG          3.8780   -1.3420    0.2850 c3        1 GM8      0.152500
      8 N           4.6780   -0.1520    0.0610 n3        1 GM8     -0.919800
      9 CD1         4.6800   -2.6460    0.4360 c3        1 GM8     -0.113400
     10 CE1         5.4670   -2.6810    1.7270 c3        1 GM8     -0.079400
     11 CE2         4.5630   -2.4820    2.9250 c3        1 GM8     -0.079400
     12 CD2         3.7320   -1.2200    2.8020 c3        1 GM8     -0.076400
     13 OXT         1.9990    1.0530   -0.8770 oh        1 GM8     -0.585100
     14 HG          2.6910    0.9520    1.6050 hc        1 GM8      0.069700
     15 HZ1         1.3070   -0.2020    3.4220 hc        1 GM8      0.055700
     16 HZ2         0.2110   -0.8270    2.1210 hc        1 GM8      0.055700
     17 HQ3         0.8140    2.1560    2.7290 hc        1 GM8      0.040033
     18 HQ2        -0.7020    1.2510    3.1340 hc        1 GM8      0.040033
     19 HQ1        -0.2590    1.5440    1.4010 hc        1 GM8      0.040033
     20 HB          2.2600   -2.1070    1.4890 hc        1 GM8      0.069700
     21 HA          3.2240   -1.4560   -0.6350 h1        1 GM8      0.072700
     22 H2          5.2420   -0.2700   -0.7580 hn        1 GM8      0.351300
     23 H3          5.2800    0.0240    0.8430 hn        1 GM8      0.351300
     24 HD12        5.3750   -2.7670   -0.4350 hc        1 GM8      0.048700
     25 HD11        3.9600   -3.5050    0.4120 hc        1 GM8      0.048700
     26 HE12        5.9940   -3.6670    1.8160 hc        1 GM8      0.039700
     27 HE11        6.2580   -1.8850    1.7150 hc        1 GM8      0.039700
     28 HE22        3.8800   -3.3670    3.0250 hc        1 GM8      0.044200
     29 HE21        5.1820   -2.4280    3.8580 hc        1 GM8      0.044200
     30 HD21        3.0330   -1.1670    3.6770 hc        1 GM8      0.043700
     31 HD22        4.3970   -0.3190    2.8570 hc        1 GM8      0.043700
     32 HN3         2.7980    1.4580   -0.5110 ho        1 GM8      0.441000
@<TRIPOS>BOND
     1    1    2 2   
     2    2    3 1   
     3    2   13 1   
     4    3    4 1   
     5    3    6 1   
     6    3   14 1   
     7    4    5 1   
     8    4   15 1   
     9    4   16 1   
    10    5   17 1   
    11    5   18 1   
    12    5   19 1   
    13    6    7 1   
    14    6   12 1   
    15    6   20 1   
    16    7    8 1   
    17    7    9 1   
    18    7   21 1   
    19    8   22 1   
    20    8   23 1   
    21    9   10 1   
    22    9   24 1   
    23    9   25 1   
    24   10   11 1   
    25   10   26 1   
    26   10   27 1   
    27   11   12 1   
    28   11   28 1   
    29   11   29 1   
    30   12   30 1   
    31   12   31 1   
    32   13   32 1   
@<TRIPOS>SUBSTRUCTURE
     1 GM8         1 TEMP              0 ****  ****    0 ROOT
