@<TRIPOS>MOLECULE
GMA
   19    18     1     0     0
SMALL
bcc


@<TRIPOS>ATOM
      1 N           2.0450    0.0760    1.3010 n3        1 GMA     -0.902800
      2 CA          0.6400    0.4190    1.1600 c3        1 GMA      0.094500
      3 C          -0.1800    0.0110    2.3970 c         1 GMA      0.652100
      4 O           0.1760   -0.8870    3.1900 o         1 GMA     -0.643100
      5 CB         -0.0710   -0.1700   -0.0710 c3        1 GMA     -0.104400
      6 CG          0.5400    0.3040   -1.3660 c3        1 GMA     -0.205400
      7 CD         -0.5050    0.3310   -2.5010 c         1 GMA      0.911600
      8 OE1        -1.6870    0.6830   -2.2190 o         1 GMA     -0.846300
      9 OE2        -0.1140    0.0190   -3.6610 o         1 GMA     -0.846300
     10 N2         -1.3530    0.7000    2.6250 n         1 GMA     -0.661000
     11 H           2.4420   -0.0460    0.3880 hn        1 GMA      0.353800
     12 H2          2.1450   -0.7800    1.8140 hn        1 GMA      0.353800
     13 HA          0.6140    1.5480    1.0700 h1        1 GMA      0.073700
     14 HB2        -0.0470   -1.2890   -0.0200 hc        1 GMA      0.056700
     15 HB3        -1.1500    0.1470   -0.0620 hc        1 GMA      0.056700
     16 HG2         0.9330    1.3470   -1.2570 hc        1 GMA      0.026200
     17 HG3         1.3920   -0.3530   -1.6690 hc        1 GMA      0.026200
     18 HN2A       -1.9750    0.3540    3.3130 hn        1 GMA      0.302000
     19 HN1        -1.7370    1.2470    1.8940 hn        1 GMA      0.302000
@<TRIPOS>BOND
     1    1    2 1   
     2    1   11 1   
     3    1   12 1   
     4    2    3 1   
     5    2    5 1   
     6    2   13 1   
     7    3    4 2   
     8    3   10 1   
     9    5    6 1   
    10    5   14 1   
    11    5   15 1   
    12    6    7 1   
    13    6   16 1   
    14    6   17 1   
    15    7    8 1   
    16    7    9 1   
    17   10   18 1   
    18   10   19 1   
@<TRIPOS>SUBSTRUCTURE
     1 GMA         1 TEMP              0 ****  ****    0 ROOT
