@<TRIPOS>MOLECULE
GMA
   19    18     1     0     0
SMALL
bcc


@<TRIPOS>ATOM
      1 N          -1.9240   -0.4890    0.0730 n3        1 GMA     -0.882800
      2 CA         -0.5250   -0.4980    0.3320 c3        1 GMA      0.085500
      3 C          -0.2890   -0.5610    1.8240 c         1 GMA      0.615100
      4 O          -0.6660    0.3480    2.5370 o         1 GMA     -0.708100
      5 CB          0.0980    0.7620   -0.2240 c3        1 GMA     -0.045400
      6 CG          0.6860    0.4750   -1.5880 c3        1 GMA     -0.196400
      7 CD          1.2080    1.7590   -2.1930 c         1 GMA      0.899600
      8 OE1         0.4270    2.5230   -2.8190 o         1 GMA     -0.852800
      9 OE2         2.4220    2.0660   -2.0680 o         1 GMA     -0.852800
     10 N2          0.3730   -1.6800    2.3910 n         1 GMA     -0.653000
     11 H          -2.1190   -1.1140   -0.5680 hn        1 GMA      0.337300
     12 H2         -2.3780   -0.6890    0.8430 hn        1 GMA      0.337300
     13 HA         -0.1190   -1.2780   -0.0950 h1        1 GMA      0.123700
     14 HB2         0.8050    1.0690    0.3780 hc        1 GMA      0.032200
     15 HB3        -0.5860    1.4560   -0.3040 hc        1 GMA      0.032200
     16 HG2        -0.0050    0.0980   -2.1680 hc        1 GMA      0.032700
     17 HG3         1.4200   -0.1650   -1.4980 hc        1 GMA      0.032700
     18 HN2A        0.5160   -1.7180    3.2930 hn        1 GMA      0.330500
     19 HN1         0.6570   -2.3630    1.8540 hn        1 GMA      0.330500
@<TRIPOS>BOND
     1    1    2 1   
     2    1   11 1   
     3    1   12 1   
     4    2    3 1   
     5    2    5 1   
     6    2   13 1   
     7    3    4 2   
     8    3   10 1   
     9    5    6 1   
    10    5   14 1   
    11    5   15 1   
    12    6    7 1   
    13    6   16 1   
    14    6   17 1   
    15    7    8 1   
    16    7    9 1   
    17   10   18 1   
    18   10   19 1   
@<TRIPOS>SUBSTRUCTURE
     1 GMA         1 TEMP              0 ****  ****    0 ROOT
