@<TRIPOS>MOLECULE
GMB
   34    34     1     0     0
SMALL
bcc


@<TRIPOS>ATOM
      1 C1          0.1010   -0.0010   -0.5190 c3        1 GMB      0.406900
      2 O1          0.3200    0.2820   -1.8260 os        1 GMB     -0.544200
      3 P1          0.2070   -1.0790   -2.9400 p5        1 GMB      1.322900
      4 C2          1.4400   -0.1820    0.2570 c3        1 GMB      0.047100
      5 O2          2.3330    0.8990    0.0130 oh        1 GMB     -0.659800
      6 P2         -2.5730    4.6370    4.8490 p5        1 GMB      1.318900
      7 C3          1.1860   -0.2730    1.7620 c3        1 GMB      0.135100
      8 O3          2.4170   -0.1960    2.4770 oh        1 GMB     -0.635800
      9 C4          0.2130    0.7960    2.2960 c3        1 GMB      0.095100
     10 O4         -0.2870    0.2280    3.5060 oh        1 GMB     -0.641800
     11 C5         -0.9470    1.1330    1.3350 c3        1 GMB      0.129100
     12 O5         -0.5070    1.2140   -0.0170 os        1 GMB     -0.439600
     13 C6         -1.5810    2.5170    1.6360 c3        1 GMB      0.128100
     14 O6         -2.8880    2.4860    1.0670 oh        1 GMB     -0.632800
     15 C7         -1.6890    2.9270    3.1230 c3        1 GMB      0.156400
     16 O7         -2.4020    4.1080    3.2080 os        1 GMB     -0.578200
     17 OP1        -1.2620   -1.3410   -3.1030 o         1 GMB     -0.933500
     18 OP2         0.9190   -0.5520   -4.1560 o         1 GMB     -0.933500
     19 OP3         0.9500   -2.1170   -2.1380 o         1 GMB     -0.933500
     20 OP4        -3.4520    5.8540    4.7050 o         1 GMB     -0.942833
     21 OP5        -3.2190    3.4480    5.5160 o         1 GMB     -0.942833
     22 OP6        -1.1520    4.9070    5.2730 o         1 GMB     -0.942833
     23 H1         -0.5660   -0.8910   -0.3600 h2        1 GMB      0.037700
     24 H2          1.9490   -1.1210   -0.1020 h1        1 GMB      0.095700
     25 HO2         1.9270    1.4220   -0.6960 ho        1 GMB      0.438000
     26 H3          0.7820   -1.2940    2.0120 h1        1 GMB      0.066700
     27 HO3         2.8680    0.5910    2.1470 ho        1 GMB      0.400000
     28 H4          0.7900    1.7350    2.5260 h1        1 GMB      0.043700
     29 HO4        -0.7880    0.9150    3.9620 ho        1 GMB      0.424000
     30 H5         -1.7330    0.3330    1.4290 h1        1 GMB      0.040700
     31 H6         -0.9840    3.2990    1.0870 h1        1 GMB      0.034700
     32 HO6        -3.3910    3.1720    1.5320 ho        1 GMB      0.420000
     33 H7         -0.6640    3.0700    3.5650 h1        1 GMB      0.011200
     34 H7A        -2.2420    2.1330    3.7030 h1        1 GMB      0.011200
@<TRIPOS>BOND
     1    1    2 1   
     2    1    4 1   
     3    1   12 1   
     4    1   23 1   
     5    2    3 1   
     6    3   17 1   
     7    3   18 1   
     8    3   19 1   
     9    4    5 1   
    10    4    7 1   
    11    4   24 1   
    12    5   25 1   
    13    6   16 1   
    14    6   20 1   
    15    6   21 1   
    16    6   22 1   
    17    7    8 1   
    18    7    9 1   
    19    7   26 1   
    20    8   27 1   
    21    9   10 1   
    22    9   11 1   
    23    9   28 1   
    24   10   29 1   
    25   11   12 1   
    26   11   13 1   
    27   11   30 1   
    28   13   14 1   
    29   13   15 1   
    30   13   31 1   
    31   14   32 1   
    32   15   16 1   
    33   15   33 1   
    34   15   34 1   
@<TRIPOS>SUBSTRUCTURE
     1 GMB         1 TEMP              0 ****  ****    0 ROOT
