@<TRIPOS>MOLECULE
GMB
   34    34     1     0     0
SMALL
bcc


@<TRIPOS>ATOM
      1 C1          0.1430    0.0330   -0.5320 c3        1 GMB      0.390900
      2 O1          0.4180    0.3300   -1.8250 os        1 GMB     -0.542200
      3 P1          0.2800   -1.0080   -2.9610 p5        1 GMB      1.319900
      4 C2          1.4490   -0.1900    0.2890 c3        1 GMB      0.046100
      5 O2          2.3500    0.9020    0.1400 oh        1 GMB     -0.655800
      6 P2         -2.5750    4.6120    4.8630 p5        1 GMB      1.318900
      7 C3          1.1170   -0.3440    1.7740 c3        1 GMB      0.134100
      8 O3          2.3130   -0.3440    2.5510 oh        1 GMB     -0.635800
      9 C4          0.1570    0.7390    2.3040 c3        1 GMB      0.095100
     10 O4         -0.4230    0.1450    3.4650 oh        1 GMB     -0.640800
     11 C5         -0.9430    1.1580    1.3040 c3        1 GMB      0.129100
     12 O5         -0.4430    1.2570   -0.0270 os        1 GMB     -0.438600
     13 C6         -1.5200    2.5620    1.6240 c3        1 GMB      0.127100
     14 O6         -2.7920    2.6250    0.9830 oh        1 GMB     -0.632800
     15 C7         -1.6910    2.9210    3.1180 c3        1 GMB      0.156400
     16 O7         -2.3520    4.1310    3.2130 os        1 GMB     -0.578200
     17 OP1        -1.0430   -1.6300   -2.6070 o         1 GMB     -0.932833
     18 OP2         0.3730   -0.3320   -4.3010 o         1 GMB     -0.932833
     19 OP3         1.4770   -1.8320   -2.5620 o         1 GMB     -0.932833
     20 OP4        -3.3970    5.8690    4.7220 o         1 GMB     -0.942833
     21 OP5        -3.2960    3.4300    5.4610 o         1 GMB     -0.942833
     22 OP6        -1.1640    4.8110    5.3560 o         1 GMB     -0.942833
     23 H1         -0.5600   -0.8380   -0.4180 h2        1 GMB      0.056700
     24 H2          1.9830   -1.1070   -0.0840 h1        1 GMB      0.087700
     25 HO2         1.9730    1.4610   -0.5570 ho        1 GMB      0.437000
     26 H3          0.6660   -1.3590    1.9570 h1        1 GMB      0.065700
     27 HO3         2.8020    0.4440    2.2860 ho        1 GMB      0.400000
     28 H4          0.7550    1.6450    2.5990 h1        1 GMB      0.043700
     29 HO4        -0.9320    0.8300    3.9160 ho        1 GMB      0.424000
     30 H5         -1.7690    0.3950    1.3390 h1        1 GMB      0.042700
     31 H6         -0.8520    3.3310    1.1400 h1        1 GMB      0.033700
     32 HO6        -3.2860    3.3160    1.4490 ho        1 GMB      0.420000
     33 H7         -2.3100    2.1330    3.6350 h1        1 GMB      0.011200
     34 H7A        -0.6870    2.9970    3.6200 h1        1 GMB      0.011200
@<TRIPOS>BOND
     1    1    2 1   
     2    1    4 1   
     3    1   12 1   
     4    1   23 1   
     5    2    3 1   
     6    3   17 1   
     7    3   18 1   
     8    3   19 1   
     9    4    5 1   
    10    4    7 1   
    11    4   24 1   
    12    5   25 1   
    13    6   16 1   
    14    6   20 1   
    15    6   21 1   
    16    6   22 1   
    17    7    8 1   
    18    7    9 1   
    19    7   26 1   
    20    8   27 1   
    21    9   10 1   
    22    9   11 1   
    23    9   28 1   
    24   10   29 1   
    25   11   12 1   
    26   11   13 1   
    27   11   30 1   
    28   13   14 1   
    29   13   15 1   
    30   13   31 1   
    31   14   32 1   
    32   15   16 1   
    33   15   33 1   
    34   15   34 1   
@<TRIPOS>SUBSTRUCTURE
     1 GMB         1 TEMP              0 ****  ****    0 ROOT
