@<TRIPOS>MOLECULE
GMB
   34    33     1     0     0
SMALL
bcc


@<TRIPOS>ATOM
      1 C1          0.1870   -0.9900   -1.8430 c3        1 GMB      0.218000
      2 O1         -0.2910   -0.8110   -3.1900 os        1 GMB     -0.712000
      3 P1         -1.5670   -1.6840   -3.6780 p5        1 GMB      1.559500
      4 C2          1.6180   -0.9730   -1.8640 c3        1 GMB     -0.061000
      5 O2          2.0640    0.2770   -2.5870 oh        1 GMB     -0.392000
      6 P2         -3.0130    1.7570    3.9690 p3        1 GMB      2.518000
      7 C3          2.2190   -0.9810   -0.5910 c3        1 GMB      0.024000
      8 O3          3.6950   -0.7790   -0.7600 oh        1 GMB     -0.358000
      9 C4          1.6950    0.0750    0.3220 c3        1 GMB     -0.012000
     10 O4          2.2960   -0.0960    1.5940 oh        1 GMB     -0.376000
     11 C5          0.1200    0.0580    0.5020 c3        1 GMB      0.018000
     12 O5         -0.4020    0.0490   -0.9950 os        1 GMB     -0.278000
     13 C6         -0.2990    1.1570    1.1500 c3        1 GMB     -0.003000
     14 O6         -0.8290    2.1180    0.1830 oh        1 GMB     -0.333000
     15 C7         -1.4250    0.7640    2.1660 c3        1 GMB      0.034000
     16 O7         -1.9970    1.9090    2.6890 o         1 GMB     -0.748000
     17 OP1        -1.2120   -3.1830   -3.6340 o         1 GMB     -0.935167
     18 OP2        -2.7710   -1.4080   -2.7420 o         1 GMB     -0.935167
     19 OP3        -1.9390   -1.2900   -5.1210 o         1 GMB     -0.935167
     20 OP4        -4.2600    1.0100    3.5380 o         1 GMB     -1.262000
     21 OP5        -3.4090    3.1700    4.4900 o         1 GMB     -1.262000
     22 OP6        -2.3140    0.9780    5.0870 o         1 GMB     -1.262000
     23 H1         -0.1050   -1.8470   -1.5250 h2        1 GMB      0.081000
     24 H2          1.9160   -1.7100   -2.3360 h1        1 GMB      0.113000
     25 HO2         2.4690    0.0550   -3.3320 ho        1 GMB      0.241000
     26 H3          2.0660   -1.8540   -0.1790 h1        1 GMB      0.102000
     27 HO3         4.1180   -1.5050   -0.5190 ho        1 GMB      0.193000
     28 H4          1.9700    0.9970   -0.0490 h1        1 GMB      0.067000
     29 HO4         2.7930    0.5920    1.7750 ho        1 GMB      0.276000
     30 H5         -0.1710   -0.7700    0.9820 h1        1 GMB      0.065000
     31 H6          0.4280    1.5460    1.6170 h1        1 GMB      0.077000
     32 HO6        -0.4650    2.9010    0.3210 ho        1 GMB      0.194000
     33 H7         -2.1350    0.2180    1.6910 h1        1 GMB      0.042500
     34 H7A        -1.0510    0.2530    2.8660 h1        1 GMB      0.042500
@<TRIPOS>BOND
     1    1    2 1   
     2    1    4 1   
     3    1   12 1   
     4    1   23 1   
     5    2    3 1   
     6    3   17 1   
     7    3   18 1   
     8    3   19 1   
     9    4    5 1   
    10    4    7 1   
    11    4   24 1   
    12    5   25 1   
    13    6   20 1   
    14    6   21 1   
    15    6   22 1   
    16    7    8 1   
    17    7    9 1   
    18    7   26 1   
    19    8   27 1   
    20    9   10 1   
    21    9   11 1   
    22    9   28 1   
    23   10   29 1   
    24   11   12 1   
    25   11   13 1   
    26   11   30 1   
    27   13   14 1   
    28   13   15 1   
    29   13   31 1   
    30   14   32 1   
    31   15   16 1   
    32   15   33 1   
    33   15   34 1   
@<TRIPOS>SUBSTRUCTURE
     1 GMB         1 TEMP              0 ****  ****    0 ROOT
