@<TRIPOS>MOLECULE
GMB
   34    34     1     0     0
SMALL
bcc


@<TRIPOS>ATOM
      1 C1          2.2670   -0.3310    0.1730 c3        1 GMB      0.416900
      2 O1          2.8250   -1.2130   -0.6910 os        1 GMB     -0.548200
      3 P1          3.9610   -2.3910   -0.0240 p5        1 GMB      1.323900
      4 C2          3.0930    0.9970    0.2070 c3        1 GMB      0.048100
      5 O2          3.4720    1.4210   -1.0970 oh        1 GMB     -0.668800
      6 P2         -4.9070    1.0290    0.4380 p5        1 GMB      1.326900
      7 C3          2.2960    2.1250    0.8570 c3        1 GMB      0.092100
      8 O3          2.9700    3.3810    0.7520 oh        1 GMB     -0.656800
      9 C4          0.9100    2.2440    0.2130 c3        1 GMB      0.080100
     10 O4          0.1410    3.2150    0.9110 oh        1 GMB     -0.581800
     11 C5          0.1690    0.8900    0.2430 c3        1 GMB      0.139100
     12 O5          0.9660   -0.0870   -0.4180 os        1 GMB     -0.452600
     13 C6         -1.1760    1.0200   -0.5210 c3        1 GMB      0.109100
     14 O6         -0.9910    0.6380   -1.8780 oh        1 GMB     -0.630800
     15 C7         -2.3680    0.2510    0.1130 c3        1 GMB      0.203400
     16 O7         -3.2120    1.1080    0.7750 os        1 GMB     -0.578200
     17 OP1         3.1560   -3.6150    0.2950 o         1 GMB     -0.931167
     18 OP2         4.9360   -2.5300   -1.1610 o         1 GMB     -0.931167
     19 OP3         4.4510   -1.6020    1.1640 o         1 GMB     -0.931167
     20 OP4        -5.0850   -0.2900   -0.2750 o         1 GMB     -0.945500
     21 OP5        -5.5130    1.0860    1.8200 o         1 GMB     -0.945500
     22 OP6        -5.1730    2.2490   -0.4090 o         1 GMB     -0.945500
     23 H1          2.1590   -0.7290    1.2180 h2        1 GMB      0.041700
     24 H2          4.0390    0.8080    0.7890 h1        1 GMB      0.090700
     25 HO2         3.2990    0.6650   -1.6820 ho        1 GMB      0.449000
     26 H3          2.1990    1.9470    1.9620 h1        1 GMB      0.065700
     27 HO3         3.3220    3.4220   -0.1450 ho        1 GMB      0.404000
     28 H4          1.0310    2.5650   -0.8610 h1        1 GMB      0.040700
     29 HO4         0.7090    3.9930    0.9750 ho        1 GMB      0.369000
     30 H5         -0.0160    0.5910    1.3090 h1        1 GMB      0.046700
     31 H6         -1.4570    2.1110   -0.5680 h1        1 GMB      0.083700
     32 HO6        -0.7030   -0.2830   -1.8650 ho        1 GMB      0.405000
     33 H7         -2.9180   -0.2980   -0.7050 h1        1 GMB      0.005700
     34 H7A        -1.9400   -0.5080    0.8330 h1        1 GMB      0.005700
@<TRIPOS>BOND
     1    1    2 1   
     2    1    4 1   
     3    1   12 1   
     4    1   23 1   
     5    2    3 1   
     6    3   17 1   
     7    3   18 1   
     8    3   19 1   
     9    4    5 1   
    10    4    7 1   
    11    4   24 1   
    12    5   25 1   
    13    6   16 1   
    14    6   20 1   
    15    6   21 1   
    16    6   22 1   
    17    7    8 1   
    18    7    9 1   
    19    7   26 1   
    20    8   27 1   
    21    9   10 1   
    22    9   11 1   
    23    9   28 1   
    24   10   29 1   
    25   11   12 1   
    26   11   13 1   
    27   11   30 1   
    28   13   14 1   
    29   13   15 1   
    30   13   31 1   
    31   14   32 1   
    32   15   16 1   
    33   15   33 1   
    34   15   34 1   
@<TRIPOS>SUBSTRUCTURE
     1 GMB         1 TEMP              0 ****  ****    0 ROOT
