@<TRIPOS>MOLECULE
GMC
   40    42     1     0     0
SMALL
bcc


@<TRIPOS>ATOM
      1 C10        -0.0540    0.1910   -0.1240 c3        1 GMC      0.199600
      2 N6          1.3070   -0.2240    0.1260 nh        1 GMC     -0.744300
      3 C9          2.0480    0.4370    1.1680 c3        1 GMC      0.199600
      4 C6          1.8430   -1.2720   -0.5800 ca        1 GMC      0.772200
      5 C5          3.1930   -1.7370   -0.3850 ca        1 GMC     -0.214200
      6 C4          3.6310   -2.8490   -1.2160 ca        1 GMC      0.454800
      7 N3          2.8660   -3.4750   -2.1540 nb        1 GMC     -0.810000
      8 C2          1.6170   -2.9390   -2.2290 ca        1 GMC      0.709900
      9 N1          1.0720   -1.9200   -1.5350 nb        1 GMC     -0.780000
     10 N7          4.2420   -1.3530    0.4720 nc        1 GMC     -0.514100
     11 C8          5.2630   -2.1670    0.1980 cd        1 GMC      0.422700
     12 N9          4.9710   -3.0900   -0.8460 na        1 GMC     -0.316000
     13 C1'         5.7130   -4.2390   -1.2650 c3        1 GMC      0.251800
     14 O4'         7.0710   -4.1330   -0.7700 os        1 GMC     -0.388600
     15 C4'         7.9710   -4.6530   -1.7430 c3        1 GMC      0.131100
     16 C5'         9.3030   -3.9090   -1.6330 c3        1 GMC      0.121400
     17 O5'        10.0350   -4.2910   -2.7920 oh        1 GMC     -0.665800
     18 C2'         5.7870   -4.3960   -2.8280 c3        1 GMC      0.103100
     19 O2'         5.2150   -5.6240   -3.2180 oh        1 GMC     -0.634800
     20 C3'         7.3070   -4.4240   -3.1280 c3        1 GMC      0.077500
     21 N3'         7.7360   -5.4350   -4.1320 n4        1 GMC     -0.815600
     22 H101       -0.1800    0.4760   -1.2030 h1        1 GMC      0.059200
     23 H102       -0.7670   -0.6440    0.1140 h1        1 GMC      0.059200
     24 H103       -0.3070    1.0780    0.5150 h1        1 GMC      0.059200
     25 HC1         1.4090    1.2290    1.6420 h1        1 GMC      0.059200
     26 HC2         2.3530   -0.2950    1.9630 h1        1 GMC      0.059200
     27 HC3         2.9650    0.9290    0.7430 h1        1 GMC      0.059200
     28 H2          0.9380   -3.4120   -2.9730 h5        1 GMC      0.059100
     29 H8          6.2460   -2.1660    0.6850 h5        1 GMC      0.087800
     30 H1'         5.2700   -5.1810   -0.8160 h2        1 GMC      0.103700
     31 H4'         8.1160   -5.7500   -1.5330 h1        1 GMC      0.078700
     32 H5'1        9.8360   -4.2160   -0.6960 h1        1 GMC      0.076700
     33 H5'2        9.1450   -2.7980   -1.6320 h1        1 GMC      0.076700
     34 H5'        10.9570   -4.0430   -2.6460 ho        1 GMC      0.454000
     35 H2'         5.3000   -3.5410   -3.3710 h1        1 GMC      0.113700
     36 HA          4.2520   -5.5410   -3.1190 ho        1 GMC      0.482000
     37 H3'         7.6220   -3.4110   -3.5240 hx        1 GMC      0.131700
     38 H3'1        7.3470   -5.1960   -5.0480 hn        1 GMC      0.473133
     39 H3'2        7.3830   -6.3610   -3.8600 hn        1 GMC      0.473133
     40 H3'3        8.7660   -5.4460   -4.1720 hn        1 GMC      0.473133
@<TRIPOS>BOND
     1    1    2 1   
     2    1   22 1   
     3    1   23 1   
     4    1   24 1   
     5    2    3 1   
     6    2    4 1   
     7    3   25 1   
     8    3   26 1   
     9    3   27 1   
    10    4    5 ar  
    11    4    9 ar  
    12    5    6 ar  
    13    5   10 1   
    14    6    7 ar  
    15    6   12 1   
    16    7    8 ar  
    17    8    9 ar  
    18    8   28 1   
    19   10   11 2   
    20   11   12 1   
    21   11   29 1   
    22   12   13 1   
    23   13   14 1   
    24   13   18 1   
    25   13   30 1   
    26   14   15 1   
    27   15   16 1   
    28   15   20 1   
    29   15   31 1   
    30   16   17 1   
    31   16   32 1   
    32   16   33 1   
    33   17   34 1   
    34   18   19 1   
    35   18   20 1   
    36   18   35 1   
    37   19   36 1   
    38   20   21 1   
    39   20   37 1   
    40   21   38 1   
    41   21   39 1   
    42   21   40 1   
@<TRIPOS>SUBSTRUCTURE
     1 GMC         1 TEMP              0 ****  ****    0 ROOT
