@<TRIPOS>MOLECULE
GMC
   39    35     1     0     0
SMALL
bcc


@<TRIPOS>ATOM
      1 C10        -4.4650    0.3480    3.4080 c3        1 GMC     -0.073500
      2 N6         -3.2720   -0.4430    3.2440 n3        1 GMC     -0.252000
      3 C9         -2.7640   -1.2120    4.3470 c3        1 GMC     -0.073500
      4 C6         -2.5810   -0.4670    1.9540 c2        1 GMC      0.229000
      5 C5         -1.4580    0.0850    1.3330 c1        1 GMC     -0.217000
      6 C4         -1.1710   -0.2340    0.0660 c1        1 GMC      0.059000
      7 N3         -1.9790   -1.0990   -0.6210 n1        1 GMC     -0.212000
      8 C2         -3.0940   -1.6460   -0.0030 c1        1 GMC      0.019000
      9 N1         -3.3820   -1.3270    1.2670 n1        1 GMC     -0.265000
     10 N7         -0.4450    0.9020    1.8040 n1        1 GMC     -0.168000
     11 C8          0.4460    1.0710    0.8160 c1        1 GMC     -0.041000
     12 N9          0.0140    0.3760   -0.2660 n1        1 GMC     -0.168000
     13 C1'         0.8650    0.0420   -1.3660 c2        1 GMC      0.132000
     14 O4'         2.3260   -0.3590   -0.8400 os        1 GMC     -0.257000
     15 C4'         3.1350   -0.1590   -1.8420 c3        1 GMC      0.017000
     16 C5'         4.5180    0.3220   -1.3340 c3        1 GMC     -0.042000
     17 O5'         5.1500   -0.7000   -0.7280 oh        1 GMC     -0.320000
     18 C2'         1.0250    1.0740   -2.1360 c3        1 GMC     -0.038000
     19 O2'         0.0220    1.0380   -3.2800 oh        1 GMC     -0.303000
     20 C3'         2.4580    0.9460   -2.6870 c3        1 GMC     -0.092000
     21 N3'         2.4260    0.5800   -4.0310 n3        1 GMC     -0.318000
     22 H101       -5.1600    0.0600    2.7170 h1        1 GMC      0.087500
     23 H102       -4.2390    1.3400    3.2720 h1        1 GMC      0.087500
     24 H103       -4.8290    0.2140    4.3200 h1        1 GMC      0.087500
     25 HC1        -3.4280   -1.2700    5.0290 h1        1 GMC      0.087500
     26 HC2        -2.5440   -2.0770    4.0510 h1        1 GMC      0.087500
     27 HC3        -2.0350   -0.8150    4.6760 h1        1 GMC      0.087500
     28 H2         -3.6640   -2.2550   -0.4870 ha        1 GMC      0.188000
     29 H8          1.2470    1.6160    0.8610 DU        1 GMC      0.229000
     30 H1'         0.4890   -0.6800   -1.8630 h4        1 GMC      0.146000
     31 H4'         3.2300   -0.9530   -2.3530 h1        1 GMC      0.138000
     32 H5'1        5.0470    0.6280   -2.0810 h1        1 GMC      0.079000
     33 H5'2        4.3960    1.0600   -0.6940 h1        1 GMC      0.079000
     34 H5'         5.9690   -0.4330   -0.4630 ho        1 GMC      0.204000
     35 H2'         0.9330    1.9080   -1.6200 h1        1 GMC      0.166000
     36 HA         -0.2580    0.2130   -3.4000 ho        1 GMC      0.203000
     37 H3'         2.9230    1.7640   -2.5820 h1        1 GMC      0.121000
     38 H3'1        1.6480    0.8390   -4.3930 hn        1 GMC      0.153500
     39 H3'2        2.5030   -0.2980   -4.0980 hn        1 GMC      0.153500
@<TRIPOS>BOND
     1    1    2 1   
     2    1   22 1   
     3    1   23 1   
     4    1   24 1   
     5    2    3 1   
     6    2    4 1   
     7    3   25 1   
     8    3   26 1   
     9    3   27 1   
    10    4    5 1   
    11    4    9 1   
    12    5    6 1   
    13    7    8 1   
    14    8   28 1   
    15   10   11 1   
    16   11   12 1   
    17   13   14 1   
    18   13   18 1   
    19   13   30 1   
    20   14   15 1   
    21   15   16 1   
    22   15   20 1   
    23   15   31 1   
    24   16   17 1   
    25   16   32 1   
    26   16   33 1   
    27   17   34 1   
    28   18   19 1   
    29   18   20 1   
    30   18   35 1   
    31   19   36 1   
    32   20   21 1   
    33   20   37 1   
    34   21   38 1   
    35   21   39 1   
@<TRIPOS>SUBSTRUCTURE
     1 GMC         1 TEMP              0 ****  ****    0 ROOT
