@<TRIPOS>MOLECULE
GMC
   41    43     1     0     0
SMALL
bcc


@<TRIPOS>ATOM
      1 C10         0.9240    0.9820   -0.5860 c3        1 GMC      0.089100
      2 N6          1.5280   -0.0250    0.3350 n4        1 GMC     -0.665100
      3 C9          0.5670   -0.4070    1.4100 c3        1 GMC      0.089100
      4 C6          1.9900   -1.2220   -0.4110 ca        1 GMC      0.566200
      5 C5          3.3550   -1.5800   -0.3710 ca        1 GMC     -0.132200
      6 C4          3.7220   -2.7930   -1.1290 ca        1 GMC      0.446800
      7 N3          2.8330   -3.5310   -1.8380 nb        1 GMC     -0.674000
      8 C2          1.5610   -3.0550   -1.7780 ca        1 GMC      0.689900
      9 N1          1.0940   -1.9590   -1.1140 nb        1 GMC     -0.668000
     10 N7          4.4930   -1.0470    0.2520 nc        1 GMC     -0.556100
     11 C8          5.5000   -1.8670   -0.0830 cd        1 GMC      0.521700
     12 N9          5.1080   -2.9320   -0.9370 na        1 GMC     -0.293000
     13 C1'         5.8730   -4.1050   -1.2900 c3        1 GMC      0.232800
     14 O4'         7.2510   -3.8580   -0.9450 os        1 GMC     -0.389600
     15 C4'         8.1020   -4.4780   -1.9110 c3        1 GMC      0.126100
     16 C5'         9.3950   -3.6660   -2.0280 c3        1 GMC      0.125400
     17 O5'        10.0200   -4.1490   -3.2090 oh        1 GMC     -0.663800
     18 C2'         5.8210   -4.4800   -2.8150 c3        1 GMC      0.104100
     19 O2'         5.2960   -5.7790   -2.9620 oh        1 GMC     -0.612800
     20 C3'         7.3120   -4.4890   -3.2480 c3        1 GMC      0.084500
     21 N3'         7.7180   -5.6140   -4.1320 n4        1 GMC     -0.816600
     22 H101        0.6820    1.9050    0.0090 hx        1 GMC      0.114533
     23 H102       -0.0170    0.5690   -1.0400 hx        1 GMC      0.114533
     24 H103        1.6590    1.2310   -1.3970 hx        1 GMC      0.114533
     25 HC1         1.0420   -1.1770    2.0750 hx        1 GMC      0.114533
     26 HC2        -0.3700   -0.8260    0.9530 hx        1 GMC      0.114533
     27 HC3         0.3180    0.5130    2.0060 hx        1 GMC      0.114533
     28 H2          0.7890   -3.6340   -2.3410 h5        1 GMC      0.106100
     29 H8          6.5500   -1.7620    0.2460 h5        1 GMC      0.122800
     30 H1'         5.5160   -4.9850   -0.6690 h2        1 GMC      0.121700
     31 H4'         8.3240   -5.5230   -1.5510 h1        1 GMC      0.094700
     32 H5'1       10.0360   -3.8340   -1.1230 h1        1 GMC      0.080700
     33 H5'2        9.1740   -2.5710   -2.1380 h1        1 GMC      0.080700
     34 H5'        10.9560   -3.9060   -3.1670 ho        1 GMC      0.466000
     35 H2'         5.2400   -3.7370   -3.4240 h1        1 GMC      0.103700
     36 HA          4.3320   -5.7270   -2.8690 ho        1 GMC      0.472000
     37 H3'         7.5350   -3.5320   -3.8130 hx        1 GMC      0.138700
     38 H3'1        7.4510   -6.5110   -3.7040 hn        1 GMC      0.480133
     39 H3'2        7.2470   -5.5330   -5.0380 hn        1 GMC      0.480133
     40 H61         2.3620    0.3980    0.7780 hn        1 GMC      0.479800
     41 H3'3        8.7430   -5.5780   -4.2610 hn        1 GMC      0.480133
@<TRIPOS>BOND
     1    1    2 1   
     2    1   22 1   
     3    1   23 1   
     4    1   24 1   
     5    2    3 1   
     6    2    4 1   
     7    2   40 1   
     8    3   25 1   
     9    3   26 1   
    10    3   27 1   
    11    4    5 ar  
    12    4    9 ar  
    13    5    6 ar  
    14    5   10 1   
    15    6    7 ar  
    16    6   12 1   
    17    7    8 ar  
    18    8    9 ar  
    19    8   28 1   
    20   10   11 2   
    21   11   12 1   
    22   11   29 1   
    23   12   13 1   
    24   13   14 1   
    25   13   18 1   
    26   13   30 1   
    27   14   15 1   
    28   15   16 1   
    29   15   20 1   
    30   15   31 1   
    31   16   17 1   
    32   16   32 1   
    33   16   33 1   
    34   17   34 1   
    35   18   19 1   
    36   18   20 1   
    37   18   35 1   
    38   19   36 1   
    39   20   21 1   
    40   20   37 1   
    41   21   38 1   
    42   21   39 1   
    43   21   41 1   
@<TRIPOS>SUBSTRUCTURE
     1 GMC         1 TEMP              0 ****  ****    0 ROOT
