@<TRIPOS>MOLECULE
GMC
   39    41     1     0     0
SMALL
bcc


@<TRIPOS>ATOM
      1 C10         0.3730    0.6220    5.5820 c3        1 GMC      0.204600
      2 N6          0.8750    0.4430    4.2430 nh        1 GMC     -0.762300
      3 C9          2.3000    0.3530    4.0660 c3        1 GMC      0.204600
      4 C6          0.0150    0.0290    3.2380 ca        1 GMC      0.757200
      5 C5          0.4560   -0.1600    1.8820 ca        1 GMC     -0.209200
      6 C4         -0.5640   -0.5310    0.9010 ca        1 GMC      0.447800
      7 N3         -1.8850   -0.7130    1.1940 nb        1 GMC     -0.755000
      8 C2         -2.1510   -0.5120    2.5060 ca        1 GMC      0.687900
      9 N1         -1.3200   -0.1700    3.5200 nb        1 GMC     -0.793000
     10 N7          1.7010   -0.0580    1.2410 nc        1 GMC     -0.545100
     11 C8          1.4700   -0.3460   -0.0470 cd        1 GMC      0.417700
     12 N9          0.1130   -0.6330   -0.3240 na        1 GMC     -0.294000
     13 C1'        -0.4830   -1.0680   -1.5680 c3        1 GMC      0.233800
     14 O4'         0.5170   -1.1650   -2.5850 os        1 GMC     -0.418600
     15 C4'         0.3280   -0.1620   -3.5970 c3        1 GMC      0.050100
     16 C5'         1.6110    0.6620   -3.7010 c3        1 GMC      0.119400
     17 O5'         2.6710   -0.1020   -4.2330 oh        1 GMC     -0.592800
     18 C2'        -1.6010   -0.1090   -2.0980 c3        1 GMC      0.115100
     19 O2'        -2.6300   -0.9070   -2.6470 oh        1 GMC     -0.590800
     20 C3'        -0.8940    0.7110   -3.2110 c3        1 GMC      0.155500
     21 N3'        -1.7440    1.1480   -4.2880 n3        1 GMC     -0.894800
     22 H101        1.1600    1.1140    6.2130 h1        1 GMC      0.049200
     23 H102       -0.5340    1.2830    5.5680 h1        1 GMC      0.049200
     24 H103        0.0930   -0.3620    6.0460 h1        1 GMC      0.049200
     25 HC1         2.6470    1.1570    3.3620 h1        1 GMC      0.049200
     26 HC2         2.8140    0.5000    5.0540 h1        1 GMC      0.049200
     27 HC3         2.6000   -0.6490    3.6590 h1        1 GMC      0.049200
     28 H2         -3.2130   -0.6530    2.8040 h5        1 GMC      0.051100
     29 H8          2.2220   -0.3750   -0.8460 h5        1 GMC      0.079800
     30 H1'        -0.8870   -2.1170   -1.4300 h2        1 GMC      0.105700
     31 H4'         0.1620   -0.7350   -4.5510 h1        1 GMC      0.082700
     32 H5'1        1.4660    1.5070   -4.4260 h1        1 GMC      0.055200
     33 H5'2        1.8930    1.0670   -2.6920 h1        1 GMC      0.055200
     34 H5'         2.7610   -0.8890   -3.6790 ho        1 GMC      0.411000
     35 H2'        -2.0020    0.5720   -1.3030 h1        1 GMC      0.089700
     36 HA         -3.2480   -1.0970   -1.9290 ho        1 GMC      0.426000
     37 H3'        -0.5010    1.6530   -2.7180 h1        1 GMC      0.076700
     38 H3'1       -1.1980    1.3530   -5.1020 hn        1 GMC      0.366300
     39 H3'2       -2.4340    0.4570   -4.5110 hn        1 GMC      0.366300
@<TRIPOS>BOND
     1    1    2 1   
     2    1   22 1   
     3    1   23 1   
     4    1   24 1   
     5    2    3 1   
     6    2    4 1   
     7    3   25 1   
     8    3   26 1   
     9    3   27 1   
    10    4    5 ar  
    11    4    9 ar  
    12    5    6 ar  
    13    5   10 1   
    14    6    7 ar  
    15    6   12 1   
    16    7    8 ar  
    17    8    9 ar  
    18    8   28 1   
    19   10   11 2   
    20   11   12 1   
    21   11   29 1   
    22   12   13 1   
    23   13   14 1   
    24   13   18 1   
    25   13   30 1   
    26   14   15 1   
    27   15   16 1   
    28   15   20 1   
    29   15   31 1   
    30   16   17 1   
    31   16   32 1   
    32   16   33 1   
    33   17   34 1   
    34   18   19 1   
    35   18   20 1   
    36   18   35 1   
    37   19   36 1   
    38   20   21 1   
    39   20   37 1   
    40   21   38 1   
    41   21   39 1   
@<TRIPOS>SUBSTRUCTURE
     1 GMC         1 TEMP              0 ****  ****    0 ROOT
