@<TRIPOS>MOLECULE
GMC
   40    42     1     0     0
SMALL
bcc


@<TRIPOS>ATOM
      1 C10        -0.0420    0.2370   -0.2110 c3        1 GMC      0.199600
      2 N6          1.3150   -0.1820    0.0520 nh        1 GMC     -0.744300
      3 C9          2.0500    0.4810    1.0970 c3        1 GMC      0.199600
      4 C6          1.8530   -1.2360   -0.6440 ca        1 GMC      0.772200
      5 C5          3.2000   -1.7050   -0.4350 ca        1 GMC     -0.214200
      6 C4          3.6400   -2.8240   -1.2570 ca        1 GMC      0.454800
      7 N3          2.8800   -3.4510   -2.1980 nb        1 GMC     -0.810000
      8 C2          1.6340   -2.9090   -2.2870 ca        1 GMC      0.709900
      9 N1          1.0880   -1.8850   -1.6020 nb        1 GMC     -0.780000
     10 N7          4.2430   -1.3220    0.4280 nc        1 GMC     -0.514100
     11 C8          5.2620   -2.1410    0.1680 cd        1 GMC      0.422700
     12 N9          4.9760   -3.0680   -0.8750 na        1 GMC     -0.316000
     13 C1'         5.7150   -4.2220   -1.2810 c3        1 GMC      0.251800
     14 O4'         7.0700   -4.1210   -0.7750 os        1 GMC     -0.388600
     15 C4'         7.9760   -4.6490   -1.7380 c3        1 GMC      0.131100
     16 C5'         9.3100   -3.9110   -1.6200 c3        1 GMC      0.121400
     17 O5'        10.0500   -4.3030   -2.7710 oh        1 GMC     -0.665800
     18 C2'         5.8020   -4.3880   -2.8420 c3        1 GMC      0.103100
     19 O2'         5.2280   -5.6150   -3.2320 oh        1 GMC     -0.634800
     20 C3'         7.3250   -4.4250   -3.1290 c3        1 GMC      0.077500
     21 N3'         7.7580   -5.4430   -4.1250 nz        1 GMC     -0.815600
     22 H101       -0.2960    1.1280    0.4210 h1        1 GMC      0.059200
     23 H102       -0.1580    0.5170   -1.2930 h1        1 GMC      0.059200
     24 H103       -0.7600   -0.5940    0.0240 h1        1 GMC      0.059200
     25 HC1         2.3450   -0.2490    1.8990 h1        1 GMC      0.059200
     26 HC2         1.4100    1.2770    1.5620 h1        1 GMC      0.059200
     27 HC3         2.9720    0.9670    0.6780 h1        1 GMC      0.059200
     28 H2          0.9600   -3.3840   -3.0340 h5        1 GMC      0.059100
     29 H8          6.2410   -2.1420    0.6630 h5        1 GMC      0.087800
     30 H1'         5.2640   -5.1600   -0.8310 h2        1 GMC      0.103700
     31 H4'         8.1140   -5.7460   -1.5210 h1        1 GMC      0.078700
     32 H5'1        9.1580   -2.8000   -1.6260 h1        1 GMC      0.076700
     33 H5'2        9.8340   -4.2160   -0.6770 h1        1 GMC      0.076700
     34 H5'        10.9720   -4.0590   -2.6180 ho        1 GMC      0.454000
     35 H2'         5.3240   -3.5330   -3.3950 h1        1 GMC      0.113700
     36 HA          4.2640   -5.5270   -3.1420 ho        1 GMC      0.482000
     37 H3'         7.6480   -3.4150   -3.5280 hx        1 GMC      0.131700
     38 H3'1        7.3770   -5.2070   -5.0450 hn        1 GMC      0.473133
     39 H3'2        7.3990   -6.3660   -3.8500 hn        1 GMC      0.473133
     40 H3'3        8.7880   -5.4590   -4.1560 hn        1 GMC      0.473133
@<TRIPOS>BOND
     1    1    2 1   
     2    1   22 1   
     3    1   23 1   
     4    1   24 1   
     5    2    3 1   
     6    2    4 1   
     7    3   25 1   
     8    3   26 1   
     9    3   27 1   
    10    4    5 ar  
    11    4    9 ar  
    12    5    6 ar  
    13    5   10 1   
    14    6    7 ar  
    15    6   12 1   
    16    7    8 ar  
    17    8    9 ar  
    18    8   28 1   
    19   10   11 2   
    20   11   12 1   
    21   11   29 1   
    22   12   13 1   
    23   13   14 1   
    24   13   18 1   
    25   13   30 1   
    26   14   15 1   
    27   15   16 1   
    28   15   20 1   
    29   15   31 1   
    30   16   17 1   
    31   16   32 1   
    32   16   33 1   
    33   17   34 1   
    34   18   19 1   
    35   18   20 1   
    36   18   35 1   
    37   19   36 1   
    38   20   21 1   
    39   20   37 1   
    40   21   38 1   
    41   21   39 1   
    42   21   40 1   
@<TRIPOS>SUBSTRUCTURE
     1 GMC         1 TEMP              0 ****  ****    0 ROOT
