@<TRIPOS>MOLECULE
GME
   21    20     1     0     0
SMALL
bcc


@<TRIPOS>ATOM
      1 C           2.5610    0.4650   -0.3980 c         1 GME      0.890600
      2 N           1.8260   -1.8260    0.4290 n3        1 GME     -0.895800
      3 O           3.6760    0.2160    0.1410 o         1 GME     -0.839300
      4 CA          1.4560   -0.6450   -0.3400 c3        1 GME      0.015500
      5 CB          0.1540    0.0010    0.1360 c3        1 GME     -0.060400
      6 CD         -2.3040   -0.2790    0.3650 c         1 GME      0.636100
      7 CG         -1.0320   -0.9150   -0.0950 c3        1 GME     -0.120400
      8 CX         -4.3580    0.7170   -0.3290 c3        1 GME      0.128700
      9 OE1        -2.7070   -0.0430    1.5070 o         1 GME     -0.566000
     10 OE2        -3.1430    0.0610   -0.6710 os        1 GME     -0.447900
     11 H           2.7750   -2.0540    0.1820 hn        1 GME      0.333800
     12 HA          1.3080   -0.9920   -1.4050 h1        1 GME      0.040700
     13 H1B         0.2210    0.2650    1.2230 hc        1 GME      0.061700
     14 H2B         0.0270    0.9560   -0.4420 hc        1 GME      0.061700
     15 H1G        -1.1100   -1.1680   -1.1850 hc        1 GME      0.075200
     16 H2G        -0.9040   -1.8700    0.4810 hc        1 GME      0.075200
     17 H1X        -4.9910    0.0450    0.3000 h1        1 GME      0.039033
     18 H2X        -4.1420    1.6620    0.2270 h1        1 GME      0.039033
     19 H3X        -4.8410    0.9270   -1.3140 h1        1 GME      0.039033
     20 OXT         2.2780    1.5340   -1.0040 o         1 GME     -0.839300
     21 H2          1.8430   -1.5780    1.4030 hn        1 GME      0.333800
@<TRIPOS>BOND
     1    1    3 1   
     2    1    4 1   
     3    1   20 1   
     4    2    4 1   
     5    2   11 1   
     6    2   21 1   
     7    4    5 1   
     8    4   12 1   
     9    5    7 1   
    10    5   13 1   
    11    5   14 1   
    12    6    7 1   
    13    6    9 2   
    14    6   10 1   
    15    7   15 1   
    16    7   16 1   
    17    8   10 1   
    18    8   17 1   
    19    8   18 1   
    20    8   19 1   
@<TRIPOS>SUBSTRUCTURE
     1 GME         1 TEMP              0 ****  ****    0 ROOT
