@<TRIPOS>MOLECULE
GMF
   45    41     1     0     0
SMALL
bcc


@<TRIPOS>ATOM
      1 N1         -4.1420   -2.4720   -2.3480 n1        1 GMF     -0.293000
      2 O1          4.8470    3.3640   -0.2950 os        1 GMF     -0.211000
      3 N2         -2.8830   -1.9310   -0.3760 n3        1 GMF     -0.302000
      4 C3         -1.4920   -1.8430   -0.0340 c3        1 GMF      0.059000
      5 N3         -2.8310   -4.2800   -1.3900 n3        1 GMF     -0.344000
      6 C4         -3.3210   -2.8700   -1.4080 c2        1 GMF      0.134000
      7 N4         -0.8330   -4.4390    3.2080 n1        1 GMF     -0.134000
      8 C5         -1.2190   -2.7000    1.1210 c2        1 GMF     -0.073000
      9 C6         -2.0560   -2.6870    2.1860 c2        1 GMF     -0.152500
     10 C7         -1.8500   -3.5790    3.2480 c1        1 GMF     -0.098000
     11 C8          0.0240   -4.4500    2.1150 c1        1 GMF     -0.067000
     12 C9         -0.1750   -3.5830    1.0830 c1        1 GMF     -0.135000
     13 C10        -1.1380   -0.3940    0.3120 c2        1 GMF     -0.073000
     14 C11        -1.9150    0.3150    1.2200 c2        1 GMF     -0.152500
     15 C12        -1.6280    1.6420    1.4870 c1        1 GMF     -0.098000
     16 C13        -0.5680    2.2620    0.8500 c1        1 GMF     -0.109000
     17 C14         0.2120    1.5520   -0.0600 c1        1 GMF     -0.036000
     18 C15        -0.0710    0.2330   -0.3270 c1        1 GMF     -0.135000
     19 C30         3.5760    3.1890   -0.8950 c2        1 GMF      0.079000
     20 C16         1.3300    2.2640   -0.8240 c2        1 GMF     -0.010000
     21 C17         1.1330    2.6470   -2.1470 c1        1 GMF     -0.153000
     22 C18         2.1620    3.3060   -2.8530 c1        1 GMF     -0.096000
     23 C1          5.1610    4.7270    0.0130 c3        1 GMF     -0.076000
     24 C19         3.3750    3.5740   -2.2280 c2        1 GMF     -0.200000
     25 C20         2.5510    2.5320   -0.1920 c2        1 GMF     -0.145000
     26 H1         -4.4450   -1.6000   -2.3590 DU        1 GMF      0.164000
     27 H11C        5.5280    5.1760   -0.7990 h1        1 GMF      0.084333
     28 H12C        5.8240    4.7550    0.7280 h1        1 GMF      0.084333
     29 H13C        4.3670    5.1810    0.2980 h1        1 GMF      0.084333
     30 H2         -3.4940   -1.3650    0.0240 hn        1 GMF      0.185000
     31 H3         -0.9550   -2.1350   -0.7870 h1        1 GMF      0.115000
     32 H31N       -1.9570   -4.4670   -1.1210 hn        1 GMF      0.190000
     33 H32N       -3.4060   -4.9790   -1.6300 hn        1 GMF      0.190000
     34 H7         -2.4490   -3.5710    4.0120 ha        1 GMF      0.149000
     35 H8          0.7690   -5.0790    2.0880 ha        1 GMF      0.164000
     36 H6         -2.7930   -2.0640    2.2130 ha        1 GMF      0.137000
     37 H9          0.4130   -3.5920    0.3360 ha        1 GMF      0.142500
     38 H11        -2.6540   -0.1170    1.6650 ha        1 GMF      0.137000
     39 H15         0.4940   -0.2810   -0.9860 ha        1 GMF      0.142500
     40 H12        -2.1900    2.1560    2.1440 ha        1 GMF      0.149000
     41 H13        -0.3670    3.1970    1.0380 ha        1 GMF      0.141000
     42 H17         0.2690    2.4560   -2.5940 ha        1 GMF      0.138000
     43 H20         2.6620    2.3340    0.7680 ha        1 GMF      0.152000
     44 H18         2.0240    3.5710   -3.7660 ha        1 GMF      0.134000
     45 H19         4.1140    4.0480   -2.7370 ha        1 GMF      0.138000
@<TRIPOS>BOND
     1    1    6 1   
     2    2   19 1   
     3    2   23 1   
     4    3    4 1   
     5    3    6 1   
     6    3   30 1   
     7    4    8 1   
     8    4   13 1   
     9    4   31 1   
    10    5    6 1   
    11    5   32 1   
    12    5   33 1   
    13    7   11 1   
    14    8    9 1   
    15    8   12 1   
    16    9   10 1   
    17    9   36 1   
    18   10   34 1   
    19   11   35 1   
    20   12   37 1   
    21   13   14 1   
    22   13   18 1   
    23   14   15 1   
    24   14   38 1   
    25   15   40 1   
    26   16   17 1   
    27   16   41 1   
    28   17   20 1   
    29   18   39 1   
    30   19   24 1   
    31   19   25 1   
    32   20   21 1   
    33   20   25 1   
    34   21   42 1   
    35   22   24 1   
    36   22   44 1   
    37   23   27 1   
    38   23   28 1   
    39   23   29 1   
    40   24   45 1   
    41   25   43 1   
@<TRIPOS>SUBSTRUCTURE
     1 GMF         1 TEMP              0 ****  ****    0 ROOT
