@<TRIPOS>MOLECULE
GMF
   45    47     1     0     0
SMALL
bcc


@<TRIPOS>ATOM
      1 N1          3.2450    3.5970   -0.1830 n2        1 GMF     -0.868100
      2 N2          3.5000    1.3020    0.3940 nh        1 GMF     -0.778200
      3 C3          2.4000    0.3500    0.5240 c3        1 GMF      0.275100
      4 N3          2.8210    2.8900    2.1090 nh        1 GMF     -0.927800
      5 C4          3.1840    2.6750    0.7440 c2        1 GMF      0.744100
      6 N4          3.7930   -3.6680   -0.3270 nb        1 GMF     -0.662000
      7 C5          2.8910   -1.0490    0.2140 ca        1 GMF     -0.038300
      8 C6          2.8470   -2.0380    1.2020 ca        1 GMF     -0.234300
      9 C7          3.3050   -3.3290    0.8810 ca        1 GMF      0.395700
     10 C8          3.8320   -2.7040   -1.2670 ca        1 GMF      0.395700
     11 C9          3.3950   -1.3850   -1.0470 ca        1 GMF     -0.234300
     12 C10         1.1650    0.6300   -0.3080 ca        1 GMF     -0.119300
     13 C11         1.2480    1.1380   -1.6080 ca        1 GMF     -0.106000
     14 C12         0.0850    1.3660   -2.3430 ca        1 GMF     -0.128000
     15 C13        -1.1640    1.0860   -1.7930 ca        1 GMF     -0.109000
     16 C14        -1.2590    0.5810   -0.4880 cp        1 GMF     -0.040000
     17 C15        -0.0890    0.3580    0.2480 ca        1 GMF     -0.099000
     18 C30        -4.8150   -0.5860   -0.0920 ca        1 GMF      0.123100
     19 C16        -2.5670    0.2920    0.1000 cp        1 GMF     -0.007000
     20 C17        -2.8300    0.6250    1.4390 ca        1 GMF     -0.154000
     21 C18        -4.0750    0.3530    1.9970 ca        1 GMF     -0.097000
     22 C1         -6.9970   -1.4900   -0.3880 c3        1 GMF      0.113700
     23 C19        -5.0790   -0.2550    1.2420 ca        1 GMF     -0.201000
     24 C20        -3.5620   -0.3150   -0.6700 ca        1 GMF     -0.145000
     25 H1          3.1150    4.5360    0.1220 hn        1 GMF      0.394400
     26 H11C       -6.8980   -2.2040    0.4650 h1        1 GMF      0.044367
     27 H12C       -7.5160   -0.5570   -0.0590 h1        1 GMF      0.044367
     28 H13C       -7.5450   -1.9670   -1.2400 h1        1 GMF      0.044367
     29 H2          3.9040    1.2550   -0.5260 hn        1 GMF      0.398800
     30 H3          2.0830    0.3700    1.6140 h1        1 GMF      0.073700
     31 H31N        3.0720    3.7910    2.4530 hn        1 GMF      0.394300
     32 H32N        3.0750    2.1600    2.7370 hn        1 GMF      0.394300
     33 H7          3.2820   -4.1380    1.6340 h4        1 GMF      0.023600
     34 H8          4.2350   -3.0070   -2.2500 h4        1 GMF      0.023600
     35 H6          2.4660   -1.8220    2.2090 ha        1 GMF      0.143000
     36 H9          3.4380   -0.6450   -1.8570 ha        1 GMF      0.143000
     37 H11         2.2230    1.3760   -2.0590 ha        1 GMF      0.137000
     38 H15        -0.1620   -0.0410    1.2710 ha        1 GMF      0.135000
     39 H12         0.1550    1.7720   -3.3630 ha        1 GMF      0.136000
     40 H13        -2.0790    1.2690   -2.3760 ha        1 GMF      0.139000
     41 H17        -2.0500    1.1120    2.0420 ha        1 GMF      0.137000
     42 H20        -3.3790   -0.5920   -1.7180 ha        1 GMF      0.153000
     43 H18        -4.2750    0.6200    3.0460 ha        1 GMF      0.132000
     44 H19        -6.0560   -0.4640    1.6980 ha        1 GMF      0.137000
     45 O1         -5.7230   -1.1880   -0.9430 os        1 GMF     -0.327900
@<TRIPOS>BOND
     1    1    5 2   
     2    1   25 1   
     3    2    3 1   
     4    2    5 1   
     5    2   29 1   
     6    3    7 1   
     7    3   12 1   
     8    3   30 1   
     9    4    5 1   
    10    4   31 1   
    11    4   32 1   
    12    6    9 ar  
    13    6   10 ar  
    14    7    8 ar  
    15    7   11 ar  
    16    8    9 ar  
    17    8   35 1   
    18    9   33 1   
    19   10   11 ar  
    20   10   34 1   
    21   11   36 1   
    22   12   13 ar  
    23   12   17 ar  
    24   13   14 ar  
    25   13   37 1   
    26   14   15 ar  
    27   14   39 1   
    28   15   16 ar  
    29   15   40 1   
    30   16   17 ar  
    31   16   19 1   
    32   17   38 1   
    33   18   23 ar  
    34   18   24 ar  
    35   18   45 1   
    36   19   20 ar  
    37   19   24 ar  
    38   20   21 ar  
    39   20   41 1   
    40   21   23 ar  
    41   21   43 1   
    42   22   26 1   
    43   22   27 1   
    44   22   28 1   
    45   22   45 1   
    46   23   44 1   
    47   24   42 1   
@<TRIPOS>SUBSTRUCTURE
     1 GMF         1 TEMP              0 ****  ****    0 ROOT
