@<TRIPOS>MOLECULE
GMF
   47    48     1     0     0
SMALL
bcc


@<TRIPOS>ATOM
      1 N1      -1317.3150 -504.5340 -555.9490 n2        1 GMF     -0.747100
      2 N2      -1316.7850 -506.8340 -556.7250 nv        1 GMF     -0.951800
      3 C3        363.7320  140.5810  148.6320 ce        1 GMF      0.229800
      4 N3      -1318.4550 -505.4400 -557.8090 nz        1 GMF     -0.823600
      5 C4      -1317.4420 -505.5900 -556.6740 c2        1 GMF      0.702100
      6 N4        365.2510  143.9530  146.5260 n2        1 GMF     -0.217000
      7 C5        364.2190  141.7380  147.9480 cd        1 GMF     -0.140000
      8 C6        365.4460  141.6480  147.2520 cd        1 GMF     -0.105500
      9 C7        365.9210  142.7850  146.5750 cc        1 GMF      0.016500
     10 C8        364.0670  144.0240  147.1630 cc        1 GMF      0.016500
     11 C9        363.5080  142.9540  147.8860 cd        1 GMF     -0.105500
     12 C10       362.9110  140.5350  149.7580 ca        1 GMF     -0.191800
     13 C11       362.6250  141.6750  150.5670 ca        1 GMF     -0.001000
     14 C12       361.7940  141.5600  151.6660 ca        1 GMF     -0.168000
     15 C13       361.2280  140.3240  152.0050 ca        1 GMF      0.045000
     16 C14       361.5130  139.1710  151.2450 cp        1 GMF     -0.044000
     17 C15       362.3540  139.2750  150.1440 ca        1 GMF     -0.003000
     18 C30       359.0340  136.5780  152.3720 ca        1 GMF      0.143100
     19 C16       360.9280  137.8830  151.6190 cp        1 GMF     -0.059000
     20 C17       361.7080  136.7180  151.5880 ca        1 GMF     -0.151000
     21 C18       361.1470  135.4960  151.9510 ca        1 GMF     -0.081000
     22 C1        357.1050  135.3920  153.1140 c3        1 GMF      0.108700
     23 C19       359.8120  135.4120  152.3430 ca        1 GMF     -0.174000
     24 C20       359.5890  137.8200  152.0120 ca        1 GMF     -0.143000
     25 H1      -1316.6910 -504.5460 -555.1690 hn        1 GMF      0.486400
     26 H11C      356.0540  135.6870  153.3630 h1        1 GMF      0.056033
     27 H12C      357.1230  134.6720  152.2600 h1        1 GMF      0.056033
     28 H13C      357.6170  134.9600  154.0080 h1        1 GMF      0.056033
     29 H2      -1317.3360 -507.6400 -556.5180 hn        1 GMF      0.450800
     30 H3        364.0610  139.6050  148.2050 ha        1 GMF      0.167000
     31 H31N    -1319.2150 -506.1130 -557.6810 hn        1 GMF      0.477800
     32 H32N    -1317.9840 -505.6210 -558.7030 hn        1 GMF      0.477800
     33 H7        366.8870  142.7600  146.0330 h4        1 GMF      0.197000
     34 H8        363.5360  144.9930  147.0860 h4        1 GMF      0.197000
     35 H6        366.0340  140.7180  147.2520 ha        1 GMF      0.164500
     36 H9        362.5140  143.0620  148.3440 ha        1 GMF      0.164500
     37 H11       363.1040  142.6420  150.3360 ha        1 GMF      0.166000
     38 H15       362.5780  138.3770  149.5420 ha        1 GMF      0.169000
     39 H12       361.5800  142.4440  152.2920 ha        1 GMF      0.179000
     40 H13       360.5630  140.2440  152.8850 ha        1 GMF      0.183000
     41 H17       362.7660  136.7680  151.2930 ha        1 GMF      0.132000
     42 H20       358.9520  138.7170  152.0360 ha        1 GMF      0.152000
     43 H18       361.7640  134.5840  151.9300 ha        1 GMF      0.151000
     44 H19       359.3840  134.4390  152.6260 ha        1 GMF      0.157000
     45 H22     -1315.8670 -506.8410 -556.3310 hn        1 GMF      0.450800
     46 H33     -1318.8420 -504.4860 -557.8130 hn        1 GMF      0.477800
     47 O1        357.7090  136.6290  152.7390 os        1 GMF     -0.320900
@<TRIPOS>BOND
     1    1    5 2   
     2    1   25 1   
     3    2    5 1   
     4    2   29 1   
     5    2   45 1   
     6    3    7 2   
     7    3   12 1   
     8    3   30 1   
     9    4    5 1   
    10    4   31 1   
    11    4   32 1   
    12    4   46 1   
    13    6    9 1   
    14    6   10 1   
    15    7    8 1   
    16    7   11 1   
    17    8    9 2   
    18    8   35 1   
    19    9   33 1   
    20   10   11 2   
    21   10   34 1   
    22   11   36 1   
    23   12   13 ar  
    24   12   17 ar  
    25   13   14 ar  
    26   13   37 1   
    27   14   15 ar  
    28   14   39 1   
    29   15   16 ar  
    30   15   40 1   
    31   16   17 ar  
    32   16   19 1   
    33   17   38 1   
    34   18   23 ar  
    35   18   24 ar  
    36   18   47 1   
    37   19   20 ar  
    38   19   24 ar  
    39   20   21 ar  
    40   20   41 1   
    41   21   23 ar  
    42   21   43 1   
    43   22   26 1   
    44   22   27 1   
    45   22   28 1   
    46   22   47 1   
    47   23   44 1   
    48   24   42 1   
@<TRIPOS>SUBSTRUCTURE
     1 GMF         1 TEMP              0 ****  ****    0 ROOT
