@<TRIPOS>MOLECULE
GMF
   47    48     1     0     0
SMALL
bcc


@<TRIPOS>ATOM
      1 N1       -586.4590 -251.8000 -284.4430 n2        1 GMF     -0.747100
      2 N2       -586.2820 -250.7760 -282.1860 nh        1 GMF     -0.951800
      3 C3        164.2780   69.0450   79.3320 ce        1 GMF      0.229800
      4 N3       -588.2040 -250.4290 -283.6330 n4        1 GMF     -0.823600
      5 C4       -586.8240 -251.0630 -283.4540 c2        1 GMF      0.702100
      6 N4        166.2450   67.1720   82.6090 n2        1 GMF     -0.217000
      7 C5        164.9690   68.4440   80.4300 cd        1 GMF     -0.140000
      8 C6        166.3610   68.5570   80.6210 cd        1 GMF     -0.105500
      9 C7        166.9450   67.9020   81.7210 cc        1 GMF      0.016500
     10 C8        164.9170   67.0530   82.4150 cc        1 GMF      0.016500
     11 C9        164.2350   67.6490   81.3410 cd        1 GMF     -0.105500
     12 C10       164.6050   70.2200   78.6570 ca        1 GMF     -0.191800
     13 C11       165.5670   71.1580   79.1370 ca        1 GMF     -0.001000
     14 C12       165.8490   72.3010   78.4120 ca        1 GMF     -0.168000
     15 C13       165.1900   72.5580   77.2020 ca        1 GMF      0.045000
     16 C14       164.2130   71.6670   76.7130 cp        1 GMF     -0.044000
     17 C15       163.9160   70.5200   77.4400 ca        1 GMF     -0.003000
     18 C30       163.5740   72.7180   73.1600 ca        1 GMF      0.143100
     19 C16       163.5220   71.9540   75.4560 cp        1 GMF     -0.059000
     20 C17       162.1400   71.7430   75.3450 ca        1 GMF     -0.151000
     21 C18       161.4880   72.0230   74.1470 ca        1 GMF     -0.081000
     22 C1        163.7420   73.4870   70.9110 c3        1 GMF      0.108700
     23 C19       162.1930   72.5090   73.0470 ca        1 GMF     -0.174000
     24 C20       164.2460   72.4430   74.3660 ca        1 GMF     -0.143000
     25 H1       -585.5620 -252.2390 -284.4230 hn        1 GMF      0.486400
     26 H11C      164.5870   73.8480   70.2690 h1        1 GMF      0.056033
     27 H12C      163.2820   72.5670   70.4780 h1        1 GMF      0.056033
     28 H13C      162.9760   74.2890   71.0450 h1        1 GMF      0.056033
     29 H2       -586.0160 -249.8300 -282.0160 hn        1 GMF      0.450800
     30 H3        163.3690   68.4990   78.9890 ha        1 GMF      0.167000
     31 H31N     -588.1150 -249.4100 -283.6390 hn        1 GMF      0.477800
     32 H32N     -588.8070 -250.7160 -282.8530 hn        1 GMF      0.477800
     33 H7        168.0370   67.9630   81.9010 h4        1 GMF      0.197000
     34 H8        164.3740   66.4380   83.1610 h4        1 GMF      0.197000
     35 H6        166.9960   69.0990   79.9050 ha        1 GMF      0.164500
     36 H9        163.1490   67.5120   81.2290 ha        1 GMF      0.164500
     37 H11       166.0560   70.9890   80.1120 ha        1 GMF      0.166000
     38 H15       163.1540   69.8160   77.0610 ha        1 GMF      0.169000
     39 H12       166.5900   73.0270   78.7900 ha        1 GMF      0.179000
     40 H13       165.4250   73.4740   76.6280 ha        1 GMF      0.183000
     41 H17       161.5660   71.3720   76.2060 ha        1 GMF      0.132000
     42 H20       165.3320   72.6080   74.4210 ha        1 GMF      0.152000
     43 H18       160.4010   71.8620   74.0660 ha        1 GMF      0.151000
     44 H19       161.6630   72.7250   72.1080 ha        1 GMF      0.157000
     45 H22      -585.6420 -251.4600 -281.8390 hn        1 GMF      0.450800
     46 H33      -588.6220 -250.7400 -284.5210 hn        1 GMF      0.477800
     47 O1        164.3820   73.1920   72.1510 os        1 GMF     -0.320900
@<TRIPOS>BOND
     1    1    5 2   
     2    1   25 1   
     3    2    5 1   
     4    2   29 1   
     5    2   45 1   
     6    3    7 2   
     7    3   12 1   
     8    3   30 1   
     9    4    5 1   
    10    4   31 1   
    11    4   32 1   
    12    4   46 1   
    13    6    9 1   
    14    6   10 1   
    15    7    8 1   
    16    7   11 1   
    17    8    9 2   
    18    8   35 1   
    19    9   33 1   
    20   10   11 2   
    21   10   34 1   
    22   11   36 1   
    23   12   13 ar  
    24   12   17 ar  
    25   13   14 ar  
    26   13   37 1   
    27   14   15 ar  
    28   14   39 1   
    29   15   16 ar  
    30   15   40 1   
    31   16   17 ar  
    32   16   19 1   
    33   17   38 1   
    34   18   23 ar  
    35   18   24 ar  
    36   18   47 1   
    37   19   20 ar  
    38   19   24 ar  
    39   20   21 ar  
    40   20   41 1   
    41   21   23 ar  
    42   21   43 1   
    43   22   26 1   
    44   22   27 1   
    45   22   28 1   
    46   22   47 1   
    47   23   44 1   
    48   24   42 1   
@<TRIPOS>SUBSTRUCTURE
     1 GMF         1 TEMP              0 ****  ****    0 ROOT
