@<TRIPOS>MOLECULE
GMF
   47    48     1     0     0
SMALL
bcc


@<TRIPOS>ATOM
      1 N1       -309.6780 -136.1830 -194.0720 n2        1 GMF     -0.747100
      2 N2       -309.0690 -136.9240 -196.3640 nh        1 GMF     -0.951800
      3 C3         91.6400   41.8130   53.8920 ce        1 GMF      0.229800
      4 N3       -311.1740 -135.8180 -195.8630 n4        1 GMF     -0.823600
      5 C4       -309.8570 -136.3830 -195.3310 c2        1 GMF      0.702100
      6 N4         93.4940   45.5830   54.5750 n2        1 GMF     -0.217000
      7 C5         92.2280   43.0920   54.1400 cd        1 GMF     -0.140000
      8 C6         93.6380   43.2010   54.1470 cd        1 GMF     -0.105500
      9 C7         94.2150   44.4600   54.3840 cc        1 GMF      0.016500
     10 C8         92.1520   45.4800   54.5330 cc        1 GMF      0.016500
     11 C9         91.4710   44.2670   54.3230 cd        1 GMF     -0.105500
     12 C10        90.4060   41.3400   54.3340 ca        1 GMF     -0.191800
     13 C11        89.6300   41.9910   55.3390 ca        1 GMF     -0.001000
     14 C12        88.4090   41.4710   55.7260 ca        1 GMF     -0.168000
     15 C13        87.9190   40.2950   55.1430 ca        1 GMF      0.045000
     16 C14        88.6730   39.6080   54.1680 cp        1 GMF     -0.044000
     17 C15        89.9060   40.1190   53.7810 ca        1 GMF     -0.003000
     18 C30        86.3200   37.0940   52.6580 ca        1 GMF      0.143100
     19 C16        88.1570   38.3730   53.5790 cp        1 GMF     -0.059000
     20 C17        89.0100   37.2780   53.3740 ca        1 GMF     -0.151000
     21 C18        88.5110   36.1030   52.8180 ca        1 GMF     -0.081000
     22 C1         84.4410   35.9290   51.7690 c3        1 GMF      0.108700
     23 C19        87.1700   35.9980   52.4540 ca        1 GMF     -0.174000
     24 C20        86.8090   38.2870   53.2230 ca        1 GMF     -0.143000
     25 H1       -308.8540 -136.5360 -193.6310 hn        1 GMF      0.486400
     26 H11C       84.9430   35.6990   50.7980 h1        1 GMF      0.056033
     27 H12C       84.5370   35.0730   52.4790 h1        1 GMF      0.056033
     28 H13C       83.3640   36.1910   51.6060 h1        1 GMF      0.056033
     29 H2       -308.0850 -136.9090 -196.1930 hn        1 GMF      0.450800
     30 H3         92.2560   41.1200   53.2720 ha        1 GMF      0.167000
     31 H31N     -311.7520 -136.5810 -196.2260 hn        1 GMF      0.477800
     32 H32N     -310.9700 -135.1520 -196.6180 hn        1 GMF      0.477800
     33 H7         95.3160   44.5830   54.4160 h4        1 GMF      0.197000
     34 H8         91.5920   46.4260   54.6750 h4        1 GMF      0.197000
     35 H6         94.2770   42.3190   53.9920 ha        1 GMF      0.164500
     36 H9         90.3730   44.2590   54.2530 ha        1 GMF      0.164500
     37 H11        90.0280   42.8920   55.8370 ha        1 GMF      0.166000
     38 H15        90.5000   39.5890   53.0150 ha        1 GMF      0.169000
     39 H12        87.8150   41.9760   56.5070 ha        1 GMF      0.179000
     40 H13        86.9400   39.8880   55.4580 ha        1 GMF      0.183000
     41 H17        90.0680   37.3380   53.6670 ha        1 GMF      0.132000
     42 H20        86.1210   39.1330   53.3630 ha        1 GMF      0.152000
     43 H18        89.1830   35.2430   52.6640 ha        1 GMF      0.151000
     44 H19        86.7920   35.0630   52.0140 ha        1 GMF      0.157000
     45 H22      -309.4060 -137.7580 -196.7950 hn        1 GMF      0.450800
     46 H33      -311.6820 -135.3350 -195.1080 hn        1 GMF      0.477800
     47 O1         84.9810   37.1180   52.3430 os        1 GMF     -0.320900
@<TRIPOS>BOND
     1    1    5 2   
     2    1   25 1   
     3    2    5 1   
     4    2   29 1   
     5    2   45 1   
     6    3    7 2   
     7    3   12 1   
     8    3   30 1   
     9    4    5 1   
    10    4   31 1   
    11    4   32 1   
    12    4   46 1   
    13    6    9 1   
    14    6   10 1   
    15    7    8 1   
    16    7   11 1   
    17    8    9 2   
    18    8   35 1   
    19    9   33 1   
    20   10   11 2   
    21   10   34 1   
    22   11   36 1   
    23   12   13 ar  
    24   12   17 ar  
    25   13   14 ar  
    26   13   37 1   
    27   14   15 ar  
    28   14   39 1   
    29   15   16 ar  
    30   15   40 1   
    31   16   17 ar  
    32   16   19 1   
    33   17   38 1   
    34   18   23 ar  
    35   18   24 ar  
    36   18   47 1   
    37   19   20 ar  
    38   19   24 ar  
    39   20   21 ar  
    40   20   41 1   
    41   21   23 ar  
    42   21   43 1   
    43   22   26 1   
    44   22   27 1   
    45   22   28 1   
    46   22   47 1   
    47   23   44 1   
    48   24   42 1   
@<TRIPOS>SUBSTRUCTURE
     1 GMF         1 TEMP              0 ****  ****    0 ROOT
