@<TRIPOS>MOLECULE
GMG
   46    50     1     0     0
SMALL
bcc


@<TRIPOS>ATOM
      1 C4          6.4650    0.5690    1.0260 ca        1 GMG     -0.117000
      2 C5         -4.8280    0.0310   -0.7370 ca        1 GMG     -0.142000
      3 C6         -3.3150    1.3640    0.5900 ca        1 GMG     -0.142000
      4 C7          3.7800    1.9780   -1.1670 ca        1 GMG     -0.121000
      5 C8         -3.9080   -1.0080   -0.7400 ca        1 GMG     -0.126500
      6 C10         2.8250    0.9980   -1.0860 ca        1 GMG     -0.115000
      7 C13        -2.0530   -3.3250   -0.0630 cc        1 GMG     -0.117100
      8 C17         5.0110    1.8530   -0.4670 ca        1 GMG     -0.040000
      9 C20         3.0430   -0.1690   -0.2980 cp        1 GMG     -0.004000
     10 C21         2.0110   -1.1960   -0.2340 cp        1 GMG     -0.208300
     11 C22        -0.2820   -1.8870   -0.1340 ca        1 GMG     -0.188100
     12 C24         0.2120   -3.2630   -0.1260 ca        1 GMG      0.420800
     13 C1          7.1950    2.7060    0.1570 ca        1 GMG     -0.136000
     14 C2          7.4210    1.5510    0.9450 ca        1 GMG     -0.134000
     15 C3          6.0170    2.8550   -0.5330 ca        1 GMG     -0.114000
     16 C9         -2.3900    0.3230    0.5860 ca        1 GMG     -0.126500
     17 C11         4.2330   -0.3060    0.3910 ca        1 GMG     -0.124000
     18 C12         0.6550   -0.8590   -0.1960 ca        1 GMG     -0.022000
     19 C14         2.3810   -2.5720   -0.2130 ca        1 GMG      0.420200
     20 C16        -4.5420    1.2380   -0.0760 ca        1 GMG     -0.001300
     21 C18        -2.6710   -0.8750   -0.0850 ca        1 GMG     -0.078800
     22 C19         5.2360    0.6960    0.3210 ca        1 GMG     -0.033000
     23 C23        -1.7280   -1.9660   -0.0910 cd        1 GMG     -0.022400
     24 C25        -6.9650    1.9190    0.2160 c         1 GMG      0.919600
     25 N26        -0.8980   -4.1140   -0.0860 na        1 GMG     -0.291100
     26 N27         1.5360   -3.6040   -0.1640 nb        1 GMG     -0.686000
     27 O28        -7.4940    2.3880    1.2600 o         1 GMG     -0.837800
     28 O29        -7.5510    1.1540   -0.6030 o         1 GMG     -0.837800
     29 H4          6.6310   -0.3310    1.6370 ha        1 GMG      0.130000
     30 H5         -5.8190   -0.0710   -1.2200 ha        1 GMG      0.157000
     31 H6         -3.0850    2.2920    1.1330 ha        1 GMG      0.157000
     32 H7          3.6090    2.8790   -1.7760 ha        1 GMG      0.132000
     33 H8         -4.1450   -1.9470   -1.2600 ha        1 GMG      0.112500
     34 H10         1.8740    1.0950   -1.6340 ha        1 GMG      0.143000
     35 H13        -3.0410   -3.7900   -0.0240 h4        1 GMG      0.175000
     36 H15        -5.2130    3.1540    0.6220 hc        1 GMG      0.040700
     37 H15A       -5.5230    2.7990   -1.1330 hc        1 GMG      0.040700
     38 H1          7.9750    3.4800    0.1090 ha        1 GMG      0.126000
     39 H2          8.3710    1.4550    1.4900 ha        1 GMG      0.126000
     40 H3          5.8310    3.7490   -1.1460 ha        1 GMG      0.130000
     41 H9         -1.4380    0.4340    1.1250 ha        1 GMG      0.112500
     42 H11         4.4180   -1.1930    1.0160 ha        1 GMG      0.134000
     43 H12         0.3270    0.1920   -0.2090 ha        1 GMG      0.153000
     44 H14         3.4520   -2.8480   -0.2510 h4        1 GMG      0.014100
     45 HN26       -0.8630   -5.0970   -0.0530 hn        1 GMG      0.301700
     46 C15        -5.5130    2.3540   -0.1030 c3        1 GMG     -0.181100
@<TRIPOS>BOND
     1    1   14 ar  
     2    1   22 ar  
     3    1   29 1   
     4    2    5 ar  
     5    2   20 ar  
     6    2   30 1   
     7    3   16 ar  
     8    3   20 ar  
     9    3   31 1   
    10    4    6 ar  
    11    4    8 ar  
    12    4   32 1   
    13    5   21 ar  
    14    5   33 1   
    15    6    9 ar  
    16    6   34 1   
    17    7   23 2   
    18    7   25 1   
    19    7   35 1   
    20    8   15 ar  
    21    8   22 ar  
    22    9   10 1   
    23    9   17 ar  
    24   10   18 ar  
    25   10   19 ar  
    26   11   12 ar  
    27   11   18 ar  
    28   11   23 1   
    29   12   25 1   
    30   12   26 ar  
    31   13   14 ar  
    32   13   15 ar  
    33   13   38 1   
    34   14   39 1   
    35   15   40 1   
    36   16   21 ar  
    37   16   41 1   
    38   17   22 ar  
    39   17   42 1   
    40   18   43 1   
    41   19   26 ar  
    42   19   44 1   
    43   20   46 1   
    44   21   23 1   
    45   24   27 1   
    46   24   28 1   
    47   24   46 1   
    48   25   45 1   
    49   36   46 1   
    50   37   46 1   
@<TRIPOS>SUBSTRUCTURE
     1 GMG         1 TEMP              0 ****  ****    0 ROOT
