@<TRIPOS>MOLECULE
GMG
   46    33     1     0     0
SMALL
bcc


@<TRIPOS>ATOM
      1 C4          4.5880    2.2270   -2.7350 c1        1 GMG     -0.115000
      2 C5         -3.0030   -1.7020    3.2790 c1        1 GMG     -0.126000
      3 C6         -2.9520    0.6490    3.7610 c1        1 GMG     -0.131167
      4 C7          3.3970   -1.2540   -2.3630 c1        1 GMG     -0.131167
      5 C8         -3.0390   -1.4230    1.9220 c1        1 GMG     -0.078250
      6 C10         2.0330   -1.0560   -2.1910 c1        1 GMG     -0.131167
      7 C13        -4.1110    0.1740   -0.4280 c1        1 GMG     -0.098000
      8 C15        -2.9600   -0.9700    5.6810 c3        1 GMG     -0.217000
      9 C17         4.2490   -0.1510   -2.5520 c1        1 GMG     -0.036500
     10 C20         1.5100    0.2330   -2.2040 c1        1 GMG     -0.080250
     11 C21         0.1310    0.1600   -2.0960 c1        1 GMG     -0.080250
     12 C22        -1.9300    0.1420   -0.9000 c1        1 GMG     -0.080250
     13 C24        -2.6200    0.2360   -2.0810 c1        1 GMG      0.029000
     14 C1          6.4770    0.7420   -2.8740 c1        1 GMG     -0.131167
     15 C2          5.9530    2.0310   -2.8880 c1        1 GMG     -0.131167
     16 C3          5.6340   -0.3490   -2.7080 c1        1 GMG     -0.115000
     17 C9         -2.9880    0.9280    2.4040 c1        1 GMG     -0.131167
     18 C11         2.3500    1.3220   -2.3910 c1        1 GMG     -0.078250
     19 C12        -0.5450    0.1040   -0.9100 c1        1 GMG     -0.078250
     20 C14        -0.5710    0.2540   -3.2910 c1        1 GMG     -0.078250
     21 C16        -2.9600   -0.6660    4.1990 c1        1 GMG      0.006000
     22 C18        -3.0310   -0.1080    1.4840 c1        1 GMG     -0.080250
     23 C19         3.7320    1.1230   -2.5660 c1        1 GMG     -0.036500
     24 C23        -2.8480    0.1040    0.1270 c1        1 GMG     -0.043000
     25 C25        -1.5510   -1.2860    6.1310 c2        1 GMG      0.339000
     26 N26        -3.9720    0.2550   -1.7860 n1        1 GMG     -0.207000
     27 N27        -1.9340    0.2920   -3.2800 n1        1 GMG     -0.162000
     28 O28        -0.9860   -0.5580    6.9880 o         1 GMG     -0.572500
     29 O29        -0.9340   -2.2620    5.6300 o         1 GMG     -0.572500
     30 H4          4.2210    3.1310   -2.7440 ha        1 GMG      0.129500
     31 H5         -2.9860   -2.6280    3.5860 ha        1 GMG      0.191000
     32 H6         -2.8980    1.3790    4.4080 ha        1 GMG      0.126500
     33 H7          3.7660   -2.1570   -2.3360 ha        1 GMG      0.126500
     34 H8         -3.0690   -2.1530    1.2740 ha        1 GMG      0.139750
     35 H10         1.4440   -1.8210   -2.0480 ha        1 GMG      0.126500
     36 H13        -4.9540    0.1730    0.0640 DU        1 GMG      0.210000
     37 H15        -3.2930   -0.1930    6.1720 hc        1 GMG      0.080000
     38 H15A       -3.5390   -1.7390    5.8550 hc        1 GMG      0.080000
     39 H1          7.4370    0.6040   -2.9820 ha        1 GMG      0.126500
     40 H2          6.5460    2.7970   -3.0050 ha        1 GMG      0.126500
     41 H3          6.0020   -1.2530   -2.6980 ha        1 GMG      0.129500
     42 H9         -2.9830    1.8540    2.0960 ha        1 GMG      0.126500
     43 H11         1.9820    2.2260   -2.4000 ha        1 GMG      0.139750
     44 H12        -0.0540   -0.0010   -0.0730 ha        1 GMG      0.139750
     45 H14        -0.0890    0.2840   -4.1390 ha        1 GMG      0.139750
     46 HN26       -4.6520    0.3120   -2.3910 DU        1 GMG      0.210000
@<TRIPOS>BOND
     1    1   23 1   
     2    1   30 1   
     3    2   21 1   
     4    2   31 1   
     5    3   17 1   
     6    3   32 1   
     7    4    6 1   
     8    4   33 1   
     9    5   22 1   
    10    5   34 1   
    11    6   35 1   
    12    7   24 1   
    13    7   26 1   
    14    8   21 1   
    15    8   25 1   
    16    8   37 1   
    17    8   38 1   
    18    9   16 1   
    19    9   23 1   
    20   10   18 1   
    21   11   20 1   
    22   12   19 1   
    23   13   27 1   
    24   14   15 1   
    25   14   39 1   
    26   15   40 1   
    27   16   41 1   
    28   17   42 1   
    29   18   43 1   
    30   19   44 1   
    31   20   45 1   
    32   25   28 1   
    33   25   29 1   
@<TRIPOS>SUBSTRUCTURE
     1 GMG         1 TEMP              0 ****  ****    0 ROOT
