@<TRIPOS>MOLECULE
GMH
   28    28     1     0     0
SMALL
bcc


@<TRIPOS>ATOM
      1 C1         -0.4040   -1.0220   -1.8060 c3        1 GMH      0.299900
      2 C2          1.1080   -1.0220   -1.8060 c3        1 GMH      0.098100
      3 C3          1.6720   -1.0220   -0.4340 c3        1 GMH      0.074100
      4 C4          1.0950    0.0630    0.4130 c3        1 GMH      0.087100
      5 C5         -0.4230    0.0600    0.4010 c3        1 GMH      0.150100
      6 C6         -0.9150    1.2780    1.1200 c3        1 GMH      0.153100
      7 C7         -2.2610    0.9820    1.7540 c3        1 GMH      0.093400
      8 O1         -0.8510   -2.2430   -1.3400 oh        1 GMH     -0.616800
      9 O2          1.5740    0.1520   -2.5010 oh        1 GMH     -0.594800
     10 O3          3.1100   -0.8390   -0.5170 oh        1 GMH     -0.594800
     11 O4          1.5490   -0.1120    1.7620 oh        1 GMH     -0.595800
     12 O5         -0.9740    0.0550   -0.9540 os        1 GMH     -0.446600
     13 O6         -1.0520    2.3430    0.2020 oh        1 GMH     -0.600800
     14 O7         -2.6500    2.0700    2.5630 oh        1 GMH     -0.612800
     15 H1         -0.7190   -0.8990   -2.7220 h2        1 GMH      0.086700
     16 H2          1.4250   -1.8160   -2.2780 h1        1 GMH      0.109700
     17 H3          1.4850   -1.8840   -0.0150 h1        1 GMH      0.107700
     18 H4          1.4120    0.9250    0.0820 h1        1 GMH      0.064700
     19 H5         -0.7400   -0.7340    0.8730 h1        1 GMH      0.068700
     20 H6         -0.2760    1.5270    1.8150 h1        1 GMH      0.073700
     21 H71        -2.9270    0.8420    1.0540 h1        1 GMH      0.041700
     22 H72        -2.1920    0.1770    2.3030 h1        1 GMH      0.041700
     23 HO1        -1.4620   -2.5670   -1.8970 ho        1 GMH      0.421000
     24 HO2         1.8790   -0.0800   -3.3020 ho        1 GMH      0.420000
     25 HO3         3.5180   -1.5960   -0.2980 ho        1 GMH      0.417000
     26 HO4         2.2630    0.3960    1.9020 ho        1 GMH      0.423000
     27 HO6        -0.8630    3.1100    0.6080 ho        1 GMH      0.423000
     28 HO7        -3.3800    1.8540    3.0180 ho        1 GMH      0.409000
@<TRIPOS>BOND
     1    1    2 1   
     2    1    8 1   
     3    1   12 1   
     4    1   15 1   
     5    2    3 1   
     6    2    9 1   
     7    2   16 1   
     8    3    4 1   
     9    3   10 1   
    10    3   17 1   
    11    4    5 1   
    12    4   11 1   
    13    4   18 1   
    14    5    6 1   
    15    5   12 1   
    16    5   19 1   
    17    6    7 1   
    18    6   13 1   
    19    6   20 1   
    20    7   14 1   
    21    7   21 1   
    22    7   22 1   
    23    8   23 1   
    24    9   24 1   
    25   10   25 1   
    26   11   26 1   
    27   13   27 1   
    28   14   28 1   
@<TRIPOS>SUBSTRUCTURE
     1 GMH         1 TEMP              0 ****  ****    0 ROOT
