@<TRIPOS>MOLECULE
GMH
   28    28     1     0     0
SMALL
bcc


@<TRIPOS>ATOM
      1 C1          1.7570    0.1180   -0.9910 c3        1 GMH      0.314900
      2 C2          0.7980    0.0940   -2.1960 c3        1 GMH      0.094100
      3 C3         -0.5810    0.6530   -1.8270 c3        1 GMH      0.115100
      4 C4         -1.0790    0.0400   -0.5080 c3        1 GMH      0.090100
      5 C5         -0.0440    0.2810    0.6000 c3        1 GMH      0.116100
      6 C6         -0.4700   -0.4000    1.9090 c3        1 GMH      0.150100
      7 C7          0.4570    0.0040    3.0630 c3        1 GMH      0.096400
      8 O1          2.1730    1.4500   -0.8020 oh        1 GMH     -0.624800
      9 O2          0.5970   -1.2400   -2.6330 oh        1 GMH     -0.598800
     10 O3         -1.5260    0.4320   -2.8530 oh        1 GMH     -0.594800
     11 O4         -2.2850    0.6610   -0.0980 oh        1 GMH     -0.591800
     12 O5          1.2100   -0.3090    0.2370 os        1 GMH     -0.459600
     13 O6         -0.4940   -1.8080    1.7950 oh        1 GMH     -0.589800
     14 O7          0.2840    1.3940    3.2800 oh        1 GMH     -0.598800
     15 H1          2.6340   -0.5740   -1.1570 h2        1 GMH      0.067700
     16 H2          1.2440    0.7120   -3.0240 h1        1 GMH      0.073700
     17 H3         -0.5120    1.7740   -1.7300 h1        1 GMH      0.104700
     18 H4         -1.2460   -1.0670   -0.6370 h1        1 GMH      0.069700
     19 H5          0.0970    1.3830    0.7740 h1        1 GMH      0.088700
     20 H6         -1.5340   -0.1010    2.1320 h1        1 GMH      0.114700
     21 H71         1.5260   -0.2080    2.7920 h1        1 GMH      0.034200
     22 H72         0.1820   -0.5810    3.9800 h1        1 GMH      0.034200
     23 HO1         2.6190    1.4970    0.0540 ho        1 GMH      0.428000
     24 HO2         1.4300   -1.5460   -3.0100 ho        1 GMH      0.413000
     25 HO3        -1.5130   -0.5120   -3.0630 ho        1 GMH      0.420000
     26 HO4        -2.8530    0.6950   -0.8810 ho        1 GMH      0.420000
     27 HO6         0.3700   -2.0850    1.4620 ho        1 GMH      0.411000
     28 HO7         0.7210    1.5970    4.1150 ho        1 GMH      0.403000
@<TRIPOS>BOND
     1    1    2 1   
     2    1    8 1   
     3    1   12 1   
     4    1   15 1   
     5    2    3 1   
     6    2    9 1   
     7    2   16 1   
     8    3    4 1   
     9    3   10 1   
    10    3   17 1   
    11    4    5 1   
    12    4   11 1   
    13    4   18 1   
    14    5    6 1   
    15    5   12 1   
    16    5   19 1   
    17    6    7 1   
    18    6   13 1   
    19    6   20 1   
    20    7   14 1   
    21    7   21 1   
    22    7   22 1   
    23    8   23 1   
    24    9   24 1   
    25   10   25 1   
    26   11   26 1   
    27   13   27 1   
    28   14   28 1   
@<TRIPOS>SUBSTRUCTURE
     1 GMH         1 TEMP              0 ****  ****    0 ROOT
