@<TRIPOS>MOLECULE
GMN
   96    91     1     0     0
SMALL
bcc


@<TRIPOS>ATOM
      1 O2       -147.0590   78.4060   37.2900 oh        1 GMN     -0.366000
      2 C20      -148.1370   81.9590   38.5050 c1        1 GMN      0.274000
      3 C21      -151.3730   84.5130   35.9250 c2        1 GMN      0.238000
      4 C22      -151.4860   83.4620   36.9560 c2        1 GMN     -0.045000
      5 C23      -150.7530   82.3740   36.9740 c1        1 GMN     -0.150000
      6 C24      -150.0200   81.2920   36.9850 c2        1 GMN      0.062000
      7 C19      -148.7610   81.1540   37.6680 c2        1 GMN     -0.491000
      8 O3       -152.1260   85.4930   35.9070 o         1 GMN     -0.332000
      9 C1       -153.7390   83.5950   37.6710 c3        1 GMN     -0.039000
     10 C2       -154.5400   84.3060   38.7620 c3        1 GMN     -0.127000
     11 C4       -153.1040   86.2860   39.0040 c3        1 GMN     -0.128667
     12 C5       -152.9460   87.7720   39.2380 c3        1 GMN     -0.243333
     13 C6       -154.9650   86.3480   37.4070 c3        1 GMN     -0.128667
     14 C7       -156.2750   85.8020   36.8830 c3        1 GMN     -0.243333
     15 C8       -155.4560   86.3140   39.8100 c3        1 GMN     -0.128667
     16 C9       -155.0980   85.9450   41.2340 c3        1 GMN     -0.243333
     17 C10      -146.1520   78.1630   36.2270 c3        1 GMN     -0.025000
     18 C11      -144.7620   77.8150   36.7840 c3        1 GMN     -0.098000
     19 C13         3.7170    4.0070   -2.0670 c2        1 GMN     -0.218000
     20 C14         4.2980    3.0980   -1.2960 c2        1 GMN     -0.218000
     21 C15      -143.2060   78.7920   35.1900 c3        1 GMN     -0.063500
     22 C16      -142.1920   79.5290   36.0510 c3        1 GMN     -0.231000
     23 C17      -142.8080   76.5560   36.0600 c3        1 GMN     -0.063500
     24 C18      -143.3570   75.1390   36.0270 c3        1 GMN     -0.231000
     25 C25       229.2840 -487.9940  -92.5850 c3        1 GMN     -0.262000
     26 C26       227.8220 -488.2080  -92.6730 c2        1 GMN      0.112000
     27 C28       669.4000  730.1530  -27.6890 c3        1 GMN     -0.360000
     28 C29       668.0220  730.2580  -27.3880 c2        1 GMN      0.301000
     29 C30       225.7000 -489.3380  -92.3490 c3        1 GMN     -0.086000
     30 C31       224.9050 -488.8810  -91.1400 c3        1 GMN     -0.241000
     31 C32       227.8060 -490.3180  -91.4420 c3        1 GMN     -0.086000
     32 C33       228.2220 -491.4910  -92.3110 c3        1 GMN     -0.241000
     33 N3       -154.5140   85.8100   38.7440 n4        1 GMN      0.032000
     34 N12      -143.7930   77.5780   35.7290 n3        1 GMN     -0.270000
     35 N27       227.1590 -489.2260  -92.1820 n3        1 GMN     -0.077000
     36 H20      -150.5690   84.3660   35.1720 h4        1 GMN      0.136000
     37 H24      -148.2130   80.1920   37.4650 ha        1 GMN      0.250000
     38 H19      -150.3680   80.3980   36.4250 ha        1 GMN      0.172000
     39 H11      -153.9400   84.0070   36.6480 h1        1 GMN      0.113500
     40 H12      -154.1400   86.1310   36.6620 hx        1 GMN      0.145333
     41 H21      -154.0100   82.5040   37.7000 h1        1 GMN      0.113500
     42 H22      -155.6160   83.9830   38.6720 hx        1 GMN      0.143000
     43 H41      -154.1370   83.9740   39.7640 hx        1 GMN      0.143000
     44 H42      -152.7210   85.7160   39.8980 hx        1 GMN      0.145333
     45 H51      -152.4850   85.9760   38.1060 hx        1 GMN      0.145333
     46 H52      -153.3240   88.3770   38.3790 hc        1 GMN      0.109111
     47 H53      -151.8500   87.9780   39.3480 hc        1 GMN      0.109111
     48 H61      -153.4560   88.1070   40.1730 hc        1 GMN      0.109111
     49 H62      -155.0460   87.4680   37.5160 hx        1 GMN      0.145333
     50 H71      -156.4950   86.3260   35.9170 hc        1 GMN      0.109111
     51 H72      -156.2150   84.7070   36.6740 hc        1 GMN      0.109111
     52 H73      -157.1260   85.9930   37.5800 hc        1 GMN      0.109111
     53 H81      -156.4810   85.9100   39.5690 hx        1 GMN      0.145333
     54 H82      -155.4900   87.4390   39.7140 hx        1 GMN      0.145333
     55 H91      -155.1410   84.8420   41.4040 hc        1 GMN      0.109111
     56 H92      -155.8520   86.4270   41.9080 hc        1 GMN      0.109111
     57 H93      -154.0860   86.3180   41.5220 hc        1 GMN      0.109111
     58 H101     -147.0750   77.6180   37.8450 ho        1 GMN      0.208000
     59 H102     -146.5410   77.3380   35.5740 h1        1 GMN      0.093000
     60 H111     -146.1360   79.1240   35.6470 h1        1 GMN      0.093000
     61 H112     -144.4460   78.6490   37.4760 h1        1 GMN      0.077500
     62 H131     -144.8670   76.8860   37.4140 h1        1 GMN      0.077500
     63 H132        3.8620    5.0860   -1.9250 ha        1 GMN      0.109000
     64 H141        3.0520    3.7410   -2.9000 ha        1 GMN      0.109000
     65 H142        4.1520    2.0180   -1.4380 ha        1 GMN      0.109000
     66 H143        4.9630    3.3630   -0.4630 ha        1 GMN      0.109000
     67 H151     -142.7100   78.5080   34.2170 h1        1 GMN      0.081250
     68 H152     -144.0520   79.4960   34.9460 h1        1 GMN      0.081250
     69 H161     -141.3220   78.8730   36.2940 hc        1 GMN      0.079333
     70 H162     -141.8190   80.4220   35.4950 hc        1 GMN      0.079333
     71 H163     -142.6480   79.8760   37.0090 hc        1 GMN      0.079333
     72 H171     -141.9750   76.6240   35.3010 h1        1 GMN      0.081250
     73 H172     -142.3480   76.7420   37.0750 h1        1 GMN      0.081250
     74 H181     -143.8230   74.9110   35.0380 hc        1 GMN      0.079333
     75 H182     -142.5140   74.4270   36.1980 hc        1 GMN      0.079333
     76 H183     -144.1220   74.9750   36.8230 hc        1 GMN      0.079333
     77 H251      229.8700 -488.9460  -92.6680 hc        1 GMN      0.151000
     78 H252      229.5320 -487.5110  -91.6010 hc        1 GMN      0.151000
     79 H261      229.6110 -487.3020  -93.4050 hc        1 GMN      0.151000
     80 H262      227.2380 -487.4140  -93.2010 h4        1 GMN      0.195000
     81 H281      669.6340  730.0960  -28.7920 hc        1 GMN      0.226333
     82 H282      670.0480  730.9280  -27.1840 hc        1 GMN      0.226333
     83 H291      669.7650  729.1460  -27.2620 hc        1 GMN      0.226333
     84 H292      667.6670  730.7200  -26.4430 ha        1 GMN      0.190000
     85 H293      667.2450  729.8730  -28.0820 ha        1 GMN      0.190000
     86 H301      225.3930 -488.7340  -93.2520 h1        1 GMN      0.137250
     87 H302      225.4820 -490.4260  -92.5640 h1        1 GMN      0.137250
     88 H311      223.8190 -489.0230  -91.3710 hc        1 GMN      0.113833
     89 H312      225.0790 -487.8010  -90.9170 hc        1 GMN      0.113833
     90 H313      225.1520 -489.4810  -90.2310 hc        1 GMN      0.113833
     91 H321      227.0700 -490.6680  -90.6600 h1        1 GMN      0.137250
     92 H322      228.7080 -489.9010  -90.9080 h1        1 GMN      0.137250
     93 H331      228.6760 -492.2690  -91.6450 hc        1 GMN      0.113833
     94 H332      228.9820 -491.1910  -93.0720 hc        1 GMN      0.113833
     95 H333      227.3470 -491.9460  -92.8360 hc        1 GMN      0.113833
     96 O1       -152.3580   83.7360   38.0180 os        1 GMN     -0.233000
@<TRIPOS>BOND
     1    1   17 1   
     2    1   58 1   
     3    2    7 1   
     4    3    4 1   
     5    3    8 1   
     6    3   36 1   
     7    4    5 1   
     8    4   96 1   
     9    5    6 1   
    10    6    7 1   
    11    6   38 1   
    12    7   37 1   
    13    9   10 1   
    14    9   39 1   
    15    9   41 1   
    16    9   96 1   
    17   10   33 1   
    18   10   42 1   
    19   10   43 1   
    20   11   12 1   
    21   11   33 1   
    22   11   44 1   
    23   11   45 1   
    24   12   46 1   
    25   12   47 1   
    26   12   48 1   
    27   13   14 1   
    28   13   33 1   
    29   13   40 1   
    30   13   49 1   
    31   14   50 1   
    32   14   51 1   
    33   14   52 1   
    34   15   16 1   
    35   15   33 1   
    36   15   53 1   
    37   15   54 1   
    38   16   55 1   
    39   16   56 1   
    40   16   57 1   
    41   17   18 1   
    42   17   59 1   
    43   17   60 1   
    44   18   34 1   
    45   18   61 1   
    46   18   62 1   
    47   19   20 1   
    48   19   63 1   
    49   19   64 1   
    50   20   65 1   
    51   20   66 1   
    52   21   22 1   
    53   21   34 1   
    54   21   67 1   
    55   21   68 1   
    56   22   69 1   
    57   22   70 1   
    58   22   71 1   
    59   23   24 1   
    60   23   34 1   
    61   23   72 1   
    62   23   73 1   
    63   24   74 1   
    64   24   75 1   
    65   24   76 1   
    66   25   26 1   
    67   25   77 1   
    68   25   78 1   
    69   25   79 1   
    70   26   35 1   
    71   26   80 1   
    72   27   28 1   
    73   27   81 1   
    74   27   82 1   
    75   27   83 1   
    76   28   84 1   
    77   28   85 1   
    78   29   30 1   
    79   29   35 1   
    80   29   86 1   
    81   29   87 1   
    82   30   88 1   
    83   30   89 1   
    84   30   90 1   
    85   31   32 1   
    86   31   35 1   
    87   31   91 1   
    88   31   92 1   
    89   32   93 1   
    90   32   94 1   
    91   32   95 1   
@<TRIPOS>SUBSTRUCTURE
     1 GMN         1 TEMP              0 ****  ****    0 ROOT
