@<TRIPOS>MOLECULE
GMN
   96    91     1     0     0
SMALL
bcc


@<TRIPOS>ATOM
      1 O2       -319.4830  560.6940  722.6440 oh        1 GMN     -0.256000
      2 C20      -317.5070  564.2870  721.0420 c1        1 GMN      0.159000
      3 C21      -317.8920  563.8370  723.4920 c2        1 GMN      0.003000
      4 C22      -318.8960  562.9490  723.2750 c2        1 GMN     -0.066000
      5 C23      -318.8690  561.8820  722.2810 c2        1 GMN      0.006000
      6 C24      -318.4090  561.9790  721.0100 c2        1 GMN     -0.077000
      7 C19      -317.9110  563.1940  720.4200 c2        1 GMN     -0.421000
      8 O3       -318.0860  564.8480  724.4010 oh        1 GMN     -0.273000
      9 C1       -321.2580  563.0380  723.4000 c3        1 GMN     -0.043000
     10 C2       -322.3230  563.4200  724.4350 c3        1 GMN     -0.089000
     11 C4         30.0400  -26.7320    5.4390 c3        1 GMN     -0.212000
     12 C5         30.3390  -25.9100    4.2210 c3        1 GMN     -0.212000
     13 C6       -323.0910  565.7730  724.1880 c3        1 GMN     -0.080000
     14 C7       -324.5420  565.7540  724.6300 c3        1 GMN     -0.242000
     15 C8       -321.4390  565.1960  725.8660 c2        1 GMN      0.140000
     16 C9       -320.4940  564.3550  726.6240 c3        1 GMN     -0.264000
     17 C10      -609.9530 -138.8310-1017.4710 c2        1 GMN     -0.142000
     18 C11      -611.1720 -139.3670-1017.4040 c2        1 GMN     -0.192000
     19 C13      -611.8320 -141.3920-1016.3100 c3        1 GMN     -0.123000
     20 C14      -612.5260 -142.1440-1015.1980 c3        1 GMN     -0.245000
     21 C15      -611.1560 -139.4620-1014.9190 c3        1 GMN     -0.123000
     22 C16      -611.1780 -137.9740-1014.6350 c3        1 GMN     -0.245000
     23 C17      -613.2490 -139.3810-1016.1980 c3        1 GMN     -0.182000
     24 C18      -613.5500 -140.8410-1019.2020 c1        1 GMN     -0.091000
     25 C25      1014.3940 -566.3020  111.3190 c2        1 GMN     -0.131000
     26 C26      1014.8160 -565.2770  110.5730 c2        1 GMN     -0.191000
     27 C28      1013.6450 -563.4320  111.6840 c3        1 GMN     -0.117000
     28 C29      1014.7690 -563.2450  112.6810 c3        1 GMN     -0.245000
     29 C30      1014.9340 -563.0500  109.6380 c3        1 GMN     -0.182000
     30 C31      1011.8690 -563.1720  109.3670 c3        1 GMN     -0.244500
     31 C32      1012.8160 -564.3520  109.5310 c3        1 GMN     -0.051000
     32 C33      1013.1640 -564.9160  108.1590 c3        1 GMN     -0.244500
     33 N3       -322.2360  564.8070  724.8970 n3        1 GMN     -0.089000
     34 N12      -611.8400 -139.8800-1016.1920 n4        1 GMN      0.067000
     35 N27      1014.0660 -564.0260  110.3590 n4        1 GMN      0.056000
     36 H20      -316.8840  563.7380  723.0480 h4        1 GMN      0.184000
     37 H24      -317.8530  563.1900  719.3070 ha        1 GMN      0.209000
     38 H19      -318.4390  561.0860  720.3610 ha        1 GMN      0.169000
     39 H11      -321.2120  563.7680  722.5510 h1        1 GMN      0.123000
     40 H12      -321.4830  562.0080  723.0080 h1        1 GMN      0.123000
     41 H21      -323.3400  563.2700  723.9690 h1        1 GMN      0.145000
     42 H22      -322.2290  562.7330  725.3260 h1        1 GMN      0.145000
     43 H41        29.5070  -26.1200    6.2070 hc        1 GMN      0.071000
     44 H42        29.3940  -27.6050    5.1790 hc        1 GMN      0.071000
     45 H51        30.9830  -27.1190    5.8960 hc        1 GMN      0.071000
     46 H52        30.9850  -25.0370    4.4810 hc        1 GMN      0.071000
     47 H53        30.8730  -26.5220    3.4530 hc        1 GMN      0.071000
     48 H61        29.3960  -25.5220    3.7640 hc        1 GMN      0.071000
     49 H62      -322.6670  566.8080  724.3350 h1        1 GMN      0.133000
     50 H71      -323.0210  565.5220  723.0880 h1        1 GMN      0.133000
     51 H72      -325.0130  564.7550  724.4660 hc        1 GMN      0.112000
     52 H73      -325.0980  566.5090  724.0180 hc        1 GMN      0.112000
     53 H81      -324.6470  566.0280  725.7080 hc        1 GMN      0.112000
     54 H82      -321.4540  566.2810  726.1330 h4        1 GMN      0.187000
     55 H91      -320.2620  564.8350  727.6080 hc        1 GMN      0.158333
     56 H92      -319.5370  564.2740  726.0240 hc        1 GMN      0.158333
     57 H93      -320.8610  563.3110  726.7980 hc        1 GMN      0.158333
     58 H101     -319.2380  560.5150  723.5650 ho        1 GMN      0.227000
     59 H102     -609.2680 -138.6790-1016.6250 ha        1 GMN      0.159000
     60 H111     -609.5640 -138.4940-1018.4480 ha        1 GMN      0.159000
     61 H112     -611.8220 -139.5170-1018.2980 hx        1 GMN      0.209000
     62 H131     -612.3360 -141.6280-1017.2990 hx        1 GMN      0.139250
     63 H132     -610.7510 -141.7060-1016.3660 hx        1 GMN      0.139250
     64 H141     -612.5220 -143.2300-1015.4740 hc        1 GMN      0.111833
     65 H142     -613.5880 -141.8250-1015.0720 hc        1 GMN      0.111833
     66 H143     -611.9950 -142.0400-1014.2210 hc        1 GMN      0.111833
     67 H151     -611.6750 -139.9990-1014.0730 hx        1 GMN      0.139250
     68 H152     -610.0930 -139.8340-1014.9720 hx        1 GMN      0.139250
     69 H161     -612.2080 -137.6230-1014.3820 hc        1 GMN      0.111833
     70 H162     -610.5160 -137.7830-1013.7520 hc        1 GMN      0.111833
     71 H163     -610.7970 -137.3740-1015.4970 hc        1 GMN      0.111833
     72 H171     -613.2450 -138.2640-1016.2960 hx        1 GMN      0.139333
     73 H172     -613.7510 -139.6750-1015.2400 hx        1 GMN      0.139333
     74 H181     -613.7890 -139.8350-1017.0770 hx        1 GMN      0.139333
     75 H182     -613.4280 -140.3490-1020.1760 ha        1 GMN      0.052500
     76 H183     -614.2560 -141.6820-1019.2350 ha        1 GMN      0.052500
     77 H251     -317.2790  565.3870  724.4070 ho        1 GMN      0.245000
     78 H252     1013.4420 -566.3380  111.8680 ha        1 GMN      0.161500
     79 H261     1015.0250 -567.2020  111.4200 ha        1 GMN      0.161500
     80 H262     1015.7880 -565.2970  110.0410 hx        1 GMN      0.189000
     81 H281     1015.3210 -564.1980  112.8690 hc        1 GMN      0.114333
     82 H282     1013.1710 -562.4320  111.4650 hx        1 GMN      0.134500
     83 H291     1012.8620 -564.1160  112.1200 hx        1 GMN      0.134500
     84 H292     1014.3150 -562.9040  113.6470 hc        1 GMN      0.114333
     85 H293     1015.4960 -562.4660  112.3460 hc        1 GMN      0.114333
     86 H301     1014.3710 -562.0920  109.4880 hx        1 GMN      0.138333
     87 H302     1015.8560 -562.8510  110.2480 hx        1 GMN      0.138333
     88 H311     1015.2320 -563.4720  108.6410 hx        1 GMN      0.138333
     89 H312     1011.4340 -562.8480  110.3430 hc        1 GMN      0.113500
     90 H313     1012.3630 -562.3000  108.8750 hc        1 GMN      0.113500
     91 H321     1011.0230 -563.5020  108.7100 hc        1 GMN      0.113500
     92 H322     1012.2850 -565.1570  110.1270 hx        1 GMN      0.132000
     93 H331     1013.9500 -565.7080  108.2180 hc        1 GMN      0.113500
     94 H332     1012.2380 -565.3770  107.7300 hc        1 GMN      0.113500
     95 H333     1013.5050 -564.1120  107.4620 hc        1 GMN      0.113500
     96 O1       -320.0130  563.0020  724.1090 os        1 GMN     -0.244000
@<TRIPOS>BOND
     1    1    5 1   
     2    1   58 1   
     3    2    7 1   
     4    3    4 1   
     5    3    8 1   
     6    3   36 1   
     7    4    5 1   
     8    4   96 1   
     9    5    6 1   
    10    6    7 1   
    11    6   38 1   
    12    7   37 1   
    13    8   77 1   
    14    9   10 1   
    15    9   39 1   
    16    9   40 1   
    17    9   96 1   
    18   10   33 1   
    19   10   41 1   
    20   10   42 1   
    21   11   12 1   
    22   11   43 1   
    23   11   44 1   
    24   11   45 1   
    25   12   46 1   
    26   12   47 1   
    27   12   48 1   
    28   13   14 1   
    29   13   33 1   
    30   13   49 1   
    31   13   50 1   
    32   14   51 1   
    33   14   52 1   
    34   14   53 1   
    35   15   16 1   
    36   15   33 1   
    37   15   54 1   
    38   16   55 1   
    39   16   56 1   
    40   16   57 1   
    41   17   18 1   
    42   17   59 1   
    43   17   60 1   
    44   18   34 1   
    45   18   61 1   
    46   19   20 1   
    47   19   34 1   
    48   19   62 1   
    49   19   63 1   
    50   20   64 1   
    51   20   65 1   
    52   20   66 1   
    53   21   22 1   
    54   21   34 1   
    55   21   67 1   
    56   21   68 1   
    57   22   69 1   
    58   22   70 1   
    59   22   71 1   
    60   23   34 1   
    61   23   72 1   
    62   23   73 1   
    63   23   74 1   
    64   24   75 1   
    65   24   76 1   
    66   25   26 1   
    67   25   78 1   
    68   25   79 1   
    69   26   35 1   
    70   26   80 1   
    71   27   28 1   
    72   27   35 1   
    73   27   82 1   
    74   27   83 1   
    75   28   81 1   
    76   28   84 1   
    77   28   85 1   
    78   29   35 1   
    79   29   86 1   
    80   29   87 1   
    81   29   88 1   
    82   30   31 1   
    83   30   89 1   
    84   30   90 1   
    85   30   91 1   
    86   31   32 1   
    87   31   35 1   
    88   31   92 1   
    89   32   93 1   
    90   32   94 1   
    91   32   95 1   
@<TRIPOS>SUBSTRUCTURE
     1 GMN         1 TEMP              0 ****  ****    0 ROOT
