@<TRIPOS>MOLECULE
GMN
   96    96     1     0     0
SMALL
bcc


@<TRIPOS>ATOM
      1 O2         -1.4590   -3.6010    7.2380 os        1 GMN     -0.330900
      2 C20         0.5040   -4.1680    3.5810 ca        1 GMN     -0.203500
      3 C21        -0.4170   -3.1260    3.7460 ca        1 GMN      0.139600
      4 C22        -1.0710   -2.9390    4.9860 ca        1 GMN      0.035100
      5 C23        -0.7740   -3.8220    6.0500 ca        1 GMN      0.139600
      6 C24         0.1420   -4.8660    5.8730 ca        1 GMN     -0.203500
      7 C19         0.7730   -5.0290    4.6420 ca        1 GMN     -0.035000
      8 O3         -0.7480   -2.2310    2.7360 os        1 GMN     -0.330900
      9 C1         -3.3010   -2.1960    5.1840 c3        1 GMN      0.109400
     10 C2         -4.0360   -1.0940    5.9470 c3        1 GMN      0.106800
     11 C4         -2.9650    0.8300    4.8690 c3        1 GMN      0.114133
     12 C5         -3.0440    2.2000    4.2330 c3        1 GMN     -0.129433
     13 C6         -5.0650   -0.0480    3.9400 c3        1 GMN      0.114133
     14 C7         -6.3140   -0.8910    4.0770 c3        1 GMN     -0.129433
     15 C8         -5.1070    1.1040    6.1030 c3        1 GMN      0.114133
     16 C9         -4.4250    1.5830    7.3660 c3        1 GMN     -0.129433
     17 C10        -0.9890   -4.3870    8.3470 c3        1 GMN      0.110900
     18 C11        -1.7390   -3.8350    9.5670 c3        1 GMN      0.102300
     19 C13        -1.9500   -5.9630   10.7790 c3        1 GMN      0.115300
     20 C14        -1.8790   -6.7600   12.0640 c3        1 GMN     -0.131433
     21 C15         0.0360   -4.5620   11.1470 c3        1 GMN      0.115300
     22 C16         0.7340   -3.2200   11.1330 c3        1 GMN     -0.131433
     23 C17        -2.1430   -3.7930   11.9800 c3        1 GMN      0.115300
     24 C18        -3.6550   -3.7980   11.9360 c3        1 GMN     -0.131433
     25 C25         0.0480   -2.3660    1.5460 c3        1 GMN      0.110900
     26 C26        -0.3950   -1.2070    0.6430 c3        1 GMN      0.102300
     27 C28         0.0240   -2.3760   -1.5090 c3        1 GMN      0.115300
     28 C29        -1.4260   -2.6360   -1.8470 c3        1 GMN     -0.131433
     29 C30        -0.2260    0.0940   -1.3960 c3        1 GMN      0.115300
     30 C31         0.2770    0.3100   -2.8060 c3        1 GMN     -0.131433
     31 C32         1.7990   -1.0430   -0.5120 c3        1 GMN      0.115300
     32 C33         2.2960    0.0860    0.3630 c3        1 GMN     -0.131433
     33 N3         -4.2890    0.1930    5.2130 n4        1 GMN     -0.608800
     34 N12        -1.4480   -4.5380   10.8610 n4        1 GMN     -0.610800
     35 N27         0.3000   -1.1370   -0.6870 n4        1 GMN     -0.610800
     36 H20         1.0220   -4.3350    2.6260 ha        1 GMN      0.156000
     37 H24         0.3780   -5.5700    6.6830 ha        1 GMN      0.156000
     38 H19         1.4940   -5.8540    4.5050 ha        1 GMN      0.174000
     39 H11        -3.4510   -3.1580    5.7460 h1        1 GMN      0.076200
     40 H12        -3.6550   -2.3160    4.1280 h1        1 GMN      0.076200
     41 H21        -3.4310   -0.8410    6.8660 hx        1 GMN      0.106200
     42 H22        -5.0390   -1.5010    6.2650 hx        1 GMN      0.106200
     43 H41        -2.3690    0.8900    5.8250 hx        1 GMN      0.099700
     44 H42        -2.4270    0.1160    4.1770 hx        1 GMN      0.099700
     45 H51        -1.9960    2.5400    4.0290 hc        1 GMN      0.075589
     46 H52        -3.6000    2.1850    3.2650 hc        1 GMN      0.075589
     47 H53        -3.5180    2.9520    4.9100 hc        1 GMN      0.075589
     48 H61        -5.3460    0.9660    3.5290 hx        1 GMN      0.099700
     49 H62        -4.3610   -0.5390    3.2090 hx        1 GMN      0.099700
     50 H71        -6.8210   -0.9130    3.0770 hc        1 GMN      0.075589
     51 H72        -6.0770   -1.9430    4.3670 hc        1 GMN      0.075589
     52 H73        -7.0380   -0.4650    4.8130 hc        1 GMN      0.075589
     53 H81        -5.3980    2.0000    5.4800 hx        1 GMN      0.099700
     54 H82        -6.0480    0.5440    6.3750 hx        1 GMN      0.099700
     55 H91        -5.1550    2.2360    7.9150 hc        1 GMN      0.075589
     56 H92        -4.1430    0.7400    8.0400 hc        1 GMN      0.075589
     57 H93        -3.5170    2.1960    7.1470 hc        1 GMN      0.075589
     58 H101        0.1200   -4.2540    8.4590 h1        1 GMN      0.071700
     59 H102       -1.2420   -5.4640    8.1590 h1        1 GMN      0.071700
     60 H111       -2.8480   -3.9090    9.3720 hx        1 GMN      0.104200
     61 H112       -1.4720   -2.7470    9.6930 hx        1 GMN      0.104200
     62 H131       -3.0220   -5.9150   10.4290 hx        1 GMN      0.099283
     63 H132       -1.3370   -6.4850    9.9900 hx        1 GMN      0.099283
     64 H141       -2.2630   -7.7910   11.8420 hc        1 GMN      0.079311
     65 H142       -0.8350   -6.8600   12.4450 hc        1 GMN      0.079311
     66 H143       -2.5210   -6.3230   12.8680 hc        1 GMN      0.079311
     67 H151        0.1670   -5.0340   12.1660 hx        1 GMN      0.099283
     68 H152        0.5100   -5.2440   10.3840 hx        1 GMN      0.099283
     69 H161        1.8150   -3.4010   11.3750 hc        1 GMN      0.079311
     70 H162        0.6820   -2.7280   10.1320 hc        1 GMN      0.079311
     71 H163        0.3270   -2.5230   11.9050 hc        1 GMN      0.079311
     72 H171       -1.7980   -4.2620   12.9490 hx        1 GMN      0.099283
     73 H172       -1.7700   -2.7290   11.9510 hx        1 GMN      0.099283
     74 H181       -4.0190   -3.2090   12.8190 hc        1 GMN      0.079311
     75 H182       -4.0520   -3.3140   11.0120 hc        1 GMN      0.079311
     76 H183       -4.0760   -4.8300   12.0190 hc        1 GMN      0.079311
     77 H251       -0.1710   -3.3600    1.0730 h1        1 GMN      0.071700
     78 H252        1.1350   -2.2810    1.8110 h1        1 GMN      0.071700
     79 H261       -0.2080   -0.2350    1.1850 hx        1 GMN      0.104200
     80 H262       -1.5020   -1.2990    0.4530 hx        1 GMN      0.104200
     81 H281        0.6160   -2.2710   -2.4660 hx        1 GMN      0.099283
     82 H282        0.4420   -3.2550   -0.9390 hx        1 GMN      0.099283
     83 H291       -1.4650   -3.5730   -2.4640 hc        1 GMN      0.079311
     84 H292       -2.0500   -2.7980   -0.9360 hc        1 GMN      0.079311
     85 H293       -1.8710   -1.8110   -2.4560 hc        1 GMN      0.079311
     86 H301       -1.3510    0.0070   -1.4140 hx        1 GMN      0.099283
     87 H302        0.0530    0.9830   -0.7600 hx        1 GMN      0.099283
     88 H311       -0.1800    1.2640   -3.1820 hc        1 GMN      0.079311
     89 H312        1.3860    0.4240   -2.8530 hc        1 GMN      0.079311
     90 H313       -0.0370   -0.5120   -3.4960 hc        1 GMN      0.079311
     91 H321        2.1460   -2.0280   -0.0850 hx        1 GMN      0.099283
     92 H322        2.2440   -0.9360   -1.5450 hx        1 GMN      0.099283
     93 H331        3.4170    0.0330    0.3750 hc        1 GMN      0.079311
     94 H332        2.0110    1.0900   -0.0360 hc        1 GMN      0.079311
     95 H333        1.9350   -0.0060    1.4150 hc        1 GMN      0.079311
     96 O1         -1.9060   -1.8470    5.1680 os        1 GMN     -0.334900
@<TRIPOS>BOND
     1    1    5 1   
     2    1   17 1   
     3    2    3 ar  
     4    2    7 ar  
     5    2   36 1   
     6    3    4 ar  
     7    3    8 1   
     8    4    5 ar  
     9    4   96 1   
    10    5    6 ar  
    11    6    7 ar  
    12    6   37 1   
    13    7   38 1   
    14    8   25 1   
    15    9   10 1   
    16    9   39 1   
    17    9   40 1   
    18    9   96 1   
    19   10   33 1   
    20   10   41 1   
    21   10   42 1   
    22   11   12 1   
    23   11   33 1   
    24   11   43 1   
    25   11   44 1   
    26   12   45 1   
    27   12   46 1   
    28   12   47 1   
    29   13   14 1   
    30   13   33 1   
    31   13   48 1   
    32   13   49 1   
    33   14   50 1   
    34   14   51 1   
    35   14   52 1   
    36   15   16 1   
    37   15   33 1   
    38   15   53 1   
    39   15   54 1   
    40   16   55 1   
    41   16   56 1   
    42   16   57 1   
    43   17   18 1   
    44   17   58 1   
    45   17   59 1   
    46   18   34 1   
    47   18   60 1   
    48   18   61 1   
    49   19   20 1   
    50   19   34 1   
    51   19   62 1   
    52   19   63 1   
    53   20   64 1   
    54   20   65 1   
    55   20   66 1   
    56   21   22 1   
    57   21   34 1   
    58   21   67 1   
    59   21   68 1   
    60   22   69 1   
    61   22   70 1   
    62   22   71 1   
    63   23   24 1   
    64   23   34 1   
    65   23   72 1   
    66   23   73 1   
    67   24   74 1   
    68   24   75 1   
    69   24   76 1   
    70   25   26 1   
    71   25   77 1   
    72   25   78 1   
    73   26   35 1   
    74   26   79 1   
    75   26   80 1   
    76   27   28 1   
    77   27   35 1   
    78   27   81 1   
    79   27   82 1   
    80   28   83 1   
    81   28   84 1   
    82   28   85 1   
    83   29   30 1   
    84   29   35 1   
    85   29   86 1   
    86   29   87 1   
    87   30   88 1   
    88   30   89 1   
    89   30   90 1   
    90   31   32 1   
    91   31   35 1   
    92   31   91 1   
    93   31   92 1   
    94   32   93 1   
    95   32   94 1   
    96   32   95 1   
@<TRIPOS>SUBSTRUCTURE
     1 GMN         1 TEMP              0 ****  ****    0 ROOT
