@<TRIPOS>MOLECULE
GMN
   96    93     1     0     0
SMALL
bcc


@<TRIPOS>ATOM
      1 O2         -1.4950   -0.9880   -1.4630 os        1 GMN     -0.303400
      2 C20         2.7080   -0.6990   -1.4350 c1        1 GMN     -0.061500
      3 C21         2.0090   -0.6430   -0.2350 c1        1 GMN      0.066100
      4 C22         0.6130   -0.6880   -0.2390 c1        1 GMN      0.066100
      5 C23        -0.0840   -0.7880   -1.4630 c1        1 GMN      0.120600
      6 C24         0.6200   -0.8430   -2.6610 c1        1 GMN     -0.133500
      7 C19         2.0080   -0.7990   -2.6550 c1        1 GMN     -0.061500
      8 O1         -0.1310   -0.7670    1.0470 os        1 GMN     -0.305400
      9 O3          2.7340   -0.5930    1.0230 os        1 GMN     -0.305400
     10 C1         -0.8180    0.4800    1.4200 c3        1 GMN      0.115900
     11 C2         -2.1470    0.1450    2.1070 c3        1 GMN      0.088300
     12 C4         -1.8770    1.4460    4.1420 c3        1 GMN      0.115467
     13 C5         -2.4880    2.5890    4.9890 c3        1 GMN     -0.130433
     14 C6         -2.4170    2.5250    2.0480 c3        1 GMN      0.115467
     15 C7         -3.7090    2.8860    1.3140 c3        1 GMN     -0.130433
     16 C8         -4.0530    1.1710    3.1280 c3        1 GMN      0.115467
     17 C9         -4.2550    0.0280    4.1610 c3        1 GMN     -0.130433
     18 C10        -2.0830   -1.0510   -2.7930 c3        1 GMN      0.111400
     19 C11        -3.6190   -0.8640   -2.6870 c3        1 GMN      0.100800
     20 C13        -3.4720    0.1190   -4.8980 c3        1 GMN      0.115467
     21 C14        -4.1510    0.2530   -6.2770 c3        1 GMN     -0.131100
     22 C15        -4.1640   -2.1540   -4.6820 c3        1 GMN      0.115467
     23 C16        -5.5340   -2.8270   -4.5720 c3        1 GMN     -0.131100
     24 C17        -5.6340   -0.3760   -3.9890 c3        1 GMN      0.115467
     25 C18        -5.6820    1.0940   -3.6030 c3        1 GMN     -0.131100
     26 C25         4.1490   -0.9840    0.9090 c3        1 GMN      0.115900
     27 C26         4.9550   -0.3880    2.1090 c3        1 GMN      0.088300
     28 C28         6.7060    0.3670    0.6630 c3        1 GMN      0.115467
     29 C29         6.7970    1.8320    1.0930 c3        1 GMN     -0.130433
     30 C30         7.1710    0.0380    2.9920 c3        1 GMN      0.115467
     31 C31         8.6380   -0.0420    2.7030 c3        1 GMN     -0.130433
     32 C32         6.7860   -1.8590    1.5310 c3        1 GMN      0.115467
     33 C33         7.0350   -2.6070    2.8600 c3        1 GMN     -0.130433
     34 N3         -2.6310    1.3250    2.8490 n4        1 GMN     -0.608800
     35 N12        -4.2220   -0.8170   -4.0770 n4        1 GMN     -0.610800
     36 N27         6.4050   -0.4580    1.8160 n4        1 GMN     -0.608800
     37 H20         3.6880   -0.6680   -1.4330 ha        1 GMN      0.099000
     38 H24         0.1360   -0.9130   -3.5120 ha        1 GMN      0.100500
     39 H19         2.5060   -0.8380   -3.5060 ha        1 GMN      0.099000
     40 H11        -0.2560    0.9900    2.0330 h1        1 GMN      0.072700
     41 H12        -0.9900    1.0080    0.6220 h1        1 GMN      0.072700
     42 H21        -2.8110   -0.1090    1.4280 hx        1 GMN      0.106700
     43 H22        -2.0140   -0.6030    2.7300 hx        1 GMN      0.106700
     44 H41        -1.9380    0.6060    4.6350 hx        1 GMN      0.098200
     45 H42        -0.9350    1.6470    3.9530 hx        1 GMN      0.098200
     46 H51        -1.7640    3.1760    5.3210 hc        1 GMN      0.078144
     47 H52        -3.1010    3.1090    4.4400 hc        1 GMN      0.078144
     48 H53        -2.9800    2.2030    5.7590 hc        1 GMN      0.078144
     49 H61        -1.7090    2.3600    1.3980 hx        1 GMN      0.098200
     50 H62        -2.1580    3.2650    2.6320 hx        1 GMN      0.098200
     51 H71        -3.5090    3.5190    0.5920 hc        1 GMN      0.078144
     52 H72        -4.3350    3.2950    1.9400 hc        1 GMN      0.078144
     53 H73        -4.1060    2.0770    0.9370 hc        1 GMN      0.078144
     54 H81        -4.4040    2.0010    3.4890 hx        1 GMN      0.098200
     55 H82        -4.5320    0.9460    2.2880 hx        1 GMN      0.098200
     56 H91        -4.8620   -0.6640    3.7780 hc        1 GMN      0.078144
     57 H92        -3.3860   -0.3780    4.3720 hc        1 GMN      0.078144
     58 H93        -4.6530    0.3950    4.9830 hc        1 GMN      0.078144
     59 H101       -1.7040   -0.3390   -3.3510 h1        1 GMN      0.069700
     60 H102       -1.8860   -1.9250   -3.1980 h1        1 GMN      0.069700
     61 H111       -3.8130   -0.0270   -2.2200 hx        1 GMN      0.108200
     62 H112       -4.0060   -1.6130   -2.1880 hx        1 GMN      0.108200
     63 H131       -2.5610   -0.2080   -5.0140 hx        1 GMN      0.099200
     64 H132       -3.4500    0.9970   -4.4570 hx        1 GMN      0.099200
     65 H141       -4.3330    1.2060   -6.4640 hc        1 GMN      0.078700
     66 H142       -3.5580   -0.1070   -6.9690 hc        1 GMN      0.078700
     67 H143       -4.9920   -0.2460   -6.2760 hc        1 GMN      0.078700
     68 H151       -3.9140   -2.0740   -5.6310 hx        1 GMN      0.099200
     69 H152       -3.4990   -2.6930   -4.2150 hx        1 GMN      0.099200
     70 H161       -5.8860   -2.7060   -3.6670 hc        1 GMN      0.078700
     71 H162       -5.4430   -3.7880   -4.7630 hc        1 GMN      0.078700
     72 H163       -6.1510   -2.4220   -5.2200 hc        1 GMN      0.078700
     73 H171       -6.1020   -0.9060   -3.3120 hx        1 GMN      0.099200
     74 H172       -6.0640   -0.4970   -4.8470 hx        1 GMN      0.099200
     75 H181       -6.4820    1.2630   -3.0470 hc        1 GMN      0.078700
     76 H182       -5.7250    1.6400   -4.4080 hc        1 GMN      0.078700
     77 H183       -4.8840    1.3220   -3.1000 hc        1 GMN      0.078700
     78 H251        4.5140   -0.6440    0.0720 h1        1 GMN      0.072700
     79 H252        4.2180   -1.9620    0.9230 h1        1 GMN      0.072700
     80 H261        4.7600   -0.9050    2.9230 hx        1 GMN      0.106700
     81 H262        4.6940    0.5430    2.2450 hx        1 GMN      0.106700
     82 H281        7.5670    0.0850    0.2730 hx        1 GMN      0.098200
     83 H282        5.9940    0.2660   -0.0060 hx        1 GMN      0.098200
     84 H291        7.7450    2.0970    1.1590 hc        1 GMN      0.078144
     85 H292        6.3390    2.4030    0.4220 hc        1 GMN      0.078144
     86 H293        6.3670    1.9440    1.9610 hc        1 GMN      0.078144
     87 H301        6.9260    0.9680    3.1720 hx        1 GMN      0.098200
     88 H302        6.9620   -0.5110    3.7720 hx        1 GMN      0.098200
     89 H311        9.1060   -0.3920    3.4890 hc        1 GMN      0.078144
     90 H312        8.9780    0.8510    2.4930 hc        1 GMN      0.078144
     91 H313        8.7870   -0.6320    1.9460 hc        1 GMN      0.078144
     92 H321        6.0620   -2.3020    1.0380 hx        1 GMN      0.098200
     93 H322        7.6110   -1.8720    0.9860 hx        1 GMN      0.098200
     94 H331        7.9740   -2.4780    3.1390 hc        1 GMN      0.078144
     95 H332        6.4370   -2.2520    3.5520 hc        1 GMN      0.078144
     96 H333        6.8590   -3.5690    2.7340 hc        1 GMN      0.078144
@<TRIPOS>BOND
     1    1    5 1   
     2    1   18 1   
     3    2    7 3   
     4    2   37 1   
     5    3    4 3   
     6    3    9 1   
     7    4    8 1   
     8    5    6 3   
     9    6   38 1   
    10    7   39 1   
    11    8   10 1   
    12    9   26 1   
    13   10   11 1   
    14   10   40 1   
    15   10   41 1   
    16   11   34 1   
    17   11   42 1   
    18   11   43 1   
    19   12   13 1   
    20   12   34 1   
    21   12   44 1   
    22   12   45 1   
    23   13   46 1   
    24   13   47 1   
    25   13   48 1   
    26   14   15 1   
    27   14   34 1   
    28   14   49 1   
    29   14   50 1   
    30   15   51 1   
    31   15   52 1   
    32   15   53 1   
    33   16   17 1   
    34   16   34 1   
    35   16   54 1   
    36   16   55 1   
    37   17   56 1   
    38   17   57 1   
    39   17   58 1   
    40   18   19 1   
    41   18   59 1   
    42   18   60 1   
    43   19   35 1   
    44   19   61 1   
    45   19   62 1   
    46   20   21 1   
    47   20   35 1   
    48   20   63 1   
    49   20   64 1   
    50   21   65 1   
    51   21   66 1   
    52   21   67 1   
    53   22   23 1   
    54   22   35 1   
    55   22   68 1   
    56   22   69 1   
    57   23   70 1   
    58   23   71 1   
    59   23   72 1   
    60   24   25 1   
    61   24   35 1   
    62   24   73 1   
    63   24   74 1   
    64   25   75 1   
    65   25   76 1   
    66   25   77 1   
    67   26   27 1   
    68   26   78 1   
    69   26   79 1   
    70   27   36 1   
    71   27   80 1   
    72   27   81 1   
    73   28   29 1   
    74   28   36 1   
    75   28   82 1   
    76   28   83 1   
    77   29   84 1   
    78   29   85 1   
    79   29   86 1   
    80   30   31 1   
    81   30   36 1   
    82   30   87 1   
    83   30   88 1   
    84   31   89 1   
    85   31   90 1   
    86   31   91 1   
    87   32   33 1   
    88   32   36 1   
    89   32   92 1   
    90   32   93 1   
    91   33   94 1   
    92   33   95 1   
    93   33   96 1   
@<TRIPOS>SUBSTRUCTURE
     1 GMN         1 TEMP              0 ****  ****    0 ROOT
