@<TRIPOS>MOLECULE
GMP
   33    35     1     0     0
SMALL
bcc


@<TRIPOS>ATOM
      1 O5'         3.3020    1.7840    1.7930 oh        1 GMP     -0.588800
      2 C5'         3.2940    1.3350    0.4560 c3        1 GMP      0.117400
      3 C4'         3.1770   -0.1890    0.3930 c3        1 GMP      0.053100
      4 O4'         1.8940   -0.5790    0.8970 os        1 GMP     -0.407600
      5 C3'         3.3190   -0.7310   -1.0400 c3        1 GMP      0.082100
      6 O3'         4.4150   -1.6090   -1.1970 oh        1 GMP     -0.597800
      7 C2'         2.0260   -1.5330   -1.3110 c3        1 GMP      0.126100
      8 O2'         2.1720   -2.9320   -1.2060 oh        1 GMP     -0.584800
      9 C1'         1.0670   -1.1270   -0.1420 c3        1 GMP      0.243800
     10 N9          0.0480   -0.1910   -0.5450 na        1 GMP     -0.226900
     11 C8          0.1820    0.9360   -1.4020 cc        1 GMP      0.384400
     12 N7         -0.9360    1.6740   -1.4910 nd        1 GMP     -0.575000
     13 C5         -1.8540    1.0390   -0.6500 cd        1 GMP      0.168800
     14 C6         -3.2260    1.3780   -0.3340 c         1 GMP      0.652000
     15 O6         -3.9040    2.3250   -0.7550 o         1 GMP     -0.596500
     16 N1         -3.8470    0.4760    0.5750 n         1 GMP     -0.509400
     17 C2         -3.1700   -0.6230    1.1400 cd        1 GMP      0.689800
     18 N2         -3.8530   -1.3670    2.1250 nh        1 GMP     -0.894800
     19 N3         -1.8940   -0.9760    0.8400 nc        1 GMP     -0.673100
     20 C4         -1.2570   -0.1200   -0.0370 cc        1 GMP      0.136800
     21 HO5'        2.4770    1.4830    2.1980 ho        1 GMP      0.419000
     22 H5'1        2.4490    1.8100   -0.1120 h1        1 GMP      0.053200
     23 H5'2        4.2780    1.6670    0.0310 h1        1 GMP      0.053200
     24 H4'         3.9220   -0.6620    1.0910 h1        1 GMP      0.093700
     25 H3'         3.4160    0.1130   -1.7780 h1        1 GMP      0.057700
     26 HO3'        5.1870   -1.1810   -0.8060 ho        1 GMP      0.425000
     27 H2'         1.6110   -1.2850   -2.3250 h1        1 GMP      0.072700
     28 HO2'        3.0310   -3.1740   -1.5810 ho        1 GMP      0.437000
     29 H1'         0.5740   -2.0350    0.3200 h2        1 GMP      0.143700
     30 H8          1.1170    1.1330   -1.9370 h5        1 GMP      0.060100
     31 HN1        -4.7720    0.7010    0.8720 hn        1 GMP      0.335500
     32 HN21       -4.8340   -1.4670    1.9940 hn        1 GMP      0.424800
     33 HN22       -3.3880   -2.1970    2.4240 hn        1 GMP      0.424800
@<TRIPOS>BOND
     1    1    2 1   
     2    1   21 1   
     3    2    3 1   
     4    2   22 1   
     5    2   23 1   
     6    3    4 1   
     7    3    5 1   
     8    3   24 1   
     9    4    9 1   
    10    5    6 1   
    11    5    7 1   
    12    5   25 1   
    13    6   26 1   
    14    7    8 1   
    15    7    9 1   
    16    7   27 1   
    17    8   28 1   
    18    9   10 1   
    19    9   29 1   
    20   10   11 1   
    21   10   20 1   
    22   11   12 2   
    23   11   30 1   
    24   12   13 1   
    25   13   14 1   
    26   13   20 2   
    27   14   15 2   
    28   14   16 1   
    29   16   17 1   
    30   16   31 1   
    31   17   18 1   
    32   17   19 2   
    33   18   32 1   
    34   18   33 1   
    35   19   20 1   
@<TRIPOS>SUBSTRUCTURE
     1 GMP         1 TEMP              0 ****  ****    0 ROOT
