@<TRIPOS>MOLECULE
GMP
   34    36     1     0     0
SMALL
bcc


@<TRIPOS>ATOM
      1 O5'         2.3530   -0.7060   -0.9800 oh        1 GMP     -0.584800
      2 C5'         1.6600   -1.1290    0.1710 c3        1 GMP      0.110400
      3 C4'         1.8850   -0.1540    1.3310 c3        1 GMP      0.085100
      4 O4'         1.3230   -0.7130    2.5320 os        1 GMP     -0.394600
      5 C3'         3.3790    0.1140    1.5860 c3        1 GMP      0.086100
      6 O3'         3.5400    1.5090    1.7480 oh        1 GMP     -0.586800
      7 C2'         3.7120   -0.6030    2.9150 c3        1 GMP      0.092100
      8 O2'         4.2610    0.2500    3.8840 oh        1 GMP     -0.585800
      9 C1'         2.3390   -1.1650    3.4190 c3        1 GMP      0.208800
     10 N9          2.2960   -2.6200    3.5060 na        1 GMP     -0.174900
     11 C8          1.4500   -3.5110    2.8280 cc        1 GMP      0.472400
     12 N7          1.6350   -4.8090    3.1890 nd        1 GMP     -0.576000
     13 C5          2.6340   -4.7740    4.1450 cd        1 GMP      0.290800
     14 C6          3.2490   -5.8580    4.8990 c         1 GMP      0.647000
     15 O6          3.0280   -7.0660    4.8520 o         1 GMP     -0.506500
     16 N1          4.2560   -5.4180    5.8250 n         1 GMP     -0.503400
     17 C2          4.5730   -4.0620    5.9470 cd        1 GMP      0.492800
     18 N2          5.6310   -3.6890    6.9420 n4        1 GMP     -0.794600
     19 N3          4.0430   -3.0390    5.2760 nc        1 GMP     -0.512100
     20 C4          3.0660   -3.4110    4.3680 cc        1 GMP     -0.001200
     21 HO5'        1.8760    0.0480   -1.3510 ho        1 GMP      0.417000
     22 H5'1        0.5600   -1.2310   -0.0220 h1        1 GMP      0.061200
     23 H5'2        2.0910   -2.1380    0.4150 h1        1 GMP      0.061200
     24 H4'         1.3250    0.8080    1.1690 h1        1 GMP      0.115700
     25 H3'         4.0040   -0.2760    0.7390 h1        1 GMP      0.099700
     26 HO3'        4.4600    1.7190    1.5390 ho        1 GMP      0.428000
     27 H2'         4.4780   -1.4100    2.7680 h1        1 GMP      0.098700
     28 HO2'        3.7880    1.0980    3.8480 ho        1 GMP      0.436000
     29 H1'         2.0780   -0.7530    4.4410 h2        1 GMP      0.118700
     30 H8          0.7110   -3.1550    2.0910 h5        1 GMP      0.105100
     31 HN1         4.7080   -6.1170    6.3750 hn        1 GMP      0.349500
     32 HN21        6.5110   -4.1600    6.7010 hn        1 GMP      0.482133
     33 HN22        5.7790   -2.6670    6.9230 hn        1 GMP      0.482133
     34 H23         5.3290   -3.9680    7.8830 hn        1 GMP      0.482133
@<TRIPOS>BOND
     1    1    2 1   
     2    1   21 1   
     3    2    3 1   
     4    2   22 1   
     5    2   23 1   
     6    3    4 1   
     7    3    5 1   
     8    3   24 1   
     9    4    9 1   
    10    5    6 1   
    11    5    7 1   
    12    5   25 1   
    13    6   26 1   
    14    7    8 1   
    15    7    9 1   
    16    7   27 1   
    17    8   28 1   
    18    9   10 1   
    19    9   29 1   
    20   10   11 1   
    21   10   20 1   
    22   11   12 2   
    23   11   30 1   
    24   12   13 1   
    25   13   14 1   
    26   13   20 2   
    27   14   15 2   
    28   14   16 1   
    29   16   17 1   
    30   16   31 1   
    31   17   18 1   
    32   17   19 2   
    33   18   32 1   
    34   18   33 1   
    35   18   34 1   
    36   19   20 1   
@<TRIPOS>SUBSTRUCTURE
     1 GMP         1 TEMP              0 ****  ****    0 ROOT
