@<TRIPOS>MOLECULE
GMP
   34    36     1     0     0
SMALL
bcc


@<TRIPOS>ATOM
      1 O5'         2.5060   -0.5220   -0.9160 oh        1 GMP     -0.605800
      2 C5'         1.7470   -1.0320    0.1650 c3        1 GMP      0.112400
      3 C4'         1.9750   -0.0880    1.3480 c3        1 GMP      0.095100
      4 O4'         1.3690   -0.6600    2.5210 os        1 GMP     -0.396600
      5 C3'         3.4670    0.1470    1.6460 c3        1 GMP      0.095100
      6 O3'         3.7040    1.5120    1.9270 oh        1 GMP     -0.601800
      7 C2'         3.7630   -0.6510    2.9350 c3        1 GMP      0.128100
      8 O2'         4.4030    0.0660    3.9540 oh        1 GMP     -0.582800
      9 C1'         2.3560   -1.1330    3.4310 c3        1 GMP      0.205800
     10 N9          2.2440   -2.5820    3.5500 na        1 GMP     -0.172900
     11 C8          1.3460   -3.4470    2.9070 cc        1 GMP      0.471400
     12 N7          1.4900   -4.7470    3.2830 nd        1 GMP     -0.579000
     13 C5          2.5150   -4.7390    4.2100 cd        1 GMP      0.288800
     14 C6          3.1100   -5.8350    4.9630 c         1 GMP      0.647000
     15 O6          2.8400   -7.0340    4.9400 o         1 GMP     -0.508500
     16 N1          4.1620   -5.4230    5.8500 ns        1 GMP     -0.504400
     17 C2          4.5360   -4.0800    5.9410 cd        1 GMP      0.491800
     18 N2          5.6410   -3.7330    6.8950 nz        1 GMP     -0.794600
     19 N3          4.0250   -3.0450    5.2730 nc        1 GMP     -0.507100
     20 C4          3.0070   -3.3910    4.4000 cc        1 GMP     -0.000200
     21 HO5'        2.1050   -0.8550   -1.7280 ho        1 GMP      0.427000
     22 H5'1        0.6540   -1.0700   -0.0800 h1        1 GMP      0.041700
     23 H5'2        2.1040   -2.0680    0.4150 h1        1 GMP      0.041700
     24 H4'         1.4350    0.8860    1.1870 h1        1 GMP      0.112700
     25 H3'         4.1070   -0.2080    0.7940 h1        1 GMP      0.098700
     26 HO3'        3.8560    1.9580    1.0830 ho        1 GMP      0.441000
     27 H2'         4.4490   -1.5140    2.7110 h1        1 GMP      0.094700
     28 HO2'        4.0930    0.9850    3.9380 ho        1 GMP      0.443000
     29 H1'         2.1040   -0.6870    4.4410 h2        1 GMP      0.117700
     30 H8          0.6030   -3.0710    2.1850 h5        1 GMP      0.104100
     31 HN1         4.6030   -6.1320    6.3960 hn        1 GMP      0.348500
     32 HN21        6.4920   -4.2450    6.6350 hn        1 GMP      0.482133
     33 HN22        5.8290   -2.7190    6.8500 hn        1 GMP      0.482133
     34 H23         5.3580   -3.9820    7.8500 hn        1 GMP      0.482133
@<TRIPOS>BOND
     1    1    2 1   
     2    1   21 1   
     3    2    3 1   
     4    2   22 1   
     5    2   23 1   
     6    3    4 1   
     7    3    5 1   
     8    3   24 1   
     9    4    9 1   
    10    5    6 1   
    11    5    7 1   
    12    5   25 1   
    13    6   26 1   
    14    7    8 1   
    15    7    9 1   
    16    7   27 1   
    17    8   28 1   
    18    9   10 1   
    19    9   29 1   
    20   10   11 1   
    21   10   20 1   
    22   11   12 2   
    23   11   30 1   
    24   12   13 1   
    25   13   14 1   
    26   13   20 2   
    27   14   15 2   
    28   14   16 1   
    29   16   17 1   
    30   16   31 1   
    31   17   18 1   
    32   17   19 2   
    33   18   32 1   
    34   18   33 1   
    35   18   34 1   
    36   19   20 1   
@<TRIPOS>SUBSTRUCTURE
     1 GMP         1 TEMP              0 ****  ****    0 ROOT
