@<TRIPOS>MOLECULE
GMP
   33    32     1     0     0
SMALL
bcc


@<TRIPOS>ATOM
      1 O5'        -3.2290    1.8840   -3.0100 oh        1 GMP     -0.315000
      2 C5'        -1.8310    1.6660   -2.8570 c3        1 GMP     -0.036000
      3 C4'        -1.4410    1.9540   -1.4640 c3        1 GMP     -0.056000
      4 O4'        -1.9290    1.0300   -0.6570 os        1 GMP     -0.273000
      5 C3'         0.2010    1.8930   -1.3040 c3        1 GMP     -0.020000
      6 O3'         0.8020    3.2030   -1.6970 oh        1 GMP     -0.312000
      7 C2'         0.4200    1.6740   -0.1120 c3        1 GMP     -0.033000
      8 O2'         0.5980    2.9370    0.6170 oh        1 GMP     -0.314000
      9 C1'        -0.9070    0.8850    0.4230 c3        1 GMP      0.170000
     10 N9         -0.6330   -0.3610    0.6280 n3        1 GMP     -0.189000
     11 C8         -1.9060   -0.7770    0.9350 c1        1 GMP     -0.081000
     12 N7         -1.8090   -1.9360    1.6630 n2        1 GMP     -0.056000
     13 C5         -0.4840   -2.2360    1.8060 c1        1 GMP     -0.239000
     14 C6          0.2260   -3.4440    2.3970 c1        1 GMP      0.398000
     15 O6         -0.4020   -4.2650    3.0370 o         1 GMP     -0.318000
     16 N1          1.5910   -3.5930    2.2310 n3        1 GMP     -0.349000
     17 C2          2.3390   -2.6050    1.4990 c2        1 GMP      0.239000
     18 N2          3.7910   -2.7370    1.3720 n3        1 GMP     -0.334000
     19 N3          1.6580   -1.4480    0.9330 n1        1 GMP     -0.251000
     20 C4          0.2460   -1.2580    1.1640 c1        1 GMP      0.062000
     21 HO5'       -3.3890    2.2400   -3.8120 ho        1 GMP      0.208000
     22 H5'1       -1.3250    2.2740   -3.4810 h1        1 GMP      0.099000
     23 H5'2       -1.6300    0.7740   -3.0590 h1        1 GMP      0.099000
     24 H4'        -1.7640    2.8160   -1.2060 h1        1 GMP      0.140000
     25 H3'         0.5810    1.1520   -1.8690 h1        1 GMP      0.140000
     26 HO3'        1.1370    3.1380   -2.4690 ho        1 GMP      0.219000
     27 H2'         1.2380    1.0910   -0.0110 h1        1 GMP      0.124000
     28 HO2'        1.3920    2.9080    1.0790 ho        1 GMP      0.222000
     29 H1'        -1.2470    1.3170    1.2900 h2        1 GMP      0.164000
     30 H8         -2.7700   -0.2580    0.7460 DU        1 GMP      0.209000
     31 HN1         2.0180   -4.3310    2.5750 hn        1 GMP      0.249000
     32 HN21        4.2030   -3.4460    1.7140 hn        1 GMP      0.218500
     33 HN22        4.2540   -2.1400    0.8970 hn        1 GMP      0.218500
@<TRIPOS>BOND
     1    1    2 1   
     2    1   21 1   
     3    2    3 1   
     4    2   22 1   
     5    2   23 1   
     6    3    4 1   
     7    3    5 1   
     8    3   24 1   
     9    4    9 1   
    10    5    6 1   
    11    5    7 1   
    12    5   25 1   
    13    6   26 1   
    14    7    8 1   
    15    7    9 1   
    16    7   27 1   
    17    8   28 1   
    18    9   10 1   
    19    9   29 1   
    20   10   11 1   
    21   10   20 1   
    22   11   12 1   
    23   12   13 1   
    24   13   20 1   
    25   14   15 1   
    26   14   16 1   
    27   16   17 1   
    28   16   31 1   
    29   17   18 1   
    30   17   19 1   
    31   18   32 1   
    32   18   33 1   
@<TRIPOS>SUBSTRUCTURE
     1 GMP         1 TEMP              0 ****  ****    0 ROOT
