@<TRIPOS>MOLECULE
GMP
   34    36     1     0     0
SMALL
bcc


@<TRIPOS>ATOM
      1 O5'         2.3130   -0.7470   -0.9850 oh        1 GMP     -0.584800
      2 C5'         1.6300   -1.1240    0.1880 c3        1 GMP      0.110400
      3 C4'         1.9170   -0.1400    1.3260 c3        1 GMP      0.085100
      4 O4'         1.3610   -0.6570    2.5480 os        1 GMP     -0.394600
      5 C3'         3.4250    0.0760    1.5440 c3        1 GMP      0.086100
      6 O3'         3.6420    1.4670    1.6780 oh        1 GMP     -0.586800
      7 C2'         3.7600   -0.6310    2.8780 c3        1 GMP      0.092100
      8 O2'         4.3620    0.2170    3.8200 oh        1 GMP     -0.585800
      9 C1'         2.3790   -1.1320    3.4200 c3        1 GMP      0.208800
     10 N9          2.2830   -2.5820    3.5340 na        1 GMP     -0.174900
     11 C8          1.3890   -3.4520    2.8900 cc        1 GMP      0.472400
     12 N7          1.5340   -4.7500    3.2700 nd        1 GMP     -0.576000
     13 C5          2.5550   -4.7370    4.2020 cd        1 GMP      0.290800
     14 C6          3.1460   -5.8310    4.9610 c         1 GMP      0.647000
     15 O6          2.8800   -7.0300    4.9390 o         1 GMP     -0.506500
     16 N1          4.1900   -5.4140    5.8560 n         1 GMP     -0.503400
     17 C2          4.5600   -4.0690    5.9470 cd        1 GMP      0.492800
     18 N2          5.6540   -3.7200    6.9120 n4        1 GMP     -0.794600
     19 N3          4.0530   -3.0380    5.2710 nc        1 GMP     -0.512100
     20 C4          3.0430   -3.3870    4.3920 cc        1 GMP     -0.001200
     21 HO5'        1.8560    0.0170   -1.3590 ho        1 GMP      0.417000
     22 H5'1        0.5230   -1.1880    0.0200 h1        1 GMP      0.061200
     23 H5'2        2.0270   -2.1450    0.4400 h1        1 GMP      0.061200
     24 H4'         1.3900    0.8410    1.1580 h1        1 GMP      0.115700
     25 H3'         4.0160   -0.3510    0.6900 h1        1 GMP      0.099700
     26 HO3'        4.5640    1.6380    1.4460 ho        1 GMP      0.428000
     27 H2'         4.4930   -1.4680    2.7280 h1        1 GMP      0.098700
     28 HO2'        3.9200    1.0820    3.7790 ho        1 GMP      0.436000
     29 H1'         2.1560   -0.6940    4.4400 h2        1 GMP      0.118700
     30 H8          0.6470   -3.0800    2.1640 h5        1 GMP      0.105100
     31 HN1         4.6280   -6.1200    6.4080 hn        1 GMP      0.349500
     32 HN21        6.5100   -4.2280    6.6600 hn        1 GMP      0.482133
     33 HN22        5.3630   -3.9710    7.8640 hn        1 GMP      0.482133
     34 H23         5.8400   -2.7050    6.8720 hn        1 GMP      0.482133
@<TRIPOS>BOND
     1    1    2 1   
     2    1   21 1   
     3    2    3 1   
     4    2   22 1   
     5    2   23 1   
     6    3    4 1   
     7    3    5 1   
     8    3   24 1   
     9    4    9 1   
    10    5    6 1   
    11    5    7 1   
    12    5   25 1   
    13    6   26 1   
    14    7    8 1   
    15    7    9 1   
    16    7   27 1   
    17    8   28 1   
    18    9   10 1   
    19    9   29 1   
    20   10   11 1   
    21   10   20 1   
    22   11   12 2   
    23   11   30 1   
    24   12   13 1   
    25   13   14 1   
    26   13   20 2   
    27   14   15 2   
    28   14   16 1   
    29   16   17 1   
    30   16   31 1   
    31   17   18 1   
    32   17   19 2   
    33   18   32 1   
    34   18   33 1   
    35   18   34 1   
    36   19   20 1   
@<TRIPOS>SUBSTRUCTURE
     1 GMP         1 TEMP              0 ****  ****    0 ROOT
