@<TRIPOS>MOLECULE
GMR
   71    91     1     0     0
SMALL
bcc


@<TRIPOS>ATOM
      1 S1          0.0000    0.0000    0.0000 s6        1 GMR      2.346000
      2 O2         -2.6160    0.8280   -0.6050 o         1 GMR     -0.249000
      3 O3          1.4210    0.0000    0.0000 o         1 GMR     -0.676500
      4 O4         -0.7770    0.0000    1.1890 o         1 GMR     -0.676500
      5 O5         -3.0930   -8.1850   -5.7040 o         1 GMR     -0.339000
      6 O6         -3.7010   -4.3330   -6.7950 o         1 GMR     -0.355000
      7 N7         -2.1590    2.6660   -1.7660 ny        1 GMR      0.221000
      8 N8         -0.4690    1.3320   -0.8640 ny        1 GMR     -0.441000
      9 N9         -3.8430   -6.5320   -7.0710 n         1 GMR      0.034000
     10 N10        -2.8200   -5.5950   -5.1930 ny        1 GMR      0.113000
     11 C11        -3.5640    5.8650   -1.8860 DU        1 GMR      0.400000
     12 C12        -3.5830    2.9370   -1.9800 DU        1 GMR      0.050000
     13 C13        -3.3910    5.0240   -0.6190 DU        1 GMR      0.292000
     14 C14        -3.0040    5.1020   -3.0870 DU        1 GMR     -0.086000
     15 C15        -4.1430    3.7010   -0.7790 DU        1 GMR      0.375000
     16 C16        -3.7570    3.7790   -3.2460 DU        1 GMR      0.068000
     17 C17        -2.8110    7.1880   -1.7270 c3        1 GMR      0.142000
     18 C18        -1.7780    1.5810   -1.0630 DU        1 GMR      0.309000
     19 C19        -4.5440   -6.5310   -8.3620 c3        1 GMR     -0.300000
     20 C20        -4.7340   -7.9850   -8.7280 c2        1 GMR      0.081000
     21 C21        -4.1980   -8.7060   -7.7470 c2        1 GMR      0.108000
     22 C22        -0.4970   -1.4190   -0.9190 c2        1 GMR     -0.418000
     23 C23        -3.6460   -7.8170   -6.7220 c2        1 GMR      0.273000
     24 C24        -4.1640  -10.2110   -7.6990 c3        1 GMR     -0.024000
     25 C26        -1.2780   -3.6460   -2.3610 c3        1 GMR      0.535000
     26 C27        -3.4640   -5.4460   -6.3680 c2        1 GMR      0.214000
     27 C28        -2.4070   -4.4150   -4.4300 c3        1 GMR     -0.180000
     28 C29        -5.4040   -8.5160   -9.9690 c3        1 GMR     -0.251000
     29 C30         0.3600   -1.9750   -1.8490 c3        1 GMR      0.101000
     30 C31        -1.7430   -1.9790   -0.7050 c2        1 GMR     -0.030000
     31 C32        -0.0300   -3.0880   -2.5710 c2        1 GMR      0.235000
     32 C33        -2.1330   -3.0930   -1.4260 c2        1 GMR      0.003000
     33 C34        -2.8290  -10.7100   -8.2570 c3        1 GMR     -0.233000
     34 H1         -2.0540    1.6980   -1.9960 DU        1 GMR      0.006000
     35 H2         -0.9840    2.1740   -1.0340 DU        1 GMR      0.233000
     36 H3         -2.4790   -4.7530   -4.7730 hn        1 GMR      0.044500
     37 H4         -3.5520    4.8080   -2.1240 DU        1 GMR     -0.294000
     38 H5         -3.9250    3.9650   -2.0020 DU        1 GMR      0.240000
     39 H6         -3.6210    4.0720   -1.0830 DU        1 GMR     -0.425000
     40 H7         -2.3380    4.8230   -0.4630 ha        1 GMR      0.049000
     41 H8         -3.2520    5.2480   -2.0420 DU        1 GMR     -0.294000
     42 H9         -3.1300    5.6980   -3.9830 ha        1 GMR      0.204000
     43 H10        -3.4210    4.0950   -1.4840 DU        1 GMR     -0.033000
     44 H11        -5.1950    3.9020   -0.9400 ha        1 GMR      0.138000
     45 H12        -3.8380    3.5660   -2.1870 DU        1 GMR     -0.232000
     46 H13        -4.8090    3.9800   -3.4030 ha        1 GMR      0.118000
     47 H14        -2.9380    6.2660   -2.2800 DU        1 GMR     -0.017000
     48 H15        -1.7610    6.9880   -1.5510 hc        1 GMR      0.096500
     49 H16        -2.9200    7.7770   -2.6300 hc        1 GMR      0.096500
     50 H17        -4.4550   -5.5750   -7.8610 h1        1 GMR      0.150500
     51 H18        -5.5060   -6.0430   -8.2640 h1        1 GMR      0.150500
     52 H19        -4.1080   -9.1870   -8.0460 hc        1 GMR      0.046500
     53 H20        -4.9760  -10.6100   -8.2940 hc        1 GMR      0.046500
     54 H21        -2.0920   -5.7190   -3.6790 DU        1 GMR      0.261000
     55 H22        -0.8240   -4.8100   -3.7770 ha        1 GMR      0.022000
     56 H23        -1.9640   -5.1130   -3.7300 DU        1 GMR      0.171000
     57 H24        -2.0600   -3.6500   -5.1130 hx        1 GMR      0.137000
     58 H25        -5.1090   -7.9000   -9.1290 hc        1 GMR      0.066333
     59 H26        -6.1650   -7.8170  -10.2960 hc        1 GMR      0.066333
     60 H27        -4.6670   -8.6400  -10.7530 hc        1 GMR      0.066333
     61 H28        -0.1770   -2.6230   -2.5310 hc        1 GMR     -0.099000
     62 H29        -0.7540   -1.8370   -1.1250 ha        1 GMR      0.077000
     63 H30        -0.7010   -2.6540   -1.8390 DU        1 GMR     -0.208000
     64 H31        -1.2400   -3.2360   -2.0230 ha        1 GMR     -0.387000
     65 H32        -2.8580   -9.9380   -7.4970 hc        1 GMR      0.104667
     66 H33        -2.5230  -11.6890   -7.9080 hc        1 GMR      0.104667
     67 H34        -2.6420  -10.4560   -9.2930 hc        1 GMR      0.104667
     68 C25        -1.7030   -4.8590   -3.1460 DU        1 GMR      0.163000
     69 H72        -1.7380    2.5890   -2.6700 hn        1 GMR      0.143000
     70 H82        -0.0840    2.1310   -0.3990 hn        1 GMR      0.200000
     71 H102       -1.9930   -6.1260   -5.3800 hn        1 GMR      0.044500
@<TRIPOS>BOND
     1    1    3 1   
     2    1    4 1   
     3    1    8 1   
     4    1   22 1   
     5    2   18 1   
     6    5   23 1   
     7    6   26 1   
     8    7   12 1   
     9    7   18 1   
    10    7   34 1   
    11    7   69 1   
    12    8   18 1   
    13    8   35 1   
    14    8   70 1   
    15    9   19 1   
    16    9   23 1   
    17    9   26 1   
    18   10   26 1   
    19   10   27 1   
    20   10   36 1   
    21   10   71 1   
    22   11   13 1   
    23   11   14 1   
    24   11   17 1   
    25   11   37 1   
    26   11   41 1   
    27   11   47 1   
    28   12   15 1   
    29   12   16 1   
    30   12   38 1   
    31   12   43 1   
    32   12   45 1   
    33   13   15 1   
    34   13   39 1   
    35   13   40 1   
    36   13   43 1   
    37   14   16 1   
    38   14   37 1   
    39   14   41 1   
    40   14   42 1   
    41   15   38 1   
    42   15   39 1   
    43   15   43 1   
    44   15   44 1   
    45   16   38 1   
    46   16   45 1   
    47   16   46 1   
    48   17   47 1   
    49   17   48 1   
    50   17   49 1   
    51   18   34 1   
    52   18   35 1   
    53   19   20 1   
    54   19   50 1   
    55   19   51 1   
    56   20   21 1   
    57   20   28 1   
    58   21   23 1   
    59   21   24 1   
    60   22   29 1   
    61   22   30 1   
    62   24   33 1   
    63   24   52 1   
    64   24   53 1   
    65   25   31 1   
    66   25   32 1   
    67   25   63 1   
    68   25   68 1   
    69   27   56 1   
    70   27   57 1   
    71   27   68 1   
    72   28   58 1   
    73   28   59 1   
    74   28   60 1   
    75   29   31 1   
    76   29   61 1   
    77   29   63 1   
    78   30   32 1   
    79   30   62 1   
    80   31   63 1   
    81   32   64 1   
    82   33   65 1   
    83   33   66 1   
    84   33   67 1   
    85   37   41 1   
    86   38   45 1   
    87   39   43 1   
    88   54   56 1   
    89   54   68 1   
    90   55   68 1   
    91   56   68 1   
@<TRIPOS>SUBSTRUCTURE
     1 GMR         1 TEMP              0 ****  ****    0 ROOT
