@<TRIPOS>MOLECULE
GMS
   36    38     1     0     0
SMALL
bcc


@<TRIPOS>ATOM
      1 P           3.6940   -0.6270    0.7690 p5        1 GMS      1.282800
      2 OP1         2.9660   -1.3190    1.8360 o         1 GMS     -0.752500
      3 SE          3.7980    1.5550    1.3330 sh        1 GMS     -0.736200
      4 O5'         2.6630   -0.5150   -0.5010 os        1 GMS     -0.554200
      5 N9         -2.5330    0.0930   -0.1080 na        1 GMS     -0.204900
      6 C4         -3.9300    0.1140   -0.1290 cc        1 GMS      0.087800
      7 N3         -4.7860    1.1270   -0.5300 nc        1 GMS     -0.652100
      8 C2         -6.0960    0.8430   -0.3910 cd        1 GMS      0.644800
      9 N2         -7.0540    1.8640   -0.6670 nh        1 GMS     -0.877800
     10 N1         -6.6040   -0.3920    0.0610 n         1 GMS     -0.505400
     11 C6         -5.7640   -1.4580    0.4830 c         1 GMS      0.649000
     12 O6         -6.3190   -2.4930    0.8860 o         1 GMS     -0.616500
     13 C5         -4.3490   -1.1750    0.3660 cd        1 GMS      0.186800
     14 N7         -3.2380   -1.9620    0.6700 nd        1 GMS     -0.606000
     15 C8         -2.1750   -1.1870    0.3750 cc        1 GMS      0.427400
     16 C2'        -1.0800    2.0370    0.5690 c3        1 GMS     -0.120400
     17 C5'         1.2910   -0.5220   -0.2490 c3        1 GMS      0.159400
     18 C4'         0.6890    0.8380   -0.6320 c3        1 GMS      0.069100
     19 O4'        -0.5660    0.6140   -1.3030 os        1 GMS     -0.415600
     20 C1'        -1.6580    1.1630   -0.5650 c3        1 GMS      0.251800
     21 C3'         0.4300    1.7770    0.5660 c3        1 GMS      0.133100
     22 O3'         1.0800    3.0170    0.3860 oh        1 GMS     -0.629800
     23 OP2         5.0230   -0.9130    0.2270 o         1 GMS     -0.752500
     24 HS          4.9080    1.8670    0.6810 hs        1 GMS      0.323800
     25 H21        -6.6370    2.7070   -1.0070 hn        1 GMS      0.401800
     26 H22        -7.8010    1.5520   -1.2510 hn        1 GMS      0.401800
     27 H1         -7.5850   -0.5090    0.1870 hn        1 GMS      0.328500
     28 H8         -1.1190   -1.4770    0.4720 h5        1 GMS      0.087100
     29 H2'        -1.2860    3.1130    0.3430 hc        1 GMS      0.075200
     30 H2''       -1.5200    1.7990    1.5670 hc        1 GMS      0.075200
     31 H5'         0.8290   -1.3100   -0.9120 h1        1 GMS      0.053700
     32 H5''        1.0880   -0.7760    0.8280 h1        1 GMS      0.053700
     33 H4'         1.3460    1.3410   -1.3950 h1        1 GMS      0.100700
     34 H1'        -2.2500    1.7800   -1.3060 h2        1 GMS      0.094700
     35 H3'         0.7650    1.3020    1.5280 h1        1 GMS      0.074700
     36 HO3'        2.0220    2.8690    0.6130 ho        1 GMS      0.463000
@<TRIPOS>BOND
     1    1    2 1   
     2    1    3 1   
     3    1    4 1   
     4    1   23 1   
     5    3   24 1   
     6    4   17 1   
     7    5    6 1   
     8    5   15 1   
     9    5   20 1   
    10    6    7 1   
    11    6   13 2   
    12    7    8 2   
    13    8    9 1   
    14    8   10 1   
    15    9   25 1   
    16    9   26 1   
    17   10   11 1   
    18   10   27 1   
    19   11   12 2   
    20   11   13 1   
    21   13   14 1   
    22   14   15 2   
    23   15   28 1   
    24   16   20 1   
    25   16   21 1   
    26   16   29 1   
    27   16   30 1   
    28   17   18 1   
    29   17   31 1   
    30   17   32 1   
    31   18   19 1   
    32   18   21 1   
    33   18   33 1   
    34   19   20 1   
    35   20   34 1   
    36   21   22 1   
    37   21   35 1   
    38   22   36 1   
@<TRIPOS>SUBSTRUCTURE
     1 GMS         1 TEMP              0 ****  ****    0 ROOT
