@<TRIPOS>MOLECULE
GMU
   50    51     1     0     0
SMALL
bcc


@<TRIPOS>ATOM
      1 OP3         3.3930    0.0700   -4.9130 oh        1 GMU     -0.780400
      2 P           3.9770   -0.5630   -3.5220 p5        1 GMU      1.428800
      3 OP2         2.9890   -1.4940   -2.9400 o         1 GMU     -0.843000
      4 O5'         3.9580    0.8170   -2.6200 os        1 GMU     -0.584200
      5 C5'         2.7360    1.2080   -2.0710 c3        1 GMU      0.183400
      6 C4'         2.7970    1.1230   -0.5370 c3        1 GMU      0.090100
      7 O4'         2.1420    2.2630    0.0390 os        1 GMU     -0.433600
      8 C3'         2.1320   -0.1460    0.0240 c3        1 GMU      0.076100
      9 O3'         2.9160   -0.7440    1.0410 oh        1 GMU     -0.598800
     10 C2'         0.7800    0.3480    0.5780 c3        1 GMU      0.072100
     11 C1'         0.9620    1.8820    0.7810 c3        1 GMU      0.332500
     12 N1         -0.1950    2.6670    0.3990 n         1 GMU     -0.320400
     13 C2         -0.3460    3.9400    1.0100 c         1 GMU      0.722100
     14 O2          0.4130    4.3830    1.9160 o         1 GMU     -0.708100
     15 N3         -1.4360    4.7260    0.6080 n         1 GMU     -0.595500
     16 C6         -1.0850    2.1940   -0.5350 c1        1 GMU     -0.085900
     17 C5         -2.1710    2.9730   -0.9060 ce        1 GMU     -0.497500
     18 C5M        -3.1470    2.4750   -1.8910 c3        1 GMU      0.044100
     19 C4         -2.3820    4.2920   -0.3560 c         1 GMU      0.676300
     20 O4         -3.3070    5.1040   -0.6190 o         1 GMU     -0.721100
     21 O2'         0.5250   -0.1890    1.8780 os        1 GMU     -0.427600
     22 CA'         0.0680   -1.5370    1.8190 c3        1 GMU      0.126400
     23 CB'        -0.3550   -1.8840    3.2540 c3        1 GMU      0.148800
     24 NC'        -0.9770   -3.1850    3.3650 n3        1 GMU     -0.898200
     25 CD'        -1.9170   -3.2970    4.5310 c3        1 GMU      0.612900
     26 NE'        -1.2490   -3.0740    5.8290 n3        1 GMU     -0.895300
     27 NF'        -2.6870   -4.5600    4.5250 n3        1 GMU     -0.895300
     28 OP1         5.3870   -0.8550   -3.8610 o         1 GMU     -0.843000
     29 H5'         2.5540    2.2840   -2.3510 h1        1 GMU      0.046200
     30 H5''        1.9030    0.5680   -2.4720 h1        1 GMU      0.046200
     31 H4'         3.8690    1.1920   -0.2020 h1        1 GMU      0.070700
     32 H1          2.0260   -0.9460   -0.7630 h1        1 GMU      0.147700
     33 H3'         2.9220   -0.1300    1.7860 ho        1 GMU      0.390000
     34 H2'        -0.0640    0.1230   -0.1310 h1        1 GMU      0.128700
     35 H1'         1.2040    2.1170    1.8630 h2        1 GMU      0.074700
     36 HN3        -1.5280    5.6230    1.0200 hn        1 GMU      0.301500
     37 H6          4.0920    0.3960   -5.4670 ho        1 GMU      0.418000
     38 H71        -2.7790    1.5320   -2.3630 hc        1 GMU      0.001033
     39 H72        -3.3240    3.2350   -2.6930 hc        1 GMU      0.001033
     40 H73        -4.1350    2.2650   -1.4050 hc        1 GMU      0.001033
     41 HA'1       -0.7990   -1.6180    1.1100 h1        1 GMU      0.046200
     42 HA'2        0.9070   -2.1930    1.4660 h1        1 GMU      0.046200
     43 HB'1        0.5670   -1.8870    3.9020 h1        1 GMU      0.041200
     44 HB'2       -1.0250   -1.0530    3.6260 h1        1 GMU      0.041200
     45 HC'        -1.4500   -3.4230    2.5140 hn        1 GMU      0.361800
     46 HD'        -2.7090   -2.4720    4.4610 h3        1 GMU      0.054700
     47 HE'1       -0.8440   -2.1560    5.8310 hn        1 GMU      0.348800
     48 HE'2       -0.5210   -3.7450    5.9830 hn        1 GMU      0.348800
     49 HF'1       -3.1040   -4.6930    3.6240 hn        1 GMU      0.348800
     50 HF'2       -2.1000   -5.3470    4.7240 hn        1 GMU      0.348800
@<TRIPOS>BOND
     1    1    2 1   
     2    1   37 1   
     3    2    3 1   
     4    2    4 1   
     5    2   28 1   
     6    4    5 1   
     7    5    6 1   
     8    5   29 1   
     9    5   30 1   
    10    6    7 1   
    11    6    8 1   
    12    6   31 1   
    13    7   11 1   
    14    8    9 1   
    15    8   10 1   
    16    8   32 1   
    17    9   33 1   
    18   10   11 1   
    19   10   21 1   
    20   10   34 1   
    21   11   12 1   
    22   11   35 1   
    23   12   13 1   
    24   12   16 2   
    25   13   14 2   
    26   13   15 1   
    27   15   19 1   
    28   15   36 1   
    29   16   17 2   
    30   17   18 1   
    31   17   19 1   
    32   18   38 1   
    33   18   39 1   
    34   18   40 1   
    35   19   20 2   
    36   21   22 1   
    37   22   23 1   
    38   22   41 1   
    39   22   42 1   
    40   23   24 1   
    41   23   43 1   
    42   23   44 1   
    43   24   25 1   
    44   24   45 1   
    45   25   26 1   
    46   25   27 1   
    47   25   46 1   
    48   26   47 1   
    49   26   48 1   
    50   27   49 1   
    51   27   50 1   
@<TRIPOS>SUBSTRUCTURE
     1 GMU         1 TEMP              0 ****  ****    0 ROOT
