@<TRIPOS>MOLECULE
GMU
   50    50     1     0     0
SMALL
bcc


@<TRIPOS>ATOM
      1 OP3        -3.5240   -3.1910    4.1340 o         1 GMU     -0.917500
      2 P          -3.6650   -3.7030    2.7300 p5        1 GMU      1.560500
      3 OP2        -2.8290   -4.9490    2.5630 o         1 GMU     -0.917500
      4 O5'        -3.1660   -2.5920    1.7110 os        1 GMU     -0.736000
      5 C5'        -1.7890   -2.3180    1.6470 c3        1 GMU      0.074000
      6 C4'        -1.5980   -1.0090    1.2930 c3        1 GMU     -0.041000
      7 O4'        -0.3130   -0.4730    1.9180 os        1 GMU     -0.272000
      8 C3'        -1.3960   -0.8860   -0.2930 c3        1 GMU      0.008000
      9 O3'        -2.6110   -0.2210   -0.9340 oh        1 GMU     -0.355000
     10 C2'        -0.4030   -0.1760   -0.4320 c3        1 GMU     -0.010000
     11 C1'         0.5140   -0.3880    0.9440 c3        1 GMU      0.127000
     12 N1          1.2800   -1.5840    0.8420 n         1 GMU     -0.258000
     13 C2          1.6890   -2.0830   -0.4850 c2        1 GMU      0.380000
     14 O2          1.2880   -1.5260   -1.4970 o         1 GMU     -0.450000
     15 N3          2.6240   -3.1900   -0.5910 n         1 GMU     -0.376000
     16 C6          1.7550   -2.2160    2.0050 c2        1 GMU      0.078000
     17 C5          2.7870   -3.2640    1.8990 c1        1 GMU     -0.278000
     18 C5M         3.4940   -3.7600    3.1450 c2        1 GMU     -0.163000
     19 C4          3.1880   -3.7590    0.5800 c2        1 GMU      0.354000
     20 O4          4.0580   -4.6430    0.4850 o         1 GMU     -0.420000
     21 O2'        -0.8110    1.2490   -0.5590 os        1 GMU     -0.249000
     22 CA'        -0.1660    1.9480   -1.6420 c3        1 GMU     -0.034000
     23 CB'        -0.6140    3.4350   -1.6420 c3        1 GMU     -0.080000
     24 NC'         0.0890    4.1410   -2.6660 n3        1 GMU     -0.325000
     25 CD'        -0.1180    5.5900   -2.4950 c3        1 GMU      0.091000
     26 NE'        -1.0000    6.0740   -3.5230 n3        1 GMU     -0.363000
     27 NF'         1.1120    6.2510   -2.5890 n3        1 GMU     -0.363000
     28 OP1        -5.1330   -4.0320    2.4480 o         1 GMU     -0.917500
     29 H5'        -1.3750   -2.8980    0.9840 h1        1 GMU      0.044500
     30 H5''       -1.3760   -2.4860    2.5380 h1        1 GMU      0.044500
     31 H4'        -2.3390   -0.4840    1.5680 h1        1 GMU      0.067000
     32 H1         -1.2480   -1.7310   -0.6690 h1        1 GMU      0.190000
     33 H3'        -3.1060   -0.8310   -1.3290 ho        1 GMU      0.269000
     34 H2'         0.0850   -0.4450   -1.1960 h1        1 GMU      0.104000
     35 H1'         1.1000    0.3710    1.0730 h2        1 GMU      0.130000
     36 HN3         2.8770   -3.5010   -1.4220 hn        1 GMU      0.231000
     37 H6          1.4430   -1.9050    2.9100 h4        1 GMU      0.319000
     38 H71         3.4680   -4.7440    3.1670 ha        1 GMU      0.095000
     39 H72         3.0320   -3.3930    3.9600 ha        1 GMU      0.095000
     40 H73         4.4500   -3.4510    3.1340 ha        1 GMU      0.095000
     41 HA'1       -0.4230    1.5180   -2.5210 h1        1 GMU      0.073000
     42 HA'2        0.8160    1.9010   -1.5250 h1        1 GMU      0.073000
     43 HB'1       -1.5760    3.4860   -1.8140 h1        1 GMU      0.092000
     44 HB'2       -0.4150    3.8370   -0.7700 h1        1 GMU      0.092000
     45 HC'        -0.2190    3.8890   -3.4650 hn        1 GMU      0.149000
     46 HD'        -0.5130    5.7610   -1.6210 h3        1 GMU      0.118000
     47 HE'1       -0.5120    6.3120   -4.2540 hn        1 GMU      0.141500
     48 HE'2       -1.4640    6.8080   -3.2100 hn        1 GMU      0.141500
     49 HF'1        1.5840    6.1170   -1.8330 hn        1 GMU      0.141500
     50 HF'2        0.9690    7.1450   -2.7040 hn        1 GMU      0.141500
@<TRIPOS>BOND
     1    1    2 1   
     2    2    3 1   
     3    2    4 1   
     4    2   28 1   
     5    4    5 1   
     6    5    6 1   
     7    5   29 1   
     8    5   30 1   
     9    6    7 1   
    10    6    8 1   
    11    6   31 1   
    12    7   11 1   
    13    8    9 1   
    14    8   10 1   
    15    8   32 1   
    16    9   33 1   
    17   10   11 1   
    18   10   21 1   
    19   10   34 1   
    20   11   12 1   
    21   11   35 1   
    22   12   13 1   
    23   12   16 1   
    24   13   14 1   
    25   13   15 1   
    26   15   19 1   
    27   15   36 1   
    28   16   17 1   
    29   16   37 1   
    30   17   19 1   
    31   18   38 1   
    32   18   39 1   
    33   18   40 1   
    34   19   20 1   
    35   21   22 1   
    36   22   23 1   
    37   22   41 1   
    38   22   42 1   
    39   23   24 1   
    40   23   43 1   
    41   23   44 1   
    42   24   25 1   
    43   24   45 1   
    44   25   26 1   
    45   25   27 1   
    46   25   46 1   
    47   26   47 1   
    48   26   48 1   
    49   27   49 1   
    50   27   50 1   
@<TRIPOS>SUBSTRUCTURE
     1 GMU         1 TEMP              0 ****  ****    0 ROOT
