@<TRIPOS>MOLECULE
GMZ
   34    34     1     0     0
SMALL
bcc


@<TRIPOS>ATOM
      1 O5          0.3310    0.5380   -0.2360 os        1 GMZ     -0.443600
      2 C1          1.7280    0.1690   -0.1390 c3        1 GMZ      0.402900
      3 O1          2.3640    1.3590   -0.2740 os        1 GMZ     -0.550200
      4 C2          1.9910   -0.4440    1.2700 c3        1 GMZ      0.053100
      5 O2          1.8800    0.5350    2.2960 oh        1 GMZ     -0.662800
      6 C3          1.0210   -1.5870    1.5950 c3        1 GMZ      0.134100
      7 O3          1.1780   -1.9840    2.9550 oh        1 GMZ     -0.631800
      8 C4         -0.4350   -1.1890    1.3090 c3        1 GMZ      0.100100
      9 O4         -1.2130   -2.3700    1.4340 oh        1 GMZ     -0.646800
     10 C5         -0.5660   -0.5580   -0.0890 c3        1 GMZ      0.104100
     11 C6         -1.9940   -0.0060   -0.3470 c3        1 GMZ      0.115100
     12 O6         -2.5460    0.5100    0.8510 oh        1 GMZ     -0.638800
     13 C7         -2.9380   -1.0390   -1.0240 c3        1 GMZ      0.167400
     14 O7         -3.7840   -1.6150   -0.1030 os        1 GMZ     -0.588200
     15 P2         -5.4080   -1.9710   -0.6490 p5        1 GMZ      1.323900
     16 OP4        -5.2820   -3.3540   -1.2300 o         1 GMZ     -0.936833
     17 OP5        -6.1770   -1.8750    0.6410 o         1 GMZ     -0.936833
     18 OP6        -5.6920   -0.8880   -1.6580 o         1 GMZ     -0.936833
     19 P1          3.8750    1.3600   -1.1750 p5        1 GMZ      1.323900
     20 OP1         4.3510   -0.0410   -0.8870 o         1 GMZ     -0.934167
     21 OP2         3.4950    1.6310   -2.6020 o         1 GMZ     -0.934167
     22 OP3         4.6330    2.4640   -0.4880 o         1 GMZ     -0.934167
     23 H1          2.0010   -0.5770   -0.9350 h2        1 GMZ      0.042700
     24 H2          3.0470   -0.8330    1.2960 h1        1 GMZ      0.074700
     25 H3          1.8330    1.3920    1.8430 ho        1 GMZ      0.442000
     26 H4          1.2900   -2.5030    1.0030 h1        1 GMZ      0.062700
     27 H5          1.0380   -1.1870    3.4790 ho        1 GMZ      0.395000
     28 H6         -0.7720   -0.4410    2.0810 h1        1 GMZ      0.044700
     29 H7         -2.0750   -2.1980    1.0140 ho        1 GMZ      0.454000
     30 H8         -0.3260   -1.3410   -0.8620 h1        1 GMZ      0.026700
     31 H9         -1.8790    0.8880   -1.0230 h1        1 GMZ      0.051700
     32 H10        -3.1740   -0.1480    1.1890 ho        1 GMZ      0.429000
     33 H11        -2.2890   -1.8240   -1.5150 h1        1 GMZ      0.012700
     34 H12        -3.5390   -0.5120   -1.8190 h1        1 GMZ      0.012700
@<TRIPOS>BOND
     1    1    2 1   
     2    1   10 1   
     3    2    3 1   
     4    2    4 1   
     5    2   23 1   
     6    3   19 1   
     7    4    5 1   
     8    4    6 1   
     9    4   24 1   
    10    5   25 1   
    11    6    7 1   
    12    6    8 1   
    13    6   26 1   
    14    7   27 1   
    15    8    9 1   
    16    8   10 1   
    17    8   28 1   
    18    9   29 1   
    19   10   11 1   
    20   10   30 1   
    21   11   12 1   
    22   11   13 1   
    23   11   31 1   
    24   12   32 1   
    25   13   14 1   
    26   13   33 1   
    27   13   34 1   
    28   14   15 1   
    29   15   16 1   
    30   15   17 1   
    31   15   18 1   
    32   19   20 1   
    33   19   21 1   
    34   19   22 1   
@<TRIPOS>SUBSTRUCTURE
     1 GMZ         1 TEMP              0 ****  ****    0 ROOT
