@<TRIPOS>MOLECULE
GMZ
   34    34     1     0     0
SMALL
bcc


@<TRIPOS>ATOM
      1 O5          0.3450    0.5320   -0.2270 os        1 GMZ     -0.443600
      2 C1          1.7360    0.1350   -0.1540 c3        1 GMZ      0.402900
      3 O1          2.3930    1.3160   -0.2760 os        1 GMZ     -0.550200
      4 C2          2.0050   -0.5070    1.2410 c3        1 GMZ      0.053100
      5 O2          1.9240    0.4570    2.2860 oh        1 GMZ     -0.662800
      6 C3          1.0180   -1.6360    1.5590 c3        1 GMZ      0.134100
      7 O3          1.1830   -2.0600    2.9090 oh        1 GMZ     -0.631800
      8 C4         -0.4340   -1.2070    1.2970 c3        1 GMZ      0.100100
      9 O4         -1.2320   -2.3760    1.4120 oh        1 GMZ     -0.646800
     10 C5         -0.5700   -0.5500   -0.0880 c3        1 GMZ      0.104100
     11 C6         -1.9900    0.0330   -0.3190 c3        1 GMZ      0.115100
     12 O6         -2.5180    0.5380    0.8940 oh        1 GMZ     -0.638800
     13 C7         -2.9620   -0.9710   -1.0020 c3        1 GMZ      0.167400
     14 O7         -3.8070   -1.5470   -0.0810 os        1 GMZ     -0.588200
     15 P2         -5.4430   -1.8630   -0.6130 p5        1 GMZ      1.323900
     16 OP4        -5.3500   -3.2380   -1.2200 o         1 GMZ     -0.936833
     17 OP5        -6.1950   -1.7770    0.6890 o         1 GMZ     -0.936833
     18 OP6        -5.7200   -0.7570   -1.5990 o         1 GMZ     -0.936833
     19 P1          3.8920    1.3040   -1.1950 p5        1 GMZ      1.323900
     20 OP1         4.3460   -0.1100   -0.9390 o         1 GMZ     -0.934167
     21 OP2         3.5010    1.6090   -2.6120 o         1 GMZ     -0.934167
     22 OP3         4.6790    2.3820   -0.4980 o         1 GMZ     -0.934167
     23 H1          1.9860   -0.6020   -0.9660 h2        1 GMZ      0.042700
     24 H2          3.0540   -0.9160    1.2470 h1        1 GMZ      0.074700
     25 H3          1.8890    1.3220    1.8470 ho        1 GMZ      0.442000
     26 H4          1.2620   -2.5470    0.9480 h1        1 GMZ      0.062700
     27 H5          1.0650   -1.2700    3.4490 ho        1 GMZ      0.395000
     28 H6         -0.7480   -0.4660    2.0860 h1        1 GMZ      0.044700
     29 H7         -2.0960   -2.1800    1.0060 ho        1 GMZ      0.454000
     30 H8         -0.3530   -1.3240   -0.8770 h1        1 GMZ      0.026700
     31 H9         -1.8670    0.9370   -0.9810 h1        1 GMZ      0.051700
     32 H10        -3.1540   -0.1150    1.2290 ho        1 GMZ      0.429000
     33 H11        -2.3330   -1.7580   -1.5140 h1        1 GMZ      0.012700
     34 H12        -3.5620   -0.4180   -1.7800 h1        1 GMZ      0.012700
@<TRIPOS>BOND
     1    1    2 1   
     2    1   10 1   
     3    2    3 1   
     4    2    4 1   
     5    2   23 1   
     6    3   19 1   
     7    4    5 1   
     8    4    6 1   
     9    4   24 1   
    10    5   25 1   
    11    6    7 1   
    12    6    8 1   
    13    6   26 1   
    14    7   27 1   
    15    8    9 1   
    16    8   10 1   
    17    8   28 1   
    18    9   29 1   
    19   10   11 1   
    20   10   30 1   
    21   11   12 1   
    22   11   13 1   
    23   11   31 1   
    24   12   32 1   
    25   13   14 1   
    26   13   33 1   
    27   13   34 1   
    28   14   15 1   
    29   15   16 1   
    30   15   17 1   
    31   15   18 1   
    32   19   20 1   
    33   19   21 1   
    34   19   22 1   
@<TRIPOS>SUBSTRUCTURE
     1 GMZ         1 TEMP              0 ****  ****    0 ROOT
