@<TRIPOS>MOLECULE
GMZ
   34    34     1     0     0
SMALL
bcc


@<TRIPOS>ATOM
      1 O5          0.4040    0.7520   -0.5470 os        1 GMZ     -0.440600
      2 C1          1.8840    0.7030   -0.5220 c3        1 GMZ      0.381900
      3 O1          2.3780    1.8180   -1.2140 os        1 GMZ     -0.548200
      4 C2          2.4430    0.7150    0.8860 c3        1 GMZ      0.052100
      5 O2          2.2160    1.9760    1.4550 oh        1 GMZ     -0.657800
      6 C3          1.8140   -0.3310    1.7550 c3        1 GMZ      0.133100
      7 O3          2.2600   -0.1410    3.1120 oh        1 GMZ     -0.631800
      8 C4          0.3210   -0.2690    1.7220 c3        1 GMZ      0.100100
      9 O4         -0.2040   -1.3890    2.4230 oh        1 GMZ     -0.646800
     10 C5         -0.2230   -0.2750    0.3020 c3        1 GMZ      0.103100
     11 C6         -1.7150   -0.0330    0.3380 c3        1 GMZ      0.116100
     12 O6         -2.2570   -0.6070    1.4980 oh        1 GMZ     -0.638800
     13 C7         -2.3720   -0.6740   -0.9150 c3        1 GMZ      0.167400
     14 O7         -3.7580   -0.5290   -0.8390 os        1 GMZ     -0.589200
     15 P2         -4.6350   -1.3150   -1.8350 p5        1 GMZ      1.323900
     16 OP4        -6.0640   -1.1600   -1.4620 o         1 GMZ     -0.936833
     17 OP5        -4.2540   -2.7920   -1.7930 o         1 GMZ     -0.936833
     18 OP6        -4.4230   -0.7930   -3.1900 o         1 GMZ     -0.936833
     19 P1          2.8810    1.6240   -2.6760 p5        1 GMZ      1.320900
     20 OP1         4.1980    0.9570   -2.6570 o         1 GMZ     -0.932500
     21 OP2         1.9150    0.7860   -3.4270 o         1 GMZ     -0.932500
     22 OP3         3.0050    2.9750   -3.3500 o         1 GMZ     -0.932500
     23 H1          2.2010   -0.1600   -1.0010 h2        1 GMZ      0.065700
     24 H2          3.4550    0.5480    0.8420 h1        1 GMZ      0.063700
     25 H3          2.9620    2.4040    1.5090 ho        1 GMZ      0.441000
     26 H4          2.1070   -1.2260    1.4420 h1        1 GMZ      0.061700
     27 H5          2.7370   -0.8120    3.3530 ho        1 GMZ      0.396000
     28 H6          0.0270    0.5540    2.1720 h1        1 GMZ      0.045700
     29 H7         -0.2700   -1.1980    3.2610 ho        1 GMZ      0.455000
     30 H8         -0.0520   -1.1820   -0.1060 h1        1 GMZ      0.029700
     31 H9         -1.8920    0.9520    0.3400 h1        1 GMZ      0.050700
     32 H10        -2.9270   -0.0450    1.8450 ho        1 GMZ      0.429000
     33 H11        -2.1440   -1.6350   -0.9520 h1        1 GMZ      0.013200
     34 H12        -2.0200   -0.2000   -1.7720 h1        1 GMZ      0.013200
@<TRIPOS>BOND
     1    1    2 1   
     2    1   10 1   
     3    2    3 1   
     4    2    4 1   
     5    2   23 1   
     6    3   19 1   
     7    4    5 1   
     8    4    6 1   
     9    4   24 1   
    10    5   25 1   
    11    6    7 1   
    12    6    8 1   
    13    6   26 1   
    14    7   27 1   
    15    8    9 1   
    16    8   10 1   
    17    8   28 1   
    18    9   29 1   
    19   10   11 1   
    20   10   30 1   
    21   11   12 1   
    22   11   13 1   
    23   11   31 1   
    24   12   32 1   
    25   13   14 1   
    26   13   33 1   
    27   13   34 1   
    28   14   15 1   
    29   15   16 1   
    30   15   17 1   
    31   15   18 1   
    32   19   20 1   
    33   19   21 1   
    34   19   22 1   
@<TRIPOS>SUBSTRUCTURE
     1 GMZ         1 TEMP              0 ****  ****    0 ROOT
