@<TRIPOS>MOLECULE
GMZ
   34    34     1     0     0
SMALL
bcc


@<TRIPOS>ATOM
      1 O5         -1.1710   -0.2080    0.6700 os        1 GMZ     -0.443600
      2 C1         -2.4440   -0.3230   -0.0070 c3        1 GMZ      0.400900
      3 O1         -3.2200   -0.9560    0.9100 os        1 GMZ     -0.553200
      4 C2         -2.9960    1.1050   -0.3040 c3        1 GMZ      0.055100
      5 O2         -3.3880    1.7750    0.8890 oh        1 GMZ     -0.662800
      6 C3         -1.9720    1.9890   -1.0290 c3        1 GMZ      0.133100
      7 O3         -2.4590    3.3260   -1.1090 oh        1 GMZ     -0.633800
      8 C4         -0.6030    1.9410   -0.3340 c3        1 GMZ      0.107100
      9 O4          0.3140    2.6180   -1.1780 oh        1 GMZ     -0.648800
     10 C5         -0.1810    0.4810   -0.0890 c3        1 GMZ      0.105100
     11 C6          1.1520    0.3950    0.7000 c3        1 GMZ      0.123100
     12 O6          1.3510    1.5800    1.4490 oh        1 GMZ     -0.670800
     13 C7          2.3350    0.1100   -0.2610 c3        1 GMZ      0.193400
     14 O7          3.5520    0.2870    0.3610 os        1 GMZ     -0.581200
     15 P2          4.5000    1.5940   -0.2460 p5        1 GMZ      1.324900
     16 OP4         3.4320    2.6680   -0.2150 o         1 GMZ     -0.938167
     17 OP5         5.6120    1.7390    0.7600 o         1 GMZ     -0.938167
     18 OP6         4.9370    1.1450   -1.6140 o         1 GMZ     -0.938167
     19 P1         -4.3680   -2.1440    0.3150 p5        1 GMZ      1.324900
     20 OP1        -4.5910   -1.6360   -1.0860 o         1 GMZ     -0.935167
     21 OP2        -3.6720   -3.4720    0.4170 o         1 GMZ     -0.935167
     22 OP3        -5.5170   -1.9510    1.2690 o         1 GMZ     -0.935167
     23 H1         -2.3360   -0.8940   -0.9700 h2        1 GMZ      0.043700
     24 H2         -3.9170    1.0040   -0.9430 h1        1 GMZ      0.067700
     25 H3         -3.3740    1.1030    1.5890 ho        1 GMZ      0.441000
     26 H4         -1.8700    1.6640   -2.1000 h1        1 GMZ      0.060700
     27 H5         -2.6070    3.6040   -0.1970 ho        1 GMZ      0.395000
     28 H6         -0.6730    2.4710    0.6570 h1        1 GMZ      0.048700
     29 H7          1.1920    2.5800   -0.7500 ho        1 GMZ      0.467000
     30 H8         -0.0540   -0.0320   -1.0840 h1        1 GMZ      0.020700
     31 H9          1.0610   -0.4390    1.4510 h1        1 GMZ      0.040700
     32 H10         2.1640    2.0120    1.1000 ho        1 GMZ      0.467000
     33 H11         2.2350   -0.9650   -0.5940 h1        1 GMZ     -0.002800
     34 H12         2.2480    0.7780   -1.1640 h1        1 GMZ     -0.002800
@<TRIPOS>BOND
     1    1    2 1   
     2    1   10 1   
     3    2    3 1   
     4    2    4 1   
     5    2   23 1   
     6    3   19 1   
     7    4    5 1   
     8    4    6 1   
     9    4   24 1   
    10    5   25 1   
    11    6    7 1   
    12    6    8 1   
    13    6   26 1   
    14    7   27 1   
    15    8    9 1   
    16    8   10 1   
    17    8   28 1   
    18    9   29 1   
    19   10   11 1   
    20   10   30 1   
    21   11   12 1   
    22   11   13 1   
    23   11   31 1   
    24   12   32 1   
    25   13   14 1   
    26   13   33 1   
    27   13   34 1   
    28   14   15 1   
    29   15   16 1   
    30   15   17 1   
    31   15   18 1   
    32   19   20 1   
    33   19   21 1   
    34   19   22 1   
@<TRIPOS>SUBSTRUCTURE
     1 GMZ         1 TEMP              0 ****  ****    0 ROOT
