@<TRIPOS>MOLECULE
GN1
   33    33     1     0     0
SMALL
bcc


@<TRIPOS>ATOM
      1 C1'         2.4100    0.6700    1.8170 c3        1 GN1      0.399900
      2 OP1         1.4280    3.5830    1.5350 o         1 GN1     -0.902500
      3 P           1.4930    2.8940    2.8870 p5        1 GN1      1.329900
      4 OP2         2.8760    2.8300    3.4600 o         1 GN1     -0.902500
      5 OP3         0.3330    3.0930    3.8030 o         1 GN1     -0.902500
      6 C2'         2.3370    0.4880    0.2440 c3        1 GN1      0.020700
      7 C3'         1.1470   -0.4420   -0.0850 c3        1 GN1      0.099100
      8 C4'         1.3340   -1.7790    0.6560 c3        1 GN1      0.098100
      9 C5'         1.4280   -1.4920    2.1620 c3        1 GN1      0.112100
     10 C6'         1.6930   -2.7690    2.9570 c3        1 GN1      0.148400
     11 C8'         2.6000    3.4570   -2.1310 c3        1 GN1     -0.161100
     12 O1'         1.2970    1.2370    2.3260 os        1 GN1     -0.560200
     13 O3'         0.9900   -0.7250   -1.4690 oh        1 GN1     -0.654800
     14 O4'         0.2510   -2.6710    0.4200 oh        1 GN1     -0.628800
     15 O5'         2.5410   -0.6420    2.3930 os        1 GN1     -0.474600
     16 N2'         2.2440    1.7760   -0.3860 n         1 GN1     -0.539900
     17 C7'         2.6840    2.0260   -1.6410 c         1 GN1      0.644100
     18 O6'         1.7710   -2.5310    4.3490 oh        1 GN1     -0.640800
     19 O7'         3.1370    1.1300   -2.4150 o         1 GN1     -0.756100
     20 H1'         3.3630    1.1990    2.1240 h2        1 GN1      0.113700
     21 H2'         3.2800   -0.0330   -0.0940 h1        1 GN1      0.036700
     22 H3'         0.1830    0.0390    0.2460 h1        1 GN1      0.098700
     23 H4'         2.2730   -2.2860    0.2970 h1        1 GN1      0.026700
     24 H5'         0.4860   -0.9890    2.5180 h1        1 GN1      0.092700
     25 H6'1        2.6560   -3.2400    2.6220 h1        1 GN1      0.024700
     26 H6'2        0.8470   -3.4900    2.8080 h1        1 GN1      0.024700
     27 H8'1        2.5730    4.1880   -1.2860 hc        1 GN1      0.050033
     28 H8'2        3.4820    3.6660   -2.7810 hc        1 GN1      0.050033
     29 H8'3        1.6680    3.5690   -2.7350 hc        1 GN1      0.050033
     30 HO3'        1.8190   -0.5010   -1.9160 ho        1 GN1      0.431000
     31 HO4'       -0.1390   -2.4120   -0.4240 ho        1 GN1      0.407000
     32 HN2'        1.8860    2.5450    0.2400 hn        1 GN1      0.428500
     33 HO6'        2.0980   -1.6260    4.4650 ho        1 GN1      0.438000
@<TRIPOS>BOND
     1    1    6 1   
     2    1   12 1   
     3    1   15 1   
     4    1   20 1   
     5    2    3 1   
     6    3    4 1   
     7    3    5 1   
     8    3   12 1   
     9    6    7 1   
    10    6   16 1   
    11    6   21 1   
    12    7    8 1   
    13    7   13 1   
    14    7   22 1   
    15    8    9 1   
    16    8   14 1   
    17    8   23 1   
    18    9   10 1   
    19    9   15 1   
    20    9   24 1   
    21   10   18 1   
    22   10   25 1   
    23   10   26 1   
    24   11   17 1   
    25   11   27 1   
    26   11   28 1   
    27   11   29 1   
    28   13   30 1   
    29   14   31 1   
    30   16   17 1   
    31   16   32 1   
    32   17   19 2   
    33   18   33 1   
@<TRIPOS>SUBSTRUCTURE
     1 GN1         1 TEMP              0 ****  ****    0 ROOT
