@<TRIPOS>MOLECULE
GN1
   33    33     1     0     0
SMALL
bcc


@<TRIPOS>ATOM
      1 C1'        -0.8550    0.5360   -0.4070 c3        1 GN1      0.402900
      2 OP1        -2.9680    0.7150   -3.6360 o         1 GN1     -0.915167
      3 P          -2.6750    1.0420   -2.1920 p5        1 GN1      1.315900
      4 OP2        -2.5630    2.5390   -2.0270 o         1 GN1     -0.915167
      5 OP3        -3.7930    0.5230   -1.3210 o         1 GN1     -0.915167
      6 C2'         0.5720    0.5360   -0.4070 c3        1 GN1     -0.014300
      7 C3'         1.1550    0.5360    0.8790 c3        1 GN1      0.116100
      8 C4'         0.6300   -0.5360    1.7690 c3        1 GN1      0.089100
      9 C5'        -0.9560   -0.5370    1.9250 c3        1 GN1      0.085100
     10 C6'        -1.3700    0.5430    2.5720 c3        1 GN1      0.139400
     11 C8'         2.5100   -1.8460   -2.9210 c3        1 GN1     -0.179100
     12 O1'        -1.3140    0.3620   -1.7630 os        1 GN1     -0.523200
     13 O3'         0.8880    1.8650    1.5230 oh        1 GN1     -0.624800
     14 O4'         1.0290   -1.7830    1.2510 oh        1 GN1     -0.627800
     15 O5'        -1.4490   -0.5200    0.4270 os        1 GN1     -0.445600
     16 N2'         1.0590   -0.7290   -1.1620 n         1 GN1     -0.503900
     17 C7'         2.0380   -0.6130   -2.1830 c         1 GN1      0.640100
     18 O6'        -2.6530    0.3070    3.1080 oh        1 GN1     -0.652800
     19 O7'         2.4940    0.4770   -2.4660 o         1 GN1     -0.657100
     20 H1'        -1.1670    1.4020   -0.0810 h2        1 GN1      0.065700
     21 H2'         0.8830    1.3260   -0.8890 h1        1 GN1      0.092700
     22 H3'         2.1200    0.4210    0.7850 h1        1 GN1      0.072700
     23 H4'         1.0280   -0.4260    2.6540 h1        1 GN1      0.055700
     24 H5'        -1.2570   -1.3480    2.3780 h1        1 GN1      0.049700
     25 H6'1       -1.4080    1.2970    1.9540 h1        1 GN1      0.012200
     26 H6'2       -0.7470    0.7470    3.2960 h1        1 GN1      0.012200
     27 H8'1        3.0290   -2.4090   -2.3160 hc        1 GN1      0.048700
     28 H8'2        3.0690   -1.5790   -3.6760 hc        1 GN1      0.048700
     29 H8'3        1.7380   -2.3450   -3.2490 hc        1 GN1      0.048700
     30 HO3'        1.6520    2.3070    1.6180 ho        1 GN1      0.423000
     31 HO4'        1.4660   -2.2370    1.8750 ho        1 GN1      0.413000
     32 HN2'        0.6860   -1.5410   -0.9790 hn        1 GN1      0.336500
     33 HO6'       -2.8700    0.9690    3.6580 ho        1 GN1      0.505000
@<TRIPOS>BOND
     1    1    6 1   
     2    1   12 1   
     3    1   15 1   
     4    1   20 1   
     5    2    3 1   
     6    3    4 1   
     7    3    5 1   
     8    3   12 1   
     9    6    7 1   
    10    6   16 1   
    11    6   21 1   
    12    7    8 1   
    13    7   13 1   
    14    7   22 1   
    15    8    9 1   
    16    8   14 1   
    17    8   23 1   
    18    9   10 1   
    19    9   15 1   
    20    9   24 1   
    21   10   18 1   
    22   10   25 1   
    23   10   26 1   
    24   11   17 1   
    25   11   27 1   
    26   11   28 1   
    27   11   29 1   
    28   13   30 1   
    29   14   31 1   
    30   16   17 1   
    31   16   32 1   
    32   17   19 2   
    33   18   33 1   
@<TRIPOS>SUBSTRUCTURE
     1 GN1         1 TEMP              0 ****  ****    0 ROOT
