@<TRIPOS>MOLECULE
GN5
   40    42     1     0     0
SMALL
bcc


@<TRIPOS>ATOM
      1 CAA         0.6040   -0.9410   -0.2420 c3        1 GN5     -0.087100
      2 CAB         1.7310   -0.1120    0.3700 c3        1 GN5     -0.013700
      3 CAC         1.2190    0.5860    1.6270 c3        1 GN5     -0.087100
      4 CAD         2.8530   -1.0610    0.7750 c3        1 GN5     -0.087100
      5 CAE         2.1860    0.9230   -0.6250 ca        1 GN5     -0.046300
      6 CAJ         1.2630    1.8710   -1.0960 ca        1 GN5     -0.131000
      7 CAI         1.6440    2.8440   -2.0150 ca        1 GN5     -0.105000
      8 CAF         3.5010    0.9790   -1.1010 ca        1 GN5     -0.131000
      9 CAG         3.8840    1.9530   -2.0220 ca        1 GN5     -0.105000
     10 CAH         2.9590    2.8900   -2.4830 ca        1 GN5     -0.177300
     11 CAK         3.4040    3.9450   -3.4960 c3        1 GN5      0.436200
     12 NAL         3.1640    5.2940   -3.0110 ns        1 GN5     -0.574900
     13 CAM         2.1810    6.1210   -3.5300 c         1 GN5      0.724100
     14 OAN         1.9510    7.2180   -2.9810 o         1 GN5     -0.641500
     15 CAO         1.4680    5.6550   -4.7350 ca        1 GN5     -0.319900
     16 CAU         0.4620    6.4370   -5.3110 ca        1 GN5     -0.001000
     17 CAT        -0.2170    5.9570   -6.4250 ca        1 GN5     -0.308300
     18 CAS         0.1370    4.6860   -6.9210 ca        1 GN5      0.459200
     19 NAR         1.0920    3.9040   -6.4050 nb        1 GN5     -0.726000
     20 CAP         1.7890    4.3880   -5.3200 ca        1 GN5      0.671200
     21 NAQ         2.8820    3.6610   -4.8370 nu        1 GN5     -0.836900
     22 HAA1        0.9600   -1.4540   -1.1670 hc        1 GN5      0.038589
     23 HAA2       -0.2650   -0.2920   -0.5040 hc        1 GN5      0.038589
     24 HAA3        0.2630   -1.7140    0.4870 hc        1 GN5      0.038589
     25 HAC1        0.3560    1.2510    1.3850 hc        1 GN5      0.038589
     26 HAC2        2.0290    1.2010    2.0850 hc        1 GN5      0.038589
     27 HAC3        0.8820   -0.1750    2.3720 hc        1 GN5      0.038589
     28 HAD1        3.6900   -0.4990    1.2540 hc        1 GN5      0.038589
     29 HAD2        2.4650   -1.8070    1.5110 hc        1 GN5      0.038589
     30 HAD3        3.2420   -1.6140   -0.1130 hc        1 GN5      0.038589
     31 HAJ         0.2230    1.8490   -0.7360 ha        1 GN5      0.139500
     32 HAF         4.2550    0.2550   -0.7570 ha        1 GN5      0.139500
     33 HAI         0.9050    3.5790   -2.3710 ha        1 GN5      0.137000
     34 HAG         4.9250    1.9790   -2.3810 ha        1 GN5      0.137000
     35 HAK         4.5380    3.8480   -3.6120 h2        1 GN5      0.071700
     36 HAL         3.5580    5.5140   -2.1260 hn        1 GN5      0.334500
     37 HAQ         2.9090    2.6890   -5.0670 hn        1 GN5      0.440800
     38 HAU         0.2260    7.4180   -4.8660 ha        1 GN5      0.165000
     39 HAT        -1.0090    6.5410   -6.9080 ha        1 GN5      0.150000
     40 HAS        -0.3890    4.2580   -7.7960 h4        1 GN5      0.024100
@<TRIPOS>BOND
     1    1    2 1   
     2    1   22 1   
     3    1   23 1   
     4    1   24 1   
     5    2    3 1   
     6    2    4 1   
     7    2    5 1   
     8    3   25 1   
     9    3   26 1   
    10    3   27 1   
    11    4   28 1   
    12    4   29 1   
    13    4   30 1   
    14    5    6 ar  
    15    5    8 ar  
    16    6    7 ar  
    17    6   31 1   
    18    7   10 ar  
    19    7   33 1   
    20    8    9 ar  
    21    8   32 1   
    22    9   10 ar  
    23    9   34 1   
    24   10   11 1   
    25   11   12 1   
    26   11   21 1   
    27   11   35 1   
    28   12   13 1   
    29   12   36 1   
    30   13   14 2   
    31   13   15 1   
    32   15   16 ar  
    33   15   20 ar  
    34   16   17 ar  
    35   16   38 1   
    36   17   18 ar  
    37   17   39 1   
    38   18   19 ar  
    39   18   40 1   
    40   19   20 ar  
    41   20   21 1   
    42   21   37 1   
@<TRIPOS>SUBSTRUCTURE
     1 GN5         1 TEMP              0 ****  ****    0 ROOT
