@<TRIPOS>MOLECULE
GN5
   40    42     1     0     0
SMALL
bcc


@<TRIPOS>ATOM
      1 CAA         0.1460   -0.3140    0.4440 c3        1 GN5     -0.087100
      2 CAB         1.6570   -0.1420    0.3480 c3        1 GN5     -0.013700
      3 CAC         2.1960    0.1320    1.7500 c3        1 GN5     -0.087100
      4 CAD         2.2530   -1.4460   -0.1760 c3        1 GN5     -0.087100
      5 CAE         2.0490    0.9890   -0.5670 ca        1 GN5     -0.046300
      6 CAJ         1.1040    1.7730   -1.2370 ca        1 GN5     -0.131000
      7 CAI         1.5060    2.8120   -2.0760 ca        1 GN5     -0.105000
      8 CAF         3.4110    1.2720   -0.7590 ca        1 GN5     -0.131000
      9 CAG         3.8140    2.3090   -1.5950 ca        1 GN5     -0.105000
     10 CAH         2.8610    3.0860   -2.2600 ca        1 GN5     -0.177300
     11 CAK         3.3280    4.2150   -3.1770 c3        1 GN5      0.436200
     12 NAL         2.7670    5.4970   -2.7830 n         1 GN5     -0.574900
     13 CAM         1.7930    6.1550   -3.5160 c         1 GN5      0.724100
     14 OAN         1.2700    7.1890   -3.0520 o         1 GN5     -0.641500
     15 CAO         1.4400    5.5940   -4.8350 ca        1 GN5     -0.319900
     16 CAU         0.4640    6.2040   -5.6270 ca        1 GN5     -0.001000
     17 CAT         0.1270    5.6330   -6.8490 ca        1 GN5     -0.308300
     18 CAS         0.7850    4.4480   -7.2310 ca        1 GN5      0.459200
     19 NAR         1.7270    3.8300   -6.5080 nb        1 GN5     -0.726000
     20 CAP         2.0860    4.4080   -5.3110 ca        1 GN5      0.671200
     21 NAQ         3.1570    3.8680   -4.5920 nh        1 GN5     -0.836900
     22 HAA1       -0.2890   -0.5420   -0.5580 hc        1 GN5      0.038700
     23 HAA2       -0.3310    0.6100    0.8490 hc        1 GN5      0.038700
     24 HAA3       -0.0910   -1.1620    1.1320 hc        1 GN5      0.038700
     25 HAC1        1.9070   -0.6990    2.4370 hc        1 GN5      0.038700
     26 HAC2        1.7760    1.0870    2.1460 hc        1 GN5      0.038700
     27 HAC3        3.3090    0.2100    1.7370 hc        1 GN5      0.038700
     28 HAD1        1.8750   -1.6590   -1.2040 hc        1 GN5      0.038700
     29 HAD2        1.9650   -2.2910    0.4950 hc        1 GN5      0.038700
     30 HAD3        3.3670   -1.3850   -0.2100 hc        1 GN5      0.038700
     31 HAJ         0.0260    1.5850   -1.1140 ha        1 GN5      0.139000
     32 HAF         4.1740    0.6700   -0.2420 ha        1 GN5      0.139000
     33 HAI         0.7460    3.4180   -2.5930 ha        1 GN5      0.137000
     34 HAG         4.8880    2.5140   -1.7290 ha        1 GN5      0.137000
     35 HAK         4.4600    4.3130   -3.0480 h2        1 GN5      0.071700
     36 HAL         2.9220    5.7680   -1.8390 hn        1 GN5      0.334500
     37 HAQ         3.3950    2.9180   -4.7910 hn        1 GN5      0.440800
     38 HAU        -0.0230    7.1250   -5.2640 ha        1 GN5      0.165000
     39 HAT        -0.6310    6.0830   -7.5020 ha        1 GN5      0.150000
     40 HAS         0.5360    3.9510   -8.1890 h4        1 GN5      0.024100
@<TRIPOS>BOND
     1    1    2 1   
     2    1   22 1   
     3    1   23 1   
     4    1   24 1   
     5    2    3 1   
     6    2    4 1   
     7    2    5 1   
     8    3   25 1   
     9    3   26 1   
    10    3   27 1   
    11    4   28 1   
    12    4   29 1   
    13    4   30 1   
    14    5    6 ar  
    15    5    8 ar  
    16    6    7 ar  
    17    6   31 1   
    18    7   10 ar  
    19    7   33 1   
    20    8    9 ar  
    21    8   32 1   
    22    9   10 ar  
    23    9   34 1   
    24   10   11 1   
    25   11   12 1   
    26   11   21 1   
    27   11   35 1   
    28   12   13 1   
    29   12   36 1   
    30   13   14 2   
    31   13   15 1   
    32   15   16 ar  
    33   15   20 ar  
    34   16   17 ar  
    35   16   38 1   
    36   17   18 ar  
    37   17   39 1   
    38   18   19 ar  
    39   18   40 1   
    40   19   20 ar  
    41   20   21 1   
    42   21   37 1   
@<TRIPOS>SUBSTRUCTURE
     1 GN5         1 TEMP              0 ****  ****    0 ROOT
