@<TRIPOS>MOLECULE
GN7
   35    37     1     0     0
SMALL
bcc


@<TRIPOS>ATOM
      1 P           0.1480    0.9950   -4.5290 p5        1 GN7      1.330900
      2 OP1         1.3330    1.7530   -4.0020 o         1 GN7     -0.930167
      3 OP2         0.1480    0.5790   -5.9660 o         1 GN7     -0.930167
      4 OP3        -1.1760    1.4370   -3.9370 o         1 GN7     -0.930167
      5 O5'         0.3010   -0.5160   -3.6610 os        1 GN7     -0.553200
      6 C5'         0.3940   -0.3600   -2.3070 c3        1 GN7      0.227400
      7 C4'        -0.9570   -0.6890   -1.6260 c3        1 GN7      0.051100
      8 O4'        -0.7200   -1.3580   -0.3560 os        1 GN7     -0.430600
      9 C3'        -1.8330    0.5490   -1.3470 c3        1 GN7      0.156100
     10 O3'        -3.0180    0.5190   -2.1080 oh        1 GN7     -0.670800
     11 C2'        -2.2030    0.4570    0.1410 c3        1 GN7     -0.129400
     12 C1'        -1.2550   -0.6140    0.7210 c3        1 GN7      0.241800
     13 N9          1.8500    0.9430    2.0730 nc        1 GN7     -0.672000
     14 C8          1.0060    0.5670    1.0690 cd        1 GN7      0.477400
     15 N7         -0.1570   -0.0540    1.5240 na        1 GN7     -0.156900
     16 C5         -0.0510   -0.0980    2.9100 cd        1 GN7     -0.336200
     17 C6         -0.9200   -0.6210    3.9360 c         1 GN7      0.746100
     18 O6         -2.0210   -1.1920    3.7990 o         1 GN7     -0.660500
     19 N1         -0.4180   -0.4560    5.2450 n         1 GN7     -0.487400
     20 C2          0.8130    0.1910    5.5000 cd        1 GN7      0.574800
     21 N2          1.1450    0.3490    6.8970 nh        1 GN7     -0.864800
     22 N3          1.6400    0.6670    4.5630 nc        1 GN7     -0.672700
     23 C4          1.2080    0.5370    3.2480 cc        1 GN7      0.540300
     24 H5'         0.7090    0.6910   -2.0430 h1        1 GN7     -0.004800
     25 H5''        1.1550   -1.0850   -1.8890 h1        1 GN7     -0.004800
     26 H4'        -1.5170   -1.4370   -2.2480 h1        1 GN7      0.082700
     27 H3'        -1.2660    1.4960   -1.5730 h1        1 GN7      0.103700
     28 HO3'       -2.7480    0.8040   -3.0130 ho        1 GN7      0.501000
     29 H2'        -3.2560    0.1030    0.2580 hc        1 GN7      0.056200
     30 H2''       -2.1050    1.4460    0.6430 hc        1 GN7      0.056200
     31 H1'        -1.7890   -1.3430    1.4010 h2        1 GN7      0.087700
     32 H8          1.1970    0.7140   -0.0130 h5        1 GN7      0.122100
     33 HN1        -0.9970   -0.7360    6.0030 hn        1 GN7      0.325500
     34 HN21        1.8870    1.0130    7.0130 hn        1 GN7      0.378300
     35 HN22        1.4150   -0.5350    7.2850 hn        1 GN7      0.378300
@<TRIPOS>BOND
     1    1    2 1   
     2    1    3 1   
     3    1    4 1   
     4    1    5 1   
     5    5    6 1   
     6    6    7 1   
     7    6   24 1   
     8    6   25 1   
     9    7    8 1   
    10    7    9 1   
    11    7   26 1   
    12    8   12 1   
    13    9   10 1   
    14    9   11 1   
    15    9   27 1   
    16   10   28 1   
    17   11   12 1   
    18   11   29 1   
    19   11   30 1   
    20   12   15 1   
    21   12   31 1   
    22   13   14 2   
    23   13   23 1   
    24   14   15 1   
    25   14   32 1   
    26   15   16 1   
    27   16   17 1   
    28   16   23 2   
    29   17   18 2   
    30   17   19 1   
    31   19   20 1   
    32   19   33 1   
    33   20   21 1   
    34   20   22 2   
    35   21   34 1   
    36   21   35 1   
    37   22   23 1   
@<TRIPOS>SUBSTRUCTURE
     1 GN7         1 TEMP              0 ****  ****    0 ROOT
