@<TRIPOS>MOLECULE
GN8
   37    39     1     0     0
SMALL
bcc


@<TRIPOS>ATOM
      1 OAA         0.7600    0.5630   -0.3620 o         1 GN8     -0.568500
      2 CAU         1.9210    0.1550   -0.2520 c         1 GN8      0.704700
      3 CAW         2.6940    0.0330    1.0210 cc        1 GN8     -0.155600
      4 CAF         2.1320    0.3980    2.1880 cf        1 GN8      0.025800
      5 CAR         2.7440    0.3390    3.4990 ca        1 GN8     -0.129800
      6 CAQ         2.1470    1.0860    4.5620 ca        1 GN8      0.248100
      7 OAC         1.0440    1.7940    4.2040 oh        1 GN8     -0.489100
      8 CAT         2.7260    1.0410    5.8500 ca        1 GN8     -0.280200
      9 NAY         2.1680    1.7910    6.9960 no        1 GN8      0.326200
     10 OAD         1.1760    2.4590    6.8370 o         1 GN8     -0.214000
     11 OAB         2.7120    1.7190    8.0620 o         1 GN8     -0.214000
     12 CAN         3.8800    0.2590    6.0790 ca        1 GN8     -0.018000
     13 CAJ         4.4430   -0.4660    5.0440 ca        1 GN8     -0.178000
     14 CAK         3.8800   -0.4250    3.7660 ca        1 GN8     -0.029000
     15 SAP         4.2420   -0.5730    0.6680 ss        1 GN8     -0.076200
     16 CAV         3.9840   -0.6850   -1.0620 c         1 GN8      0.362000
     17 SAE         5.1220   -1.1920   -1.9800 s         1 GN8     -0.299400
     18 NAX         2.7020   -0.2480   -1.3700 n         1 GN8     -0.444400
     19 CAO         2.1550   -0.2730   -2.7110 c3        1 GN8      0.139300
     20 CAS         1.4260   -1.5360   -3.0640 ca        1 GN8     -0.127300
     21 CAL         0.1130   -1.7280   -2.6220 ca        1 GN8     -0.107500
     22 CAM         2.0420   -2.5070   -3.8600 ca        1 GN8     -0.107500
     23 CAI         1.3410   -3.6580   -4.2200 ca        1 GN8     -0.135000
     24 CAG         0.0300   -3.8450   -3.7830 ca        1 GN8     -0.117000
     25 CAH        -0.5830   -2.8800   -2.9830 ca        1 GN8     -0.135000
     26 HAC         0.6500    2.2750    4.9520 ho        1 GN8      0.477000
     27 HAK         4.3410   -1.0280    2.9620 ha        1 GN8      0.160000
     28 HAJ         5.3400   -1.0780    5.2260 ha        1 GN8      0.159000
     29 HAN         4.3270    0.2310    7.0900 ha        1 GN8      0.177000
     30 HAF         1.0940    0.7980    2.1620 ha        1 GN8      0.181000
     31 HAO1        1.4400    0.5980   -2.7890 h1        1 GN8      0.084700
     32 HAO2        3.0110   -0.1140   -3.4320 h1        1 GN8      0.084700
     33 HAM         3.0800   -2.3640   -4.1990 ha        1 GN8      0.147000
     34 HAI         1.8260   -4.4190   -4.8480 ha        1 GN8      0.135000
     35 HAG        -0.5210   -4.7530   -4.0690 ha        1 GN8      0.133000
     36 HAH        -1.6160   -3.0270   -2.6360 ha        1 GN8      0.135000
     37 HAL        -0.3640   -0.9630   -1.9860 ha        1 GN8      0.147000
@<TRIPOS>BOND
     1    1    2 2   
     2    2    3 1   
     3    2   18 1   
     4    3    4 2   
     5    3   15 1   
     6    4    5 1   
     7    4   30 1   
     8    5    6 ar  
     9    5   14 ar  
    10    6    7 1   
    11    6    8 ar  
    12    7   26 1   
    13    8    9 1   
    14    8   12 ar  
    15    9   10 1   
    16    9   11 1   
    17   12   13 ar  
    18   12   29 1   
    19   13   14 ar  
    20   13   28 1   
    21   14   27 1   
    22   15   16 1   
    23   16   17 2   
    24   16   18 1   
    25   18   19 1   
    26   19   20 1   
    27   19   31 1   
    28   19   32 1   
    29   20   21 ar  
    30   20   22 ar  
    31   21   25 ar  
    32   21   37 1   
    33   22   23 ar  
    34   22   33 1   
    35   23   24 ar  
    36   23   34 1   
    37   24   25 ar  
    38   24   35 1   
    39   25   36 1   
@<TRIPOS>SUBSTRUCTURE
     1 GN8         1 TEMP              0 ****  ****    0 ROOT
