@<TRIPOS>MOLECULE
GN8
   37    33     1     0     0
SMALL
bcc


@<TRIPOS>ATOM
      1 OAA        -3.1160   -0.6970   -0.5450 o         1 GN8     -0.293000
      2 CAU        -1.8990   -0.7090   -0.5140 c1        1 GN8      0.343000
      3 CAW        -1.0210   -0.7330    0.7660 c2        1 GN8     -0.377000
      4 CAF        -1.4810   -0.7320    2.0650 c1        1 GN8      0.013000
      5 CAR        -0.4790   -0.7570    3.2370 c1        1 GN8     -0.118000
      6 CAQ        -0.3090    0.4670    4.1170 c1        1 GN8      0.204000
      7 OAC        -1.0500    1.6380    3.8480 o         1 GN8     -0.243000
      8 CAT         0.6660    0.4360    5.2810 c2        1 GN8     -0.235000
      9 NAY         0.8680    1.6040    6.0750 no        1 GN8      0.581000
     10 OAD         0.6470    1.5700    7.2820 o         1 GN8     -0.364000
     11 OAB         1.3740    2.7380    5.5050 o         1 GN8     -0.364000
     12 CAN         1.4370   -0.8290    5.5870 c1        1 GN8     -0.018000
     13 CAJ         1.2670   -2.0520    4.7080 c1        1 GN8     -0.178000
     14 CAK         0.2920   -2.0210    3.5450 c2        1 GN8     -0.029000
     15 SAP         0.5020   -0.7590    0.3120 ss        1 GN8      0.347000
     16 CAV         0.5290   -0.7060   -1.3220 c2        1 GN8     -0.171000
     17 SAE         1.9000   -0.7150   -2.2850 s         1 GN8     -0.016000
     18 NAX        -0.9090   -0.7200   -1.8150 n2        1 GN8     -0.273000
     19 CAO        -1.3290   -0.7970   -3.1970 c3        1 GN8      0.016000
     20 CAS        -0.4060    0.0690   -4.0620 c2        1 GN8     -0.120000
     21 CAL        -0.5270    1.5780   -4.0190 c2        1 GN8     -0.109000
     22 CAM         0.5310   -0.5880   -5.0590 c1        1 GN8     -0.106000
     23 CAI         1.3430    0.2650   -6.0100 c1        1 GN8     -0.125500
     24 CAG         1.2220    1.7740   -5.9670 c1        1 GN8     -0.125500
     25 CAH         0.2870    2.4310   -4.9710 c1        1 GN8     -0.135000
     26 HAC        -1.7540    1.6730    4.3890 ho        1 GN8      0.276000
     27 HAK         0.1830   -2.8060    2.9810 ha        1 GN8      0.160000
     28 HAJ         1.7640   -2.8660    4.9060 ha        1 GN8      0.158000
     29 HAN         2.0640   -0.8490    6.3350 ha        1 GN8      0.177000
     30 HAF        -2.4430   -0.7140    2.2440 ha        1 GN8      0.181000
     31 HAO1       -2.2540   -0.4710   -3.2770 h1        1 GN8      0.124000
     32 HAO2       -1.2830   -1.7280   -3.5010 h1        1 GN8      0.124000
     33 HAM         0.6090   -1.5590   -5.0880 ha        1 GN8      0.143000
     34 HAI         1.9470   -0.1590   -6.6530 ha        1 GN8      0.134000
     35 HAG         1.7470    2.3240   -6.5810 ha        1 GN8      0.134000
     36 HAH         0.2090    3.4000   -4.9430 ha        1 GN8      0.135000
     37 HAL        -1.1290    2.0020   -3.3770 ha        1 GN8      0.150000
@<TRIPOS>BOND
     1    1    2 1   
     2    2    3 1   
     3    3    4 1   
     4    3   15 1   
     5    4   30 1   
     6    5    6 1   
     7    5   14 1   
     8    6    8 1   
     9    7   26 1   
    10    8    9 1   
    11    8   12 1   
    12    9   10 1   
    13    9   11 1   
    14   12   29 1   
    15   13   14 1   
    16   13   28 1   
    17   14   27 1   
    18   15   16 1   
    19   16   17 1   
    20   16   18 1   
    21   18   19 1   
    22   19   20 1   
    23   19   31 1   
    24   19   32 1   
    25   20   21 1   
    26   20   22 1   
    27   21   25 1   
    28   21   37 1   
    29   22   33 1   
    30   23   24 1   
    31   23   34 1   
    32   24   35 1   
    33   25   36 1   
@<TRIPOS>SUBSTRUCTURE
     1 GN8         1 TEMP              0 ****  ****    0 ROOT
