@<TRIPOS>MOLECULE
GN8
   37    39     1     0     0
SMALL
bcc


@<TRIPOS>ATOM
      1 OAA         0.8050    0.5980   -0.3800 o         1 GN8     -0.568500
      2 CAU         1.9540    0.1600   -0.2550 c         1 GN8      0.704700
      3 CAW         2.7080    0.0190    1.0270 cc        1 GN8     -0.155600
      4 CAF         2.1410    0.3990    2.1870 cf        1 GN8      0.025800
      5 CAR         2.7350    0.3270    3.5050 ca        1 GN8     -0.129800
      6 CAQ         2.1430    1.0890    4.5600 ca        1 GN8      0.248100
      7 OAC         1.0630    1.8230    4.1880 oh        1 GN8     -0.489100
      8 CAT         2.7050    1.0300    5.8560 ca        1 GN8     -0.280200
      9 NAY         2.1510    1.7940    6.9940 no        1 GN8      0.326200
     10 OAD         1.1780    2.4870    6.8230 o         1 GN8     -0.214000
     11 OAB         2.6810    1.7090    8.0680 o         1 GN8     -0.214000
     12 CAN         3.8370    0.2200    6.0990 ca        1 GN8     -0.018000
     13 CAJ         4.3940   -0.5190    5.0710 ca        1 GN8     -0.178000
     14 CAK         3.8480   -0.4650    3.7860 ca        1 GN8     -0.029000
     15 SAP         4.2440   -0.6260    0.6940 ss        1 GN8     -0.076200
     16 CAV         4.0040   -0.7340   -1.0400 c         1 GN8      0.362000
     17 SAE         5.1410   -1.2700   -1.9430 s         1 GN8     -0.299400
     18 NAX         2.7380   -0.2650   -1.3630 n         1 GN8     -0.444400
     19 CAO         2.2070   -0.2770   -2.7110 c3        1 GN8      0.139300
     20 CAS         1.4500   -1.5210   -3.0720 ca        1 GN8     -0.127300
     21 CAL         0.1260   -1.6770   -2.6470 ca        1 GN8     -0.107500
     22 CAM         2.0500   -2.5090   -3.8590 ca        1 GN8     -0.107500
     23 CAI         1.3240   -3.6420   -4.2270 ca        1 GN8     -0.135000
     24 CAG         0.0030   -3.7930   -3.8060 ca        1 GN8     -0.117000
     25 CAH        -0.5950   -2.8120   -3.0150 ca        1 GN8     -0.135000
     26 HAC         0.6720    2.3140    4.9320 ho        1 GN8      0.477000
     27 HAK         4.3050   -1.0800    2.9880 ha        1 GN8      0.160000
     28 HAJ         5.2740   -1.1530    5.2650 ha        1 GN8      0.159000
     29 HAN         4.2710    0.1810    7.1150 ha        1 GN8      0.177000
     30 HAF         1.1130    0.8260    2.1480 ha        1 GN8      0.181000
     31 HAO1        1.5160    0.6120   -2.7990 h1        1 GN8      0.084700
     32 HAO2        3.0750   -0.1410   -3.4210 h1        1 GN8      0.084700
     33 HAM         3.0950   -2.3930   -4.1850 ha        1 GN8      0.147000
     34 HAI         1.7970   -4.4160   -4.8480 ha        1 GN8      0.135000
     35 HAG        -0.5680   -4.6880   -4.0980 ha        1 GN8      0.133000
     36 HAH        -1.6360   -2.9310   -2.6810 ha        1 GN8      0.135000
     37 HAL        -0.3380   -0.9000   -2.0180 ha        1 GN8      0.147000
@<TRIPOS>BOND
     1    1    2 2   
     2    2    3 1   
     3    2   18 1   
     4    3    4 2   
     5    3   15 1   
     6    4    5 1   
     7    4   30 1   
     8    5    6 ar  
     9    5   14 ar  
    10    6    7 1   
    11    6    8 ar  
    12    7   26 1   
    13    8    9 1   
    14    8   12 ar  
    15    9   10 1   
    16    9   11 1   
    17   12   13 ar  
    18   12   29 1   
    19   13   14 ar  
    20   13   28 1   
    21   14   27 1   
    22   15   16 1   
    23   16   17 2   
    24   16   18 1   
    25   18   19 1   
    26   19   20 1   
    27   19   31 1   
    28   19   32 1   
    29   20   21 ar  
    30   20   22 ar  
    31   21   25 ar  
    32   21   37 1   
    33   22   23 ar  
    34   22   33 1   
    35   23   24 ar  
    36   23   34 1   
    37   24   25 ar  
    38   24   35 1   
    39   25   36 1   
@<TRIPOS>SUBSTRUCTURE
     1 GN8         1 TEMP              0 ****  ****    0 ROOT
