@<TRIPOS>MOLECULE
GN8
   37    39     1     0     0
SMALL
bcc


@<TRIPOS>ATOM
      1 OAA         2.8470   -1.3800    2.4300 o         1 GN8     -0.570500
      2 CAU         1.7220   -1.8830    2.5270 c         1 GN8      0.701700
      3 CAW         0.4910   -1.4130    1.8210 cc        1 GN8     -0.140600
      4 CAF         0.5480   -0.3520    0.9960 cf        1 GN8     -0.007200
      5 CAR        -0.5610    0.2050    0.2490 ca        1 GN8     -0.177800
      6 CAQ        -0.5670    1.5790   -0.1050 ca        1 GN8      0.222100
      7 OAC         0.4030    2.4610    0.2670 oh        1 GN8     -0.445100
      8 CAT        -1.6320    2.0960   -0.8860 ca        1 GN8     -0.223200
      9 NAY        -1.6660    3.5260   -1.2830 no        1 GN8      0.325200
     10 OAD        -0.7690    4.2520   -0.9600 o         1 GN8     -0.198000
     11 OAB        -2.6070    3.9140   -1.9270 o         1 GN8     -0.198000
     12 CAN        -2.6790    1.2530   -1.2940 ca        1 GN8     -0.018000
     13 CAJ        -2.6720   -0.0880   -0.9270 ca        1 GN8     -0.177000
     14 CAK        -1.6280   -0.6030   -0.1630 ca        1 GN8     -0.032000
     15 SAP        -0.8150   -2.3990    2.2680 ss        1 GN8     -0.060200
     16 CAV         0.1180   -3.4200    3.3490 c         1 GN8      0.353000
     17 SAE        -0.5780   -4.5690    4.1120 s         1 GN8     -0.279400
     18 NAX         1.4400   -2.9910    3.3690 n         1 GN8     -0.443400
     19 CAO         2.4830   -3.6680    4.1120 c3        1 GN8      0.139300
     20 CAS         3.2090   -4.7310    3.3420 ca        1 GN8     -0.129300
     21 CAL         4.2160   -4.3710    2.4390 ca        1 GN8     -0.107000
     22 CAM         2.9080   -6.0810    3.5470 ca        1 GN8     -0.107000
     23 CAI         3.6190   -7.0640    2.8590 ca        1 GN8     -0.134500
     24 CAG         4.6250   -6.7040    1.9630 ca        1 GN8     -0.115000
     25 CAH         4.9220   -5.3570    1.7520 ca        1 GN8     -0.134500
     26 HAC         1.0160    2.0300    0.8840 ho        1 GN8      0.436000
     27 HAK        -1.6340   -1.6750    0.1070 ha        1 GN8      0.158000
     28 HAJ        -3.4970   -0.7440   -1.2440 ha        1 GN8      0.157000
     29 HAN        -3.5060    1.6640   -1.9020 ha        1 GN8      0.179000
     30 HAF         1.5370    0.1300    0.8500 ha        1 GN8      0.156000
     31 HAO1        2.0070   -4.1220    5.0320 h1        1 GN8      0.085200
     32 HAO2        3.2230   -2.8760    4.4330 h1        1 GN8      0.085200
     33 HAM         2.1100   -6.3670    4.2500 ha        1 GN8      0.146500
     34 HAI         3.3820   -8.1260    3.0240 ha        1 GN8      0.136000
     35 HAG         5.1840   -7.4810    1.4210 ha        1 GN8      0.134000
     36 HAH         5.7140   -5.0710    1.0450 ha        1 GN8      0.136000
     37 HAL         4.4430   -3.3040    2.2750 ha        1 GN8      0.146500
@<TRIPOS>BOND
     1    1    2 2   
     2    2    3 1   
     3    2   18 1   
     4    3    4 2   
     5    3   15 1   
     6    4    5 1   
     7    4   30 1   
     8    5    6 ar  
     9    5   14 ar  
    10    6    7 1   
    11    6    8 ar  
    12    7   26 1   
    13    8    9 1   
    14    8   12 ar  
    15    9   10 1   
    16    9   11 1   
    17   12   13 ar  
    18   12   29 1   
    19   13   14 ar  
    20   13   28 1   
    21   14   27 1   
    22   15   16 1   
    23   16   17 2   
    24   16   18 1   
    25   18   19 1   
    26   19   20 1   
    27   19   31 1   
    28   19   32 1   
    29   20   21 ar  
    30   20   22 ar  
    31   21   25 ar  
    32   21   37 1   
    33   22   23 ar  
    34   22   33 1   
    35   23   24 ar  
    36   23   34 1   
    37   24   25 ar  
    38   24   35 1   
    39   25   36 1   
@<TRIPOS>SUBSTRUCTURE
     1 GN8         1 TEMP              0 ****  ****    0 ROOT
