@<TRIPOS>MOLECULE
GNA
   44    41     1     0     0
SMALL
bcc


@<TRIPOS>ATOM
      1 C1         -3.8560    0.1190    0.4040 c1        1 GNA      0.353000
      2 C2         -2.3860    0.2460    0.2650 c2        1 GNA     -0.073000
      3 C3         -1.6840    0.1980    1.6250 c3        1 GNA     -0.179000
      4 C4         -0.2040    0.2130    1.5150 c3        1 GNA     -0.030000
      5 C5          0.3110   -0.8360    0.6050 c3        1 GNA     -0.030000
      6 C6         -0.3480   -0.8260   -0.7270 c3        1 GNA     -0.008000
      7 C7          0.0770    0.4300   -1.4770 c3        1 GNA      0.009000
      8 C8          0.6720    0.0430   -2.8160 c3        1 GNA      0.001000
      9 C9          1.1160    1.2970   -3.5530 c3        1 GNA     -0.060000
     10 C10         1.1940   -2.9160    1.7190 c1        1 GNA      0.292000
     11 C11         0.9620   -4.2680    2.3850 c2        1 GNA     -0.242000
     12 N5          0.0880   -2.1640    1.2340 n3        1 GNA     -0.346000
     13 N4          0.2250    1.5460    1.0030 n3        1 GNA     -0.325000
     14 C12         0.9220    2.4830    1.8870 c2        1 GNA      0.148000
     15 N6          1.1850    2.1440    3.1250 n1        1 GNA     -0.371000
     16 N7          1.3200    3.7810    1.3940 n3        1 GNA     -0.322000
     17 O1A        -4.4090   -1.0190    0.2810 o         1 GNA     -0.555000
     18 O1B        -4.5430    1.1180    0.7380 o         1 GNA     -0.555000
     19 O6         -1.8070   -0.8510   -0.6400 os        1 GNA     -0.257000
     20 O7         -1.0380    1.2510   -1.6830 oh        1 GNA     -0.342000
     21 O8          1.7740   -0.7960   -2.6140 oh        1 GNA     -0.326000
     22 O9          1.5490    0.9510   -4.8560 oh        1 GNA     -0.348000
     23 O10         2.3190   -2.4750    1.6180 o         1 GNA     -0.396000
     24 H2         -2.3090    1.1220   -0.1440 h4        1 GNA      0.069000
     25 H31        -1.9600   -0.6310    2.0970 hc        1 GNA      0.109000
     26 H32        -1.9660    0.9670    2.1510 hc        1 GNA      0.109000
     27 H4          0.1810    0.0760    2.4050 h1        1 GNA      0.104000
     28 H5          1.2730   -0.7020    0.4820 h1        1 GNA      0.119000
     29 H6         -0.0500   -1.6110   -1.2320 h1        1 GNA      0.127000
     30 H7          0.7500    0.9160   -0.9480 h1        1 GNA      0.129000
     31 H8          0.0010   -0.4250   -3.3470 h1        1 GNA      0.097000
     32 H91         0.3630    1.9250   -3.6130 h1        1 GNA      0.084000
     33 H92         1.8530    1.7180   -3.0650 h1        1 GNA      0.084000
     34 H111        0.4780   -4.8600    1.7660 ha        1 GNA      0.101333
     35 H112        1.8250   -4.6720    2.6140 ha        1 GNA      0.101333
     36 H113        0.4340   -4.1440    3.1990 ha        1 GNA      0.101333
     37 HN5        -0.7580   -2.5000    1.3030 hn        1 GNA      0.244000
     38 HN4         0.0390    1.7830    0.1480 hn        1 GNA      0.218000
     39 HN6         0.9340    1.3230    3.4370 DU        1 GNA      0.176000
     40 HN71        0.7700    4.2420    0.8130 hn        1 GNA      0.175500
     41 HN72        2.1300    4.1420    1.6470 hn        1 GNA      0.175500
     42 HO7        -1.2340    1.2720   -2.5450 ho        1 GNA      0.233000
     43 HO8         1.9170   -1.2780   -3.3460 ho        1 GNA      0.211000
     44 HO9         1.8880    1.6700   -5.2570 ho        1 GNA      0.198000
@<TRIPOS>BOND
     1    1   17 1   
     2    1   18 1   
     3    2    3 1   
     4    2   19 1   
     5    2   24 1   
     6    3    4 1   
     7    3   25 1   
     8    3   26 1   
     9    4    5 1   
    10    4   13 1   
    11    4   27 1   
    12    5    6 1   
    13    5   12 1   
    14    5   28 1   
    15    6    7 1   
    16    6   19 1   
    17    6   29 1   
    18    7    8 1   
    19    7   20 1   
    20    7   30 1   
    21    8    9 1   
    22    8   21 1   
    23    8   31 1   
    24    9   22 1   
    25    9   32 1   
    26    9   33 1   
    27   10   12 1   
    28   10   23 1   
    29   11   34 1   
    30   11   35 1   
    31   11   36 1   
    32   12   37 1   
    33   13   14 1   
    34   13   38 1   
    35   14   15 1   
    36   14   16 1   
    37   16   40 1   
    38   16   41 1   
    39   20   42 1   
    40   21   43 1   
    41   22   44 1   
@<TRIPOS>SUBSTRUCTURE
     1 GNA         1 TEMP              0 ****  ****    0 ROOT
