@<TRIPOS>MOLECULE
GNA
   44    44     1     0     0
SMALL
bcc


@<TRIPOS>ATOM
      1 C1         -2.9200    0.1800    0.4210 c         1 GNA      0.910600
      2 C2         -1.9860   -1.0160    0.1000 c3        1 GNA      0.015100
      3 C3         -1.4810   -1.0150   -1.3350 c3        1 GNA     -0.116400
      4 C4         -0.3330   -0.0210   -1.5610 c3        1 GNA      0.179500
      5 C5          0.7680   -0.2660   -0.4650 c3        1 GNA      0.062700
      6 C6          0.0620   -0.1030    0.9050 c3        1 GNA      0.092100
      7 C7          0.9910   -0.2760    2.1150 c3        1 GNA      0.127100
      8 C8          0.1810   -0.0970    3.4150 c3        1 GNA      0.089100
      9 C9          1.1180   -0.1160    4.6270 c3        1 GNA      0.136400
     10 C11         3.9810    1.4120   -1.6670 c3        1 GNA     -0.176100
     11 N5          1.9100    0.6080   -0.5950 n         1 GNA     -0.528900
     12 N4          0.2910   -0.0990   -2.8750 nh        1 GNA     -0.806200
     13 C12        -0.4670    0.2270   -4.0420 c2        1 GNA      0.743100
     14 N6         -1.4640    1.0750   -3.9760 n2        1 GNA     -0.848100
     15 N7         -0.0330   -0.4070   -5.2680 nh        1 GNA     -0.938800
     16 O1A        -4.0430    0.1810   -0.1450 o         1 GNA     -0.832800
     17 O1B        -2.5300    1.0620    1.2420 o         1 GNA     -0.832800
     18 O6         -0.9010   -1.1470    1.0220 os        1 GNA     -0.433600
     19 O7          1.6290   -1.5410    2.1190 oh        1 GNA     -0.608800
     20 O8         -0.4780    1.1540    3.4500 oh        1 GNA     -0.644800
     21 O9          0.4040    0.0170    5.8400 oh        1 GNA     -0.620800
     22 O10         3.0570   -0.7740   -2.0450 o         1 GNA     -0.639100
     23 H2         -2.5750   -1.9600    0.2840 h1        1 GNA      0.065700
     24 H31        -2.3450   -0.7410   -1.9970 hc        1 GNA      0.054700
     25 H32        -1.1370   -2.0480   -1.6040 hc        1 GNA      0.054700
     26 H4         -0.7480    1.0220   -1.4270 h1        1 GNA      0.104700
     27 H5          1.1400   -1.3310   -0.5470 h1        1 GNA      0.084700
     28 H6         -0.4420    0.9050    0.9550 h1        1 GNA      0.115700
     29 H7          1.8280    0.4730    2.0760 h1        1 GNA      0.071700
     30 H8         -0.5690   -0.9340    3.4940 h1        1 GNA      0.061700
     31 H91         1.6450   -1.1030    4.6870 h1        1 GNA      0.042700
     32 H92         1.8680    0.7150    4.5430 h1        1 GNA      0.042700
     33 H111        4.7810    1.0240   -2.3410 hc        1 GNA      0.057700
     34 H112        3.5170    2.3150   -2.1340 hc        1 GNA      0.057700
     35 H113        4.4360    1.7000   -0.6900 hc        1 GNA      0.057700
     36 HN5         1.7560    1.5580   -0.3470 hn        1 GNA      0.302500
     37 HN4         0.8260   -0.9440   -2.9700 hn        1 GNA      0.400800
     38 HN6        -1.8830    1.3030   -4.8510 hn        1 GNA      0.377400
     39 HN71       -0.0510    0.2170   -6.0460 hn        1 GNA      0.374300
     40 HN72        0.8460   -0.8770   -5.2090 hn        1 GNA      0.374300
     41 HO7         0.9390   -2.2020    1.9680 ho        1 GNA      0.414000
     42 HO8        -1.2430    1.1000    2.8450 ho        1 GNA      0.475000
     43 HO9        -0.2410    0.7250    5.7070 ho        1 GNA      0.417000
     44 C10         2.9390    0.3320   -1.4720 c         1 GNA      0.664100
@<TRIPOS>BOND
     1    1    2 1   
     2    1   16 1   
     3    1   17 1   
     4    2    3 1   
     5    2   18 1   
     6    2   23 1   
     7    3    4 1   
     8    3   24 1   
     9    3   25 1   
    10    4    5 1   
    11    4   12 1   
    12    4   26 1   
    13    5    6 1   
    14    5   11 1   
    15    5   27 1   
    16    6    7 1   
    17    6   18 1   
    18    6   28 1   
    19    7    8 1   
    20    7   19 1   
    21    7   29 1   
    22    8    9 1   
    23    8   20 1   
    24    8   30 1   
    25    9   21 1   
    26    9   31 1   
    27    9   32 1   
    28   10   33 1   
    29   10   34 1   
    30   10   35 1   
    31   10   44 1   
    32   11   36 1   
    33   11   44 1   
    34   12   13 1   
    35   12   37 1   
    36   13   14 2   
    37   13   15 1   
    38   14   38 1   
    39   15   39 1   
    40   15   40 1   
    41   19   41 1   
    42   20   42 1   
    43   21   43 1   
    44   22   44 2   
@<TRIPOS>SUBSTRUCTURE
     1 GNA         1 TEMP              0 ****  ****    0 ROOT
