@<TRIPOS>MOLECULE
GNA
   47    44     1     0     0
SMALL
bcc


@<TRIPOS>ATOM
      1 C1          1.6840   -1.6680    1.2800 c2        1 GNA      0.299000
      2 C2          2.8880   -2.1900    0.5100 c3        1 GNA     -0.068000
      3 C3          3.2260    1.6950    3.9210 c2        1 GNA     -0.209000
      4 C4          2.1650    0.8840    4.0450 c2        1 GNA     -0.117000
      5 C5          1.6730   -5.0320    0.0920 c3        1 GNA     -0.117000
      6 C6          1.3530   -3.6890   -0.5920 c3        1 GNA     -0.045000
      7 C7          0.8960   -3.8700   -2.0480 c3        1 GNA      0.035000
      8 C8          0.7500   -2.4520   -2.6800 c3        1 GNA     -0.080000
      9 C9          0.2380   -2.5630   -4.0740 c2        1 GNA      0.293000
     10 C11         2.4390   -6.4760    4.0030 c3        1 GNA     -0.232000
     11 N5          1.5690   -5.0250    1.5360 n8        1 GNA     -0.406000
     12 N4          0.9740    1.2400    4.7050 n7        1 GNA     -0.284000
     13 C12        -0.3030    0.9160    4.1940 c2        1 GNA      0.126000
     14 N6         -1.4730    1.2360    4.6500 n2        1 GNA     -0.270000
     15 N7         -0.3340   -0.0130    3.0120 nz        1 GNA     -0.064000
     16 O1A         1.4930   -2.0630    2.4730 o         1 GNA     -0.594500
     17 O1B         0.8620   -0.8720    0.7250 o         1 GNA     -0.594500
     18 O6          2.5240   -2.8800   -0.6830 os        1 GNA     -0.299000
     19 O7          1.7800   -4.6220   -2.8400 oh        1 GNA     -0.315000
     20 O8         -0.1740   -1.6520   -1.9770 oh        1 GNA     -0.367000
     21 O9         -0.7660   -1.8770   -4.5090 oh        1 GNA     -0.079000
     22 O10         3.4510   -7.1700    1.7360 o         1 GNA      0.094000
     23 H2          3.5070   -2.8720    1.1480 h1        1 GNA      0.112000
     24 H31         3.5170   -1.3340    0.1430 h1        1 GNA      0.112000
     25 H32         4.1620    1.3250    3.4820 ha        1 GNA      0.143500
     26 H4          3.2500    2.7410    4.2580 ha        1 GNA      0.143500
     27 H5          2.2060   -0.1750    3.7100 h4        1 GNA      0.166000
     28 H6          0.9870   -5.8200   -0.3280 h1        1 GNA      0.116000
     29 H7          0.5270   -3.1500   -0.0420 h1        1 GNA      0.131000
     30 H8         -0.0890   -4.4160   -2.0760 h1        1 GNA      0.146000
     31 H91         1.7820   -1.9750   -2.7150 h1        1 GNA      0.193000
     32 H92         0.6980   -3.2570   -4.8220 h4        1 GNA      0.256000
     33 H111        1.3270   -6.6730    4.0280 hc        1 GNA      0.212000
     34 H112        2.6110   -5.3760    4.2060 hc        1 GNA      0.212000
     35 H113        2.9390   -7.0830    4.8160 hc        1 GNA      0.212000
     36 HN5         1.9460   -4.1690    1.9170 hn        1 GNA      0.177000
     37 HN4         2.7320   -5.3140   -0.1750 h1        1 GNA      0.116000
     38 HN6        -1.5310    1.8330    5.4460 hn        1 GNA      0.221000
     39 HN71       -1.3000   -0.1820    2.7160 hn        1 GNA      0.281667
     40 HN72        0.1170   -0.9230    3.2490 hn        1 GNA      0.281667
     41 HO7         2.6870   -4.4230   -2.5620 ho        1 GNA      0.243000
     42 HO8         0.2790   -1.2610   -1.1980 ho        1 GNA      0.310000
     43 HO9        -1.1730   -1.2710   -3.8280 ho        1 GNA      0.334000
     44 C10         2.9710   -6.8290    2.7310 c1        1 GNA      0.468000
     45 H52         0.6060   -5.0800    1.8150 hn        1 GNA      0.177000
     46 H42         1.0000    2.1080    5.2080 hn        1 GNA      0.247000
     47 H73         0.1980    0.3770    2.2130 hn        1 GNA      0.281667
@<TRIPOS>BOND
     1    1    2 1   
     2    1   16 1   
     3    1   17 1   
     4    2   18 1   
     5    2   23 1   
     6    2   24 1   
     7    3    4 1   
     8    3   25 1   
     9    3   26 1   
    10    4   12 1   
    11    4   27 1   
    12    5    6 1   
    13    5   11 1   
    14    5   28 1   
    15    5   37 1   
    16    6    7 1   
    17    6   18 1   
    18    6   29 1   
    19    7    8 1   
    20    7   19 1   
    21    7   30 1   
    22    8    9 1   
    23    8   20 1   
    24    8   31 1   
    25    9   21 1   
    26    9   32 1   
    27   10   33 1   
    28   10   34 1   
    29   10   35 1   
    30   10   44 1   
    31   11   36 1   
    32   11   45 1   
    33   12   13 1   
    34   12   46 1   
    35   13   14 1   
    36   13   15 1   
    37   14   38 1   
    38   15   39 1   
    39   15   40 1   
    40   15   47 1   
    41   19   41 1   
    42   20   42 1   
    43   21   43 1   
    44   22   44 1   
@<TRIPOS>SUBSTRUCTURE
     1 GNA         1 TEMP              0 ****  ****    0 ROOT
