@<TRIPOS>MOLECULE
GNA
   47    44     1     0     0
SMALL
bcc


@<TRIPOS>ATOM
      1 C1          0.8930   -2.0850    0.3540 c2        1 GNA      0.282000
      2 C2          1.2200   -0.8970   -0.5260 c2        1 GNA      0.180000
      3 C3          0.7940    1.5030    2.6900 c3        1 GNA     -0.251000
      4 C4          1.0060    0.3600    3.6670 c3        1 GNA     -0.064000
      5 C5          1.9510   -5.2960    0.0980 c2        1 GNA     -0.154000
      6 C6          1.3380   -5.1660   -1.0890 c2        1 GNA     -0.127000
      7 C7          2.0060   -5.1650   -2.4210 c3        1 GNA      0.056000
      8 C8          1.7780   -3.7410   -3.0270 c3        1 GNA     -0.080000
      9 C9          2.2040   -3.7090   -4.4570 c2        1 GNA      0.293000
     10 C11        -0.0010   -6.9030    2.4800 c3        1 GNA     -0.255000
     11 N5          1.2510   -5.0050    1.3420 n4        1 GNA     -0.090000
     12 N4          2.0190    0.5810    4.6770 n3        1 GNA     -0.306000
     13 C12         1.8700    1.4500    5.7450 cz        1 GNA      0.384000
     14 N6          2.9320    1.6700    6.5950 n3        1 GNA     -0.363500
     15 N7          0.6680    2.0680    5.9940 n3        1 GNA     -0.363500
     16 O1A         1.4140   -2.1990    1.5040 o         1 GNA     -0.581000
     17 O1B         0.1380   -2.9900   -0.1220 o         1 GNA     -0.581000
     18 O6          1.6140   -1.0780   -1.6840 o         1 GNA     -0.345000
     19 O7          3.3810   -5.4530   -2.4500 oh        1 GNA     -0.301000
     20 O8          0.4140   -3.3850   -3.0160 oh        1 GNA     -0.353000
     21 O9          1.4640   -3.2010   -5.3840 oh        1 GNA     -0.075000
     22 O10         2.3500   -6.3700    2.8630 o         1 GNA     -0.179000
     23 H2          0.0230    1.1840    1.9440 hc        1 GNA      0.100000
     24 H31         1.0910    0.1150   -0.0900 h4        1 GNA      0.115000
     25 H32         1.7350    1.7470    2.1390 hc        1 GNA      0.100000
     26 H4          0.4300    2.4300    3.1940 hc        1 GNA      0.100000
     27 H5          0.0310    0.1010    4.1740 h1        1 GNA      0.140000
     28 H6          3.0090   -5.5830    0.2500 hx        1 GNA      0.194000
     29 H7          0.2480   -4.9470   -1.1640 ha        1 GNA      0.202000
     30 H8          1.5320   -5.9520   -3.0810 h1        1 GNA      0.170000
     31 H91         2.4090   -2.9830   -2.4600 h1        1 GNA      0.197000
     32 H92         3.1850   -4.1210   -4.8010 h4        1 GNA      0.254000
     33 H111       -0.8040   -6.2220    2.8630 hc        1 GNA      0.151667
     34 H112       -0.3340   -7.3510    1.5090 hc        1 GNA      0.151667
     35 H113        0.1570   -7.7290    3.2230 hc        1 GNA      0.151667
     36 HN5         0.2800   -4.6980    1.1310 hn        1 GNA      0.295500
     37 HN4         1.3340   -0.5620    3.0870 h1        1 GNA      0.140000
     38 HN6         3.8050    1.2150    6.4520 hn        1 GNA      0.278500
     39 HN71        2.8290    2.2360    7.4080 hn        1 GNA      0.278500
     40 HN72        0.5360    2.6230    6.8100 hn        1 GNA      0.278500
     41 HO7         3.8200   -4.9880   -1.7240 ho        1 GNA      0.224000
     42 HO8         0.2300   -2.8860   -2.1880 ho        1 GNA      0.308000
     43 HO9         0.5860   -2.8490   -5.0570 ho        1 GNA      0.338000
     44 C10         1.2810   -6.1640    2.3080 c2        1 GNA      0.268000
     45 H52         1.7140   -4.1590    1.7600 hn        1 GNA      0.295500
     46 H42         2.9420    0.2680    4.4540 hn        1 GNA      0.267000
     47 H73        -0.1020    1.9510    5.3730 hn        1 GNA      0.278500
@<TRIPOS>BOND
     1    1    2 1   
     2    1   16 1   
     3    1   17 1   
     4    2   18 1   
     5    2   24 1   
     6    3    4 1   
     7    3   23 1   
     8    3   25 1   
     9    3   26 1   
    10    4   12 1   
    11    4   27 1   
    12    4   37 1   
    13    5    6 1   
    14    5   11 1   
    15    5   28 1   
    16    6    7 1   
    17    6   29 1   
    18    7    8 1   
    19    7   19 1   
    20    7   30 1   
    21    8    9 1   
    22    8   20 1   
    23    8   31 1   
    24    9   21 1   
    25    9   32 1   
    26   10   33 1   
    27   10   34 1   
    28   10   35 1   
    29   10   44 1   
    30   11   36 1   
    31   11   44 1   
    32   11   45 1   
    33   12   13 1   
    34   12   46 1   
    35   13   14 1   
    36   13   15 1   
    37   14   38 1   
    38   14   39 1   
    39   15   40 1   
    40   15   47 1   
    41   19   41 1   
    42   20   42 1   
    43   21   43 1   
    44   22   44 1   
@<TRIPOS>SUBSTRUCTURE
     1 GNA         1 TEMP              0 ****  ****    0 ROOT
