@<TRIPOS>MOLECULE
GNB
   58    58     1     0     0
SMALL
bcc


@<TRIPOS>ATOM
      1 C           0.9630   -1.2180    1.6450 c2        1 GNB      0.361000
      2 OT1         0.2900   -0.2000    1.4050 o         1 GNB     -0.489000
      3 OT2         1.1000   -1.8480    2.7260 o         1 GNB     -0.489000
      4 N           1.1490   -1.3950   -0.8610 nz        1 GNB     -0.046000
      5 CA          1.7880   -1.8190    0.4170 c3        1 GNB     -0.217000
      6 CB          3.2490   -1.3880    0.5080 c3        1 GNB     -0.167000
      7 CB2         1.9410   -6.0390    3.7260 c3        1 GNB     -0.304000
      8 SG2         2.3500   -5.4270    5.3230 ss        1 GNB      0.037000
      9 CG          3.8790   -1.7840    1.8310 c3        1 GNB     -0.180000
     10 CD          3.9640   -3.2830    1.9630 c2        1 GNB      0.270000
     11 OE          4.7690   -4.0100    1.3900 o         1 GNB     -0.228000
     12 N2          2.9560   -3.9230    2.8620 ny        1 GNB     -0.137000
     13 CA2         2.7600   -5.3850    2.6110 c3        1 GNB     -0.078000
     14 C2          2.0320   -5.5720    1.2650 c2        1 GNB      0.278000
     15 O2          0.7970   -5.4310    1.1830 o         1 GNB     -0.345000
     16 N3          2.7960   -5.8410    0.1530 ns        1 GNB     -0.365000
     17 CA3         2.1960   -5.9130   -1.1500 c3        1 GNB     -0.053000
     18 C3          1.6400   -4.5600   -1.5720 c2        1 GNB      0.290000
     19 O31         0.3710   -4.2060   -1.2380 oh        1 GNB     -0.325000
     20 O32         2.2510   -3.6610   -2.1570 o         1 GNB     -0.343000
     21 CD2         4.0720   -6.0520    5.5480 c3        1 GNB      0.097000
     22 OZ1         4.8780   -5.3660    4.6200 oh        1 GNB     -0.393000
     23 CG2         4.9330   -6.1050    9.0540 c2        1 GNB     -0.997000
     24 Cl1         4.0950   -5.1270   10.1320 cl        1 GNB      0.855500
     25 Cl2         6.4770   -6.4820    9.5950 cl        1 GNB      0.855500
     26 CM1         4.4160   -5.5720   11.8310 c2        1 GNB     -0.175500
     27 CM2         6.5100   -6.7710   11.3580 c2        1 GNB     -0.175500
     28 CZ          5.5010   -6.3520   12.2140 c2        1 GNB     -0.219000
     29 OH1         4.5860   -5.6960    6.7790 os        1 GNB     -0.309000
     30 CH          4.3440   -6.6580    7.8660 c3        1 GNB      0.148000
     31 N7          5.6280   -6.7080   13.6770 no        1 GNB      0.547000
     32 O8          6.5720   -7.3600   14.0260 o         1 GNB     -0.344500
     33 O9          4.7780   -6.3300   14.4330 o         1 GNB     -0.344500
     34 H11N        1.8100   -1.4390   -1.6400 hn        1 GNB      0.261667
     35 H12N        0.7840   -0.4360   -0.7280 hn        1 GNB      0.261667
     36 HA1         1.7160   -2.9450    0.4550 hx        1 GNB      0.102000
     37 HB1         3.3170   -0.2670    0.4320 hc        1 GNB      0.123000
     38 HB2         3.8400   -1.8310   -0.3390 hc        1 GNB      0.123000
     39 HB21        0.8450   -5.8210    3.5910 h1        1 GNB      0.162000
     40 HB22        2.0810   -7.1460    3.6490 h1        1 GNB      0.162000
     41 HG1         3.3030   -1.3220    2.6840 hc        1 GNB      0.167500
     42 HG2         4.9350   -1.3920    1.8650 hc        1 GNB      0.167500
     43 HN21        3.2610   -3.8320    3.8630 hn        1 GNB      0.311500
     44 HA2         3.7920   -5.8600    2.5940 hx        1 GNB      0.176000
     45 HN3        -0.0750   -4.9060   -0.7270 ho        1 GNB      0.284000
     46 HA31        1.3550   -6.6670   -1.1470 h1        1 GNB      0.149000
     47 HA32        2.9740   -6.2310   -1.9020 h1        1 GNB      0.149000
     48 HD2         4.0740   -7.1520    5.3330 h3        1 GNB      0.106000
     49 HOZ1        5.6920   -5.0750    5.0630 ho        1 GNB      0.255000
     50 HL1         3.3980   -4.2290    9.4600 ha        1 GNB     -0.167000
     51 HL2         7.3190   -6.4530    8.5780 ha        1 GNB     -0.167000
     52 HM1         3.7160   -5.1950   12.6000 h4        1 GNB      0.177500
     53 HM2         7.3900   -7.3000   11.7690 h4        1 GNB      0.177500
     54 HC1         4.8180   -7.6270    7.5510 h1        1 GNB      0.078000
     55 HC2         3.2300   -6.7820    7.9440 h1        1 GNB      0.078000
     56 HN31        0.3630   -2.0250   -1.0620 hn        1 GNB      0.261667
     57 H22         2.0350   -3.4030    2.7710 hn        1 GNB      0.311500
     58 H32         3.7880   -5.9020    0.2230 hn        1 GNB      0.269000
@<TRIPOS>BOND
     1    1    2 1   
     2    1    3 1   
     3    1    5 1   
     4    4    5 1   
     5    4   34 1   
     6    4   35 1   
     7    4   56 1   
     8    5    6 1   
     9    5   36 1   
    10    6    9 1   
    11    6   37 1   
    12    6   38 1   
    13    7    8 1   
    14    7   13 1   
    15    7   39 1   
    16    7   40 1   
    17    8   21 1   
    18    9   10 1   
    19    9   41 1   
    20    9   42 1   
    21   10   11 1   
    22   10   12 1   
    23   12   13 1   
    24   12   43 1   
    25   12   57 1   
    26   13   14 1   
    27   13   44 1   
    28   14   15 1   
    29   14   16 1   
    30   16   17 1   
    31   16   58 1   
    32   17   18 1   
    33   17   46 1   
    34   17   47 1   
    35   18   19 1   
    36   18   20 1   
    37   19   45 1   
    38   21   22 1   
    39   21   29 1   
    40   21   48 1   
    41   22   49 1   
    42   23   24 1   
    43   23   25 1   
    44   23   30 1   
    45   24   26 1   
    46   24   50 1   
    47   25   27 1   
    48   25   51 1   
    49   26   28 1   
    50   26   52 1   
    51   27   28 1   
    52   27   53 1   
    53   28   31 1   
    54   29   30 1   
    55   30   54 1   
    56   30   55 1   
    57   31   32 1   
    58   31   33 1   
@<TRIPOS>SUBSTRUCTURE
     1 GNB         1 TEMP              0 ****  ****    0 ROOT
