@<TRIPOS>MOLECULE
GNB
   55    55     1     0     0
SMALL
bcc


@<TRIPOS>ATOM
      1 C          -0.4710    1.0430    0.4440 c2        1 GNB      0.307000
      2 OT1        -1.0400    2.1280    0.7610 o         1 GNB     -0.583000
      3 OT2        -1.0910   -0.0200    0.1590 o         1 GNB     -0.583000
      4 N           1.6960    2.3540    0.4140 n3        1 GNB     -0.322000
      5 CA          1.0900    1.0260    0.3590 c3        1 GNB     -0.127000
      6 CB          1.6590    0.0900    1.4330 c3        1 GNB     -0.124000
      7 CB2         1.1030   -5.4090    3.6730 c3        1 GNB     -0.280000
      8 SG2         1.4130   -5.2190    5.4020 ss        1 GNB      0.056000
      9 CG          1.3990   -1.3540    1.0660 c3        1 GNB     -0.188000
     10 CD          1.9780   -2.3070    2.0910 c2        1 GNB      0.307000
     11 OE          2.7710   -1.9580    2.9890 o         1 GNB     -0.388000
     12 N2          1.5540   -3.6310    2.0020 n         1 GNB     -0.374000
     13 CA2         2.1350   -4.6890    2.7840 c3        1 GNB      0.008000
     14 C2          2.7870   -5.7780    1.8830 c2        1 GNB      0.262000
     15 O2          2.4310   -5.9270    0.6930 o         1 GNB     -0.401000
     16 N3          3.7740   -6.5420    2.4530 n         1 GNB     -0.344000
     17 CA3         4.3140   -7.7040    1.7970 c3        1 GNB     -0.109000
     18 C3          4.6780   -8.8650    2.7480 c2        1 GNB      0.328000
     19 O31         4.2690   -8.8360    3.9570 o         1 GNB     -0.590500
     20 O32         5.3790   -9.7990    2.2870 o         1 GNB     -0.590500
     21 CD2         2.2610   -6.7150    5.9290 c3        1 GNB      0.065000
     22 OZ1         1.9240   -7.9020    5.2910 oh        1 GNB     -0.360000
     23 CG2         5.2140   -7.1990    7.4000 c2        1 GNB     -0.518000
     24 CL1         5.0560   -5.7620    8.3400 cl        1 GNB      0.862500
     25 CL2         6.3790   -8.3030    8.0990 cl        1 GNB      0.862500
     26 CM1         5.8110   -5.7610    9.8680 c2        1 GNB     -0.713500
     27 CM2         7.3040   -7.6910    9.3960 c2        1 GNB     -0.713500
     28 CZ          6.8490   -6.6210   10.1360 c2        1 GNB      0.170000
     29 OH1         3.6420   -6.4730    5.7290 os        1 GNB     -0.299000
     30 CH          4.5180   -7.5000    6.1790 c3        1 GNB     -0.076000
     31 N7          7.6030   -6.3600   11.4260 no        1 GNB      0.545000
     32 O8          8.7810   -6.5930   11.4830 o         1 GNB     -0.386500
     33 O9          7.0100   -5.9270   12.3800 o         1 GNB     -0.386500
     34 H11N        1.0850    2.9810   -0.0830 hn        1 GNB      0.125000
     35 H12N        1.6950    2.6640    1.3700 hn        1 GNB      0.125000
     36 HA1         1.3530    0.6050   -0.6550 h1        1 GNB      0.080000
     37 HB1         2.7640    0.2460    1.5550 hc        1 GNB      0.079500
     38 HB2         1.1800    0.3180    2.4200 hc        1 GNB      0.079500
     39 HB21        1.0500   -6.4970    3.4210 h1        1 GNB      0.130500
     40 HB22        0.0800   -4.9770    3.5260 h1        1 GNB      0.130500
     41 HG1         0.2850   -1.5000    0.9550 hc        1 GNB      0.131500
     42 HG2         1.8690   -1.5890    0.0740 hc        1 GNB      0.131500
     43 HN21        1.0770   -3.9170    1.1760 hn        1 GNB      0.234000
     44 HA2         2.9280   -4.2290    3.4540 h1        1 GNB      0.158000
     45 HN3         3.8990   -6.5060    3.4430 hn        1 GNB      0.233000
     46 HA31        3.5790   -8.0930    1.0370 h1        1 GNB      0.093000
     47 HA32        5.2460   -7.4000    1.2430 h1        1 GNB      0.093000
     48 HD2         2.0000   -6.8300    7.0160 h3        1 GNB      0.111000
     49 HOZ1        2.5290   -8.0680    4.5360 ho        1 GNB      0.283000
     50 HL1         4.4390   -4.6010    8.2080 ha        1 GNB     -0.161500
     51 HL2         6.7800   -9.5510    7.9220 ha        1 GNB     -0.161500
     52 HM1         5.4170   -5.0520   10.5960 h4        1 GNB      0.174500
     53 HM2         8.2580   -8.1850    9.5730 h4        1 GNB      0.174500
     54 HC1         5.2690   -7.6290    5.3180 h1        1 GNB      0.219500
     55 HC2         3.9950   -8.5080    6.2160 h1        1 GNB      0.219500
@<TRIPOS>BOND
     1    1    2 1   
     2    1    3 1   
     3    1    5 1   
     4    4    5 1   
     5    4   34 1   
     6    4   35 1   
     7    5    6 1   
     8    5   36 1   
     9    6    9 1   
    10    6   37 1   
    11    6   38 1   
    12    7    8 1   
    13    7   13 1   
    14    7   39 1   
    15    7   40 1   
    16    8   21 1   
    17    9   10 1   
    18    9   41 1   
    19    9   42 1   
    20   10   11 1   
    21   10   12 1   
    22   12   13 1   
    23   12   43 1   
    24   13   14 1   
    25   13   44 1   
    26   14   15 1   
    27   14   16 1   
    28   16   17 1   
    29   16   45 1   
    30   17   18 1   
    31   17   46 1   
    32   17   47 1   
    33   18   19 1   
    34   18   20 1   
    35   21   22 1   
    36   21   29 1   
    37   21   48 1   
    38   22   49 1   
    39   23   24 1   
    40   23   25 1   
    41   23   30 1   
    42   24   26 1   
    43   24   50 1   
    44   25   27 1   
    45   25   51 1   
    46   26   28 1   
    47   26   52 1   
    48   27   28 1   
    49   27   53 1   
    50   28   31 1   
    51   29   30 1   
    52   30   54 1   
    53   30   55 1   
    54   31   32 1   
    55   31   33 1   
@<TRIPOS>SUBSTRUCTURE
     1 GNB         1 TEMP              0 ****  ****    0 ROOT
