@<TRIPOS>MOLECULE
GNB
   55    55     1     0     0
SMALL
bcc


@<TRIPOS>ATOM
      1 C          67.4330   34.6600   23.5880 c2        1 GNB      0.304000
      2 OT1        68.5680   35.0700   23.2280 o         1 GNB     -0.572000
      3 OT2        66.4370   35.4170   23.7990 o         1 GNB     -0.572000
      4 N          68.1490   32.3070   23.0100 n3        1 GNB     -0.317000
      5 CA         67.2220   33.1260   23.7830 c3        1 GNB     -0.132000
      6 CB         67.2940   32.7860   25.2770 c3        1 GNB     -0.132000
      7 CB2        61.9430   33.3610   25.8130 c3        1 GNB     -0.431000
      8 SG2        62.5440   31.9270   26.6410 s4        1 GNB      0.655000
      9 CG         66.3640   33.6290   26.1250 c3        1 GNB     -0.159000
     10 CD         64.9100   33.3020   25.8590 c2        1 GNB      0.317000
     11 OE         64.3820   32.3560   26.5700 os        1 GNB     -0.432000
     12 N2         64.2070   33.9840   24.9320 n3        1 GNB     -0.299000
     13 CA2        62.8360   33.6610   24.6050 c3        1 GNB     -0.016000
     14 C2         62.0950   34.8120   23.8600 c2        1 GNB      0.285000
     15 O2         62.3350   35.9980   24.1370 o         1 GNB     -0.331000
     16 N3         61.1860   34.4050   22.8830 n         1 GNB     -0.287000
     17 CA3        59.8750   35.0280   22.8730 c3        1 GNB     -0.149000
     18 C3         58.7940   34.2170   23.6440 c2        1 GNB      0.316000
     19 O31        59.1570   33.1780   24.2790 o         1 GNB     -0.575500
     20 O32        57.6120   34.6400   23.5830 o         1 GNB     -0.575500
     21 CD2        61.0960   31.1730   27.0940 c2        1 GNB      0.014000
     22 OZ1        59.9190   31.7930   27.0430 oh        1 GNB     -0.232500
     23 CG2        58.3510   28.5480   29.0580 c2        1 GNB     -0.739000
     24 CL1        58.3110   28.9490   30.7610 cl        1 GNB      0.860000
     25 CL2        58.9070   26.9020   28.8460 cl        1 GNB      0.860000
     26 CM1        59.1430   27.8830   31.7950 c2        1 GNB     -0.728000
     27 CM2        59.0020   25.9520   30.2580 c2        1 GNB     -0.728000
     28 CZ         59.2350   26.5490   31.4740 c2        1 GNB      0.158000
     29 OH1        61.1080   29.9360   27.5890 oh        1 GNB     -0.232500
     30 CH         57.9690   29.3590   28.0790 c2        1 GNB     -0.298000
     31 N7         59.6440   25.6190   32.6040 no        1 GNB      0.532000
     32 O8         59.1960   24.5010   32.6560 o         1 GNB     -0.415500
     33 O9         60.4140   26.0000   33.4500 o         1 GNB     -0.415500
     34 H11N       69.0860   32.5470   23.2880 hn        1 GNB      0.131000
     35 H12N       68.0600   32.5770   22.0460 hn        1 GNB      0.131000
     36 HA1        66.1860   32.8770   23.4120 h1        1 GNB      0.081000
     37 HB1        67.0590   31.7000   25.4310 hc        1 GNB      0.085000
     38 HB2        68.3400   32.9660   25.6450 hc        1 GNB      0.085000
     39 HB21       60.8770   33.2140   25.4440 h1        1 GNB      0.186500
     40 HB22       61.9230   34.2340   26.5110 h1        1 GNB      0.186500
     41 HG1        66.5560   33.4160   27.2100 hc        1 GNB      0.130500
     42 HG2        66.5540   34.7220   25.9260 hc        1 GNB      0.130500
     43 HN21       64.6750   34.7190   24.4010 hn        1 GNB      0.331000
     44 HA2        62.8660   32.7380   23.9450 h1        1 GNB      0.114000
     45 HN3        61.0830   33.4050   22.8430 hn        1 GNB      0.197000
     46 HA31       59.9320   36.0610   23.3100 h1        1 GNB      0.098000
     47 HA32       59.5570   35.1130   21.7990 h1        1 GNB      0.098000
     48 HD2        60.2280   29.6350   27.9190 ho        1 GNB      0.275000
     49 HOZ1       59.1470   31.2040   27.1720 ho        1 GNB      0.275000
     50 HL1        57.7230   29.9510   31.4140 ha        1 GNB     -0.271000
     51 HL2        59.2830   26.2420   27.7520 ha        1 GNB     -0.271000
     52 HM1        59.5780   28.3160   32.6930 h4        1 GNB      0.152000
     53 HM2        58.8630   24.8810   30.1300 h4        1 GNB      0.152000
     54 HC1        57.9590   29.0610   27.0210 ha        1 GNB      0.086000
     55 HC2        57.5540   30.3620   28.2630 ha        1 GNB      0.086000
@<TRIPOS>BOND
     1    1    2 1   
     2    1    3 1   
     3    1    5 1   
     4    4    5 1   
     5    4   34 1   
     6    4   35 1   
     7    5    6 1   
     8    5   36 1   
     9    6    9 1   
    10    6   37 1   
    11    6   38 1   
    12    7    8 1   
    13    7   13 1   
    14    7   39 1   
    15    7   40 1   
    16    8   11 1   
    17    8   21 1   
    18    9   10 1   
    19    9   41 1   
    20    9   42 1   
    21   10   11 1   
    22   10   12 1   
    23   12   13 1   
    24   12   43 1   
    25   13   14 1   
    26   13   44 1   
    27   14   15 1   
    28   14   16 1   
    29   16   17 1   
    30   16   45 1   
    31   17   18 1   
    32   17   46 1   
    33   17   47 1   
    34   18   19 1   
    35   18   20 1   
    36   21   22 1   
    37   21   29 1   
    38   22   49 1   
    39   23   24 1   
    40   23   25 1   
    41   23   30 1   
    42   24   26 1   
    43   24   50 1   
    44   25   27 1   
    45   25   51 1   
    46   26   28 1   
    47   26   52 1   
    48   27   28 1   
    49   27   53 1   
    50   28   31 1   
    51   29   48 1   
    52   30   54 1   
    53   30   55 1   
    54   31   32 1   
    55   31   33 1   
@<TRIPOS>SUBSTRUCTURE
     1 GNB         1 TEMP              0 ****  ****    0 ROOT
