@<TRIPOS>MOLECULE
GNC
   22    21     1     0     0
SMALL
bcc


@<TRIPOS>ATOM
      1 C1          2.5460    1.9030   -0.3350 c3        1 GNC      0.146100
      2 NE2        -3.3630   -0.8650   -0.2570 n         1 GNC     -0.669000
      3 OE1        -4.0860    1.2640    0.0240 o         1 GNC     -0.661100
      4 O           2.6650   -0.1400    1.8250 o         1 GNC     -0.836800
      5 CG         -1.6910    0.9860   -0.1460 c3        1 GNC     -0.151400
      6 CB         -0.6570   -0.0160    0.3110 c3        1 GNC     -0.075400
      7 CD         -3.1170    0.4790   -0.1010 c         1 GNC      0.655100
      8 C           1.6300   -0.5130    1.2080 c         1 GNC      0.929600
      9 CA          0.7090    0.6120    0.6060 c3        1 GNC      0.043500
     10 N           1.2860    1.2520   -0.5720 n3        1 GNC     -0.797200
     11 HC1         2.9730    2.2120   -1.3260 h1        1 GNC      0.026700
     12 HC2         2.4660    2.8230    0.3100 h1        1 GNC      0.026700
     13 HC3         3.2470    1.1840    0.1720 h1        1 GNC      0.026700
     14 HE21       -4.2850   -1.2020   -0.1400 hn        1 GNC      0.306500
     15 HE22       -2.6160   -1.5140   -0.2140 hn        1 GNC      0.306500
     16 HG2        -1.6470    1.9080    0.4920 hc        1 GNC      0.064200
     17 HG3        -1.4940    1.2980   -1.2080 hc        1 GNC      0.064200
     18 HB2        -0.9890   -0.5130    1.2610 hc        1 GNC      0.060200
     19 HB3        -0.5160   -0.8220   -0.4560 hc        1 GNC      0.060200
     20 HA          0.5690    1.3720    1.4350 h1        1 GNC      0.000700
     21 H2          0.6260    1.9260   -0.9230 hn        1 GNC      0.310800
     22 OXT         1.2560   -1.7110    1.0870 o         1 GNC     -0.836800
@<TRIPOS>BOND
     1    1   10 1   
     2    1   11 1   
     3    1   12 1   
     4    1   13 1   
     5    2    7 1   
     6    2   14 1   
     7    2   15 1   
     8    3    7 2   
     9    4    8 1   
    10    5    6 1   
    11    5    7 1   
    12    5   16 1   
    13    5   17 1   
    14    6    9 1   
    15    6   18 1   
    16    6   19 1   
    17    8    9 1   
    18    8   22 1   
    19    9   10 1   
    20    9   20 1   
    21   10   21 1   
@<TRIPOS>SUBSTRUCTURE
     1 GNC         1 TEMP              0 ****  ****    0 ROOT
