@<TRIPOS>MOLECULE
GND
   26    25     1     0     0
SMALL
bcc


@<TRIPOS>ATOM
      1 CA          1.5840    1.4600    2.0800 c3        1 GND     -0.076500
      2 CB          2.4070    0.2620    2.5180 c3        1 GND     -0.086400
      3 CG          1.5700   -0.8180    3.1710 c3        1 GND     -0.101400
      4 CD          2.3800   -2.1130    3.2610 c3        1 GND      0.193800
      5 NE          1.6670   -3.1560    3.9530 nh        1 GND     -0.856200
      6 CZ          2.2870   -4.4370    4.1600 c2        1 GND      0.756100
      7 NH1         1.6880   -5.4500    4.7390 n2        1 GND     -0.878100
      8 NH2         3.6770   -4.5490    3.8290 nh        1 GND     -0.886800
      9 C           0.5360    0.9910    0.9520 c         1 GND      0.935600
     10 OXT         1.0450    0.6740   -0.1340 o         1 GND     -0.755800
     11 O          -0.6690    1.0060    1.3190 o         1 GND     -0.755800
     12 N           0.8320    2.0990    3.2030 n4        1 GND     -0.835600
     13 HA          2.2550    2.2360    1.6200 hx        1 GND      0.091700
     14 HB1         2.8750   -0.1400    1.5750 hc        1 GND      0.069200
     15 HB2         3.2360    0.5750    3.2060 hc        1 GND      0.069200
     16 HG1         1.2560   -0.5010    4.2000 hc        1 GND      0.056200
     17 HG2         0.6380   -0.9810    2.5640 hc        1 GND      0.056200
     18 HD1         2.6610   -2.4200    2.2090 h1        1 GND      0.043700
     19 HD2         3.3350   -1.9040    3.8240 h1        1 GND      0.043700
     20 HE          0.7090   -3.2290    3.6750 hn        1 GND      0.401800
     21 HH11        0.7550   -5.2910    5.0490 hn        1 GND      0.395400
     22 HH21        3.8660   -4.2840    2.8850 hn        1 GND      0.393300
     23 HH22        4.0540   -5.4490    4.0450 hn        1 GND      0.393300
     24 HN1         1.1670    1.7800    4.1080 hn        1 GND      0.444800
     25 HN2        -0.1690    1.8130    3.0730 hn        1 GND      0.444800
     26 HN3         0.8940    3.1110    3.1450 hn        1 GND      0.444800
@<TRIPOS>BOND
     1    1    2 1   
     2    1    9 1   
     3    1   12 1   
     4    1   13 1   
     5    2    3 1   
     6    2   14 1   
     7    2   15 1   
     8    3    4 1   
     9    3   16 1   
    10    3   17 1   
    11    4    5 1   
    12    4   18 1   
    13    4   19 1   
    14    5    6 1   
    15    5   20 1   
    16    6    7 2   
    17    6    8 1   
    18    7   21 1   
    19    8   22 1   
    20    8   23 1   
    21    9   10 1   
    22    9   11 1   
    23   12   24 1   
    24   12   25 1   
    25   12   26 1   
@<TRIPOS>SUBSTRUCTURE
     1 GND         1 TEMP              0 ****  ****    0 ROOT
