@<TRIPOS>MOLECULE
GNE
   37    40     1     0     0
SMALL
bcc


@<TRIPOS>ATOM
      1 P           2.4830   -1.9110   -4.5090 p5        1 GNE      1.430800
      2 OP1         2.0210   -0.6880   -5.4940 oh        1 GNE     -0.787400
      3 OP2         3.5260   -2.7260   -5.1590 o         1 GNE     -0.842500
      4 OP3         1.1840   -2.3860   -3.9780 o         1 GNE     -0.842500
      5 O5'         3.1920   -1.0200   -3.3140 os        1 GNE     -0.579200
      6 C5'         2.3550   -0.2350   -2.5200 c3        1 GNE      0.186400
      7 C4'         2.3910   -0.7280   -1.0660 c3        1 GNE      0.087100
      8 O4'         2.4130    0.3950   -0.1730 os        1 GNE     -0.440600
      9 C3'         1.1760   -1.6010   -0.6900 c3        1 GNE      0.099100
     10 O3'         1.5590   -2.6970    0.1280 oh        1 GNE     -0.607800
     11 C2'         0.2550   -0.6470    0.0730 c3        1 GNE     -0.140400
     12 C1'         1.1980    0.4470    0.6230 c3        1 GNE      0.267800
     13 N9          0.6330    1.7630    0.6600 nh        1 GNE     -0.121600
     14 C8         -0.5650    2.2140    0.0400 c1        1 GNE      0.041400
     15 N7         -0.7950    3.5160    0.3440 ne        1 GNE     -0.615000
     16 C5          0.2470    3.9330    1.1650 cc        1 GNE     -0.058600
     17 C6          0.4940    5.2290    1.7610 c         1 GNE      0.644500
     18 O6         -0.1780    6.2770    1.6930 o         1 GNE     -0.677500
     19 N1          1.6810    5.2540    2.5430 n         1 GNE     -0.157200
     20 C2          2.5380    4.0950    2.6900 cc        1 GNE      0.001400
     21 N2          3.6390    4.4660    3.5760 na        1 GNE     -0.170100
     22 CM2         3.4700    5.8770    3.7840 cc        1 GNE     -0.258300
     23 N3          2.3300    2.8980    2.1570 nd        1 GNE     -0.258600
     24 C11         2.2930    6.3190    3.2220 cd        1 GNE     -0.074300
     25 C4          1.1750    2.8380    1.3870 cd        1 GNE      0.021500
     26 H5'         2.7430    0.8230   -2.5380 h1        1 GNE      0.038200
     27 H5''        1.3030   -0.2560   -2.9170 h1        1 GNE      0.038200
     28 H4'         3.3550   -1.2790   -0.8850 h1        1 GNE      0.066700
     29 H3'         0.6950   -2.0720   -1.5930 h1        1 GNE      0.146700
     30 HA          2.0630   -2.3310    0.8650 ho        1 GNE      0.380000
     31 H2'        -0.5100   -0.2040   -0.6160 hc        1 GNE      0.079700
     32 H2''       -0.2690   -1.1640    0.9100 hc        1 GNE      0.079700
     33 H1'         1.5420    0.1800    1.6700 h2        1 GNE      0.032700
     34 H8          1.1210   -0.4280   -5.3330 ho        1 GNE      0.423000
     35 H2          4.5320    4.2110    3.2020 hn        1 GNE      0.237700
     36 HM2         4.1920    6.4200    4.3890 h4        1 GNE      0.152000
     37 H11         1.8180    7.3010    3.2410 h4        1 GNE      0.175000
@<TRIPOS>BOND
     1    1    2 1   
     2    1    3 1   
     3    1    4 1   
     4    1    5 1   
     5    2   34 1   
     6    5    6 1   
     7    6    7 1   
     8    6   26 1   
     9    6   27 1   
    10    7    8 1   
    11    7    9 1   
    12    7   28 1   
    13    8   12 1   
    14    9   10 1   
    15    9   11 1   
    16    9   29 1   
    17   10   30 1   
    18   11   12 1   
    19   11   31 1   
    20   11   32 1   
    21   12   13 1   
    22   12   33 1   
    23   13   14 2   
    24   13   25 1   
    25   14   15 2   
    26   15   16 1   
    27   16   17 1   
    28   16   25 2   
    29   17   18 2   
    30   17   19 1   
    31   19   20 1   
    32   19   24 1   
    33   20   21 1   
    34   20   23 2   
    35   21   22 1   
    36   21   35 1   
    37   22   24 2   
    38   22   36 1   
    39   23   25 1   
    40   24   37 1   
@<TRIPOS>SUBSTRUCTURE
     1 GNE         1 TEMP              0 ****  ****    0 ROOT
