@<TRIPOS>MOLECULE
GNF
   64    67     1     0     0
SMALL
bcc


@<TRIPOS>ATOM
      1 O11        -0.2940    0.1660   -3.2520 o         1 GNF     -0.607100
      2 C10         0.1010   -0.0150   -2.0840 c         1 GNF      0.657100
      3 C12         1.4760    0.5390   -1.6140 c3        1 GNF      0.145500
      4 N20         2.3370   -0.5590   -1.2110 nh        1 GNF     -0.781200
      5 C21         2.6140   -0.7460    0.1290 cc        1 GNF      0.734500
      6 O29         3.8420   -1.4540    0.3900 os        1 GNF     -0.329700
      7 C28         3.8420   -1.6100    1.7790 ca        1 GNF      0.021100
      8 C27         4.7920   -2.2340    2.5680 ca        1 GNF     -0.104000
      9 C26         4.5390   -2.2400    3.9430 ca        1 GNF     -0.125000
     10 C25         3.3890   -1.6480    4.4800 ca        1 GNF     -0.135000
     11 C24         2.4320   -1.0220    3.6820 ca        1 GNF     -0.087000
     12 C23         2.6510   -0.9970    2.3030 ca        1 GNF      0.088400
     13 N22         1.8970   -0.4640    1.2350 nd        1 GNF     -0.630100
     14 C13         2.0640    1.3830   -2.7540 c3        1 GNF     -0.094400
     15 C14         3.2790    2.1940   -2.3350 c3        1 GNF     -0.068700
     16 C19         4.0280    2.6650   -3.5770 c3        1 GNF     -0.074900
     17 C18         5.2350    3.5010   -3.2080 c3        1 GNF     -0.076400
     18 C17         4.8470    4.6800   -2.3410 c3        1 GNF     -0.077400
     19 C16         4.0890    4.2270   -1.1110 c3        1 GNF     -0.076400
     20 C15         2.8800    3.3920   -1.4830 c3        1 GNF     -0.074900
     21 N9         -0.6470   -0.6870   -1.1480 n         1 GNF     -0.558900
     22 C8         -1.9490   -1.2190   -1.4330 c3        1 GNF      0.079000
     23 C7         -3.0450   -0.6350   -0.5080 c3        1 GNF      0.156800
     24 N          -4.3480   -1.1970   -0.7870 nh        1 GNF     -0.713600
     25 C5         -5.3330   -1.0700    0.2130 ca        1 GNF      0.103600
     26 C4         -6.4100   -1.9910    0.2570 ca        1 GNF     -0.150000
     27 C3         -7.4450   -1.8330    1.1640 ca        1 GNF     -0.145500
     28 C30        -5.3350    0.0050    1.1250 ca        1 GNF     -0.150000
     29 C31        -6.3720    0.1650    2.0400 ca        1 GNF     -0.145500
     30 C2         -7.4270   -0.7500    2.0620 ca        1 GNF      0.086100
     31 O          -8.5040   -0.6950    2.9290 os        1 GNF     -0.328900
     32 C          -8.5360    0.4190    3.8120 c3        1 GNF      0.114700
     33 H12         1.2720    1.2270   -0.7370 h1        1 GNF      0.092700
     34 HN20        3.1010   -0.7590   -1.8240 hn        1 GNF      0.444800
     35 H27         5.6900   -2.6960    2.1390 ha        1 GNF      0.152000
     36 H26         5.2630   -2.7210    4.6170 ha        1 GNF      0.138000
     37 H25         3.2350   -1.6790    5.5700 ha        1 GNF      0.137000
     38 H24         1.5350   -0.5640    4.1200 ha        1 GNF      0.151000
     39 H131        2.3260    0.7150   -3.6180 hc        1 GNF      0.074700
     40 H132        1.2540    2.0720   -3.1160 hc        1 GNF      0.074700
     41 H14         3.9780    1.5500   -1.7320 hc        1 GNF      0.043700
     42 H191        4.3570    1.7750   -4.1750 hc        1 GNF      0.042700
     43 H192        3.3340    3.2660   -4.2210 hc        1 GNF      0.042700
     44 H181        5.9780    2.8630   -2.6610 hc        1 GNF      0.041450
     45 H182        5.7320    3.8690   -4.1430 hc        1 GNF      0.041450
     46 H171        5.7680    5.2380   -2.0310 hc        1 GNF      0.041200
     47 H172        4.2080    5.3860   -2.9340 hc        1 GNF      0.041200
     48 H161        4.7700    3.6260   -0.4520 hc        1 GNF      0.041450
     49 H162        3.7560    5.1220   -0.5230 hc        1 GNF      0.041450
     50 H151        2.1480    4.0250   -2.0510 hc        1 GNF      0.042700
     51 H152        2.3710    3.0410   -0.5480 hc        1 GNF      0.042700
     52 HN9        -0.2990   -0.7990   -0.2250 hn        1 GNF      0.331500
     53 H81        -1.9130   -2.3400   -1.2970 h1        1 GNF      0.065700
     54 H82        -2.2110   -1.0010   -2.5080 h1        1 GNF      0.065700
     55 H71        -3.1170    0.4780   -0.6800 h1        1 GNF      0.044200
     56 H72        -2.7440   -0.7940    0.5690 h1        1 GNF      0.044200
     57 HN         -4.3010   -2.1270   -1.1570 hn        1 GNF      0.386800
     58 H4         -6.4380   -2.8420   -0.4410 ha        1 GNF      0.134500
     59 H3         -8.2820   -2.5450    1.1940 ha        1 GNF      0.142000
     60 H30        -4.5180    0.7430    1.1200 ha        1 GNF      0.134500
     61 H31        -6.3470    1.0160    2.7360 ha        1 GNF      0.142000
     62 H1         -8.5650    1.3780    3.2390 h1        1 GNF      0.041700
     63 H2         -9.4860    0.2730    4.3850 h1        1 GNF      0.041700
     64 H3A        -7.6550    0.4030    4.5000 h1        1 GNF      0.041700
@<TRIPOS>BOND
     1    1    2 2   
     2    2    3 1   
     3    2   21 1   
     4    3    4 1   
     5    3   14 1   
     6    3   33 1   
     7    4    5 1   
     8    4   34 1   
     9    5    6 1   
    10    5   13 2   
    11    6    7 1   
    12    7    8 ar  
    13    7   12 ar  
    14    8    9 ar  
    15    8   35 1   
    16    9   10 ar  
    17    9   36 1   
    18   10   11 ar  
    19   10   37 1   
    20   11   12 ar  
    21   11   38 1   
    22   12   13 1   
    23   14   15 1   
    24   14   39 1   
    25   14   40 1   
    26   15   16 1   
    27   15   20 1   
    28   15   41 1   
    29   16   17 1   
    30   16   42 1   
    31   16   43 1   
    32   17   18 1   
    33   17   44 1   
    34   17   45 1   
    35   18   19 1   
    36   18   46 1   
    37   18   47 1   
    38   19   20 1   
    39   19   48 1   
    40   19   49 1   
    41   20   50 1   
    42   20   51 1   
    43   21   22 1   
    44   21   52 1   
    45   22   23 1   
    46   22   53 1   
    47   22   54 1   
    48   23   24 1   
    49   23   55 1   
    50   23   56 1   
    51   24   25 1   
    52   24   57 1   
    53   25   26 ar  
    54   25   28 ar  
    55   26   27 ar  
    56   26   58 1   
    57   27   30 ar  
    58   27   59 1   
    59   28   29 ar  
    60   28   60 1   
    61   29   30 ar  
    62   29   61 1   
    63   30   31 1   
    64   31   32 1   
    65   32   62 1   
    66   32   63 1   
    67   32   64 1   
@<TRIPOS>SUBSTRUCTURE
     1 GNF         1 TEMP              0 ****  ****    0 ROOT
