@<TRIPOS>MOLECULE
GNF
   64    60     1     0     0
SMALL
bcc


@<TRIPOS>ATOM
      1 O11         0.7870   -2.8890   -1.1540 o         1 GNF     -0.363000
      2 C10         1.0810   -1.7920   -0.7410 c1        1 GNF      0.299000
      3 C12         1.7600   -1.6460    0.5960 c2        1 GNF     -0.007000
      4 N20         0.7770   -1.6790    1.6360 n3        1 GNF     -0.264000
      5 C21         0.2350   -0.4350    2.1630 c2        1 GNF      0.156000
      6 O29        -0.0770   -0.2790    3.4590 os        1 GNF     -0.150000
      7 C28        -0.6880    0.9460    3.6070 c1        1 GNF     -0.023000
      8 C27        -1.1140    1.6560    4.7640 c1        1 GNF     -0.105000
      9 C26        -1.5920    2.9560    4.6470 c1        1 GNF     -0.129500
     10 C25        -1.6550    3.5620    3.4000 c1        1 GNF     -0.129500
     11 C24        -1.2340    2.8610    2.2560 c1        1 GNF     -0.085000
     12 C23        -0.7490    1.5420    2.3760 c1        1 GNF     -0.053000
     13 N22        -0.1830    0.7010    1.4810 n1        1 GNF     -0.200000
     14 C13         2.7490   -2.7880    0.7910 c3        1 GNF     -0.173000
     15 C14         3.4210   -2.6130    1.9560 c3        1 GNF     -0.104000
     16 C19         4.9860   -2.7630    1.7590 c3        1 GNF     -0.149500
     17 C18         5.3860   -4.0960    1.1140 c3        1 GNF     -0.154500
     18 C17         4.4020   -5.0190    1.2310 c3        1 GNF     -0.156000
     19 C16         3.6170   -5.1950    2.3280 c3        1 GNF     -0.154500
     20 C15         3.2380   -3.8740    2.9600 c3        1 GNF     -0.149500
     21 N9          0.7510   -0.6110   -1.5150 n3        1 GNF     -0.362000
     22 C8         -0.4380   -0.5980   -2.3580 c3        1 GNF     -0.040000
     23 C7         -1.2170    0.7370   -2.1420 c3        1 GNF     -0.085000
     24 N          -1.6190    1.2780   -3.4270 n3        1 GNF     -0.269000
     25 C5         -2.7250    2.2760   -3.5030 c2        1 GNF      0.022000
     26 C4         -2.5410    3.4820   -4.2200 c2        1 GNF     -0.153000
     27 C3         -3.5420    4.4640   -4.2070 c1        1 GNF     -0.168000
     28 C30        -3.8950    2.0670   -2.7880 c1        1 GNF     -0.146000
     29 C31        -4.8990    3.0530   -2.7750 c1        1 GNF     -0.123000
     30 C2         -4.7190    4.2510   -3.4870 c1        1 GNF      0.041000
     31 O          -5.6860    5.3000   -3.3700 os        1 GNF     -0.212000
     32 C          -6.2930    5.6550   -4.5890 c3        1 GNF     -0.075000
     33 H12         2.2480   -0.7740    0.6270 h4        1 GNF      0.132000
     34 HN20        0.4920   -2.4540    1.9500 hn        1 GNF      0.239000
     35 H27        -1.0700    1.2210    5.6600 ha        1 GNF      0.152000
     36 H26        -1.8850    3.4460    5.4470 ha        1 GNF      0.138000
     37 H25        -1.9960    4.4890    3.3170 ha        1 GNF      0.138000
     38 H24        -1.2750    3.2750    1.4060 ha        1 GNF      0.151000
     39 H131        3.4020   -2.7970    0.0270 hc        1 GNF      0.116000
     40 H132        2.2800   -3.6120    0.8150 hc        1 GNF      0.116000
     41 H14         3.1870   -1.7590    2.3940 hc        1 GNF      0.083000
     42 H191        5.3030   -2.0320    1.1930 hc        1 GNF      0.078250
     43 H192        5.4120   -2.6950    2.6160 hc        1 GNF      0.078250
     44 H181        6.2180   -4.4430    1.5620 hc        1 GNF      0.079750
     45 H182        5.5760   -3.9470    0.1530 hc        1 GNF      0.079750
     46 H171        4.8220   -5.8830    1.0590 hc        1 GNF      0.083000
     47 H172        3.7840   -4.8500    0.4840 hc        1 GNF      0.083000
     48 H161        2.8130   -5.6620    2.0670 hc        1 GNF      0.079750
     49 H162        4.1070   -5.7430    2.9930 hc        1 GNF      0.079750
     50 H151        3.8110   -3.7280    3.7600 hc        1 GNF      0.078250
     51 H152        2.3230   -3.9160    3.2390 hc        1 GNF      0.078250
     52 HN9         1.3210    0.1270   -1.5020 hn        1 GNF      0.242000
     53 H81        -0.1710   -0.6710   -3.3010 h1        1 GNF      0.106500
     54 H82        -1.0210   -1.3630   -2.1190 h1        1 GNF      0.106500
     55 H71        -2.0070    0.5680   -1.6020 h1        1 GNF      0.085000
     56 H72        -0.6460    1.3770   -1.6860 h1        1 GNF      0.085000
     57 HN         -1.1830    1.0230   -4.1830 hn        1 GNF      0.181000
     58 H4         -1.7110    3.6320   -4.7280 ha        1 GNF      0.131000
     59 H3         -3.4130    5.3060   -4.7080 ha        1 GNF      0.136000
     60 H30        -4.0250    1.2310   -2.2910 ha        1 GNF      0.138000
     61 H31        -5.7120    2.9060   -2.2770 ha        1 GNF      0.148000
     62 H1         -6.8550    6.4560   -4.4560 h1        1 GNF      0.081000
     63 H2         -6.8520    4.9120   -4.9040 h1        1 GNF      0.081000
     64 H3A        -5.5990    5.8500   -5.2570 h1        1 GNF      0.081000
@<TRIPOS>BOND
     1    1    2 1   
     2    2   21 1   
     3    3    4 1   
     4    3   14 1   
     5    3   33 1   
     6    4    5 1   
     7    4   34 1   
     8    5    6 1   
     9    5   13 1   
    10    6    7 1   
    11    7    8 1   
    12    8   35 1   
    13    9   10 1   
    14    9   36 1   
    15   10   37 1   
    16   11   12 1   
    17   11   38 1   
    18   14   15 1   
    19   14   39 1   
    20   14   40 1   
    21   15   16 1   
    22   15   20 1   
    23   15   41 1   
    24   16   17 1   
    25   16   42 1   
    26   16   43 1   
    27   17   18 1   
    28   17   44 1   
    29   17   45 1   
    30   18   19 1   
    31   18   46 1   
    32   18   47 1   
    33   19   20 1   
    34   19   48 1   
    35   19   49 1   
    36   20   50 1   
    37   20   51 1   
    38   21   22 1   
    39   21   52 1   
    40   22   23 1   
    41   22   53 1   
    42   22   54 1   
    43   23   24 1   
    44   23   55 1   
    45   23   56 1   
    46   24   25 1   
    47   24   57 1   
    48   25   26 1   
    49   25   28 1   
    50   26   27 1   
    51   26   58 1   
    52   27   59 1   
    53   28   60 1   
    54   29   30 1   
    55   29   61 1   
    56   30   31 1   
    57   31   32 1   
    58   32   62 1   
    59   32   63 1   
    60   32   64 1   
@<TRIPOS>SUBSTRUCTURE
     1 GNF         1 TEMP              0 ****  ****    0 ROOT
