@<TRIPOS>MOLECULE
GNF
   67    70     1     0     0
SMALL
bcc


@<TRIPOS>ATOM
      1 O11         0.7150   -0.9350    0.7910 o         1 GNF     -0.348100
      2 C10         1.9150   -0.7340    0.8300 c         1 GNF      0.531100
      3 C12         2.8350   -1.0560    2.0180 c3        1 GNF      0.089500
      4 N20         2.2380   -0.5000    3.2850 n4        1 GNF     -0.671000
      5 C21         2.1270    0.9450    3.2370 cc        1 GNF      0.473500
      6 O29         1.9870    1.5790    4.4930 os        1 GNF     -0.235700
      7 C28         1.8920    2.9340    4.1540 ca        1 GNF      0.088100
      8 C27         1.7360    4.0170    5.0090 ca        1 GNF     -0.094000
      9 C26         1.6720    5.2660    4.3900 ca        1 GNF     -0.024000
     10 C25         1.7610    5.4100    2.9890 ca        1 GNF     -0.103000
     11 C24         1.9160    4.3270    2.1350 ca        1 GNF     -0.050000
     12 C23         1.9850    3.0460    2.7150 ca        1 GNF      0.027400
     13 N22         2.1350    1.7640    2.1710 nd        1 GNF     -0.556100
     14 C13         2.9970   -2.5850    2.0880 c3        1 GNF     -0.117400
     15 C14         3.7870   -3.0670    3.3000 c3        1 GNF     -0.087700
     16 C19         3.9730   -4.5810    3.1760 c3        1 GNF     -0.076400
     17 C18         4.7360   -5.1230    4.3680 c3        1 GNF     -0.081400
     18 C17         6.0730   -4.4310    4.5290 c3        1 GNF     -0.087400
     19 C16         5.9090   -2.9290    4.6190 c3        1 GNF     -0.081400
     20 C15         5.1400   -2.3840    3.4290 c3        1 GNF     -0.076400
     21 N9          2.5690   -0.1330   -0.3960 n4        1 GNF     -0.661800
     22 C8          1.7490   -0.3380   -1.6310 c3        1 GNF      0.072800
     23 C7          2.4070    0.2710   -2.8860 c3        1 GNF      0.070800
     24 N           1.6010    0.0470   -4.1240 n4        1 GNF     -0.592400
     25 C5          2.2890    0.5680   -5.3080 ca        1 GNF     -0.190400
     26 C4          3.2850   -0.2190   -5.9350 ca        1 GNF     -0.049500
     27 C3          3.8860    0.2360   -7.0880 ca        1 GNF     -0.168000
     28 C30         1.9130    1.8150   -5.8470 ca        1 GNF     -0.049500
     29 C31         2.5160    2.2700   -7.0080 ca        1 GNF     -0.168000
     30 C2          3.5050    1.4890   -7.6440 ca        1 GNF      0.241100
     31 O           4.1540    1.8300   -8.7780 os        1 GNF     -0.271900
     32 C           3.7860    3.0570   -9.4280 c3        1 GNF      0.097700
     33 H12         3.8570   -0.5720    1.9030 hx        1 GNF      0.154700
     34 HN20        2.8610   -0.7600    4.0820 hn        1 GNF      0.513300
     35 H27         1.6670    3.8970    6.1030 ha        1 GNF      0.204000
     36 H26         1.5480    6.1700    5.0170 ha        1 GNF      0.198000
     37 H25         1.7040    6.4290    2.5620 ha        1 GNF      0.189000
     38 H24         1.9820    4.4660    1.0470 ha        1 GNF      0.160000
     39 H131        1.9870   -3.0800    2.0870 hc        1 GNF      0.098700
     40 H132        3.5410   -2.8980    1.1550 hc        1 GNF      0.098700
     41 H14         3.1890   -2.8840    4.2380 hc        1 GNF      0.054700
     42 H191        2.9710   -5.0790    3.1120 hc        1 GNF      0.040700
     43 H192        4.5370   -4.8110    2.2340 hc        1 GNF      0.040700
     44 H181        4.8980   -6.2250    4.2250 hc        1 GNF      0.069200
     45 H182        4.1250   -4.9940    5.3000 hc        1 GNF      0.069200
     46 H171        6.7400   -4.6880    3.6650 hc        1 GNF      0.073700
     47 H172        6.5770   -4.8050    5.4610 hc        1 GNF      0.073700
     48 H161        6.9190   -2.4410    4.6570 hc        1 GNF      0.069200
     49 H162        5.3710   -2.6640    5.5670 hc        1 GNF      0.069200
     50 H151        5.0080   -1.2760    3.5560 hc        1 GNF      0.040700
     51 H152        5.7380   -2.5530    2.4950 hc        1 GNF      0.040700
     52 HN9         2.6870    0.8820   -0.2230 hn        1 GNF      0.486800
     53 H81         1.6010   -1.4520   -1.7610 hx        1 GNF      0.137700
     54 H82         0.7340    0.1310   -1.4470 hx        1 GNF      0.137700
     55 H71         3.4260   -0.1850   -3.0670 hx        1 GNF      0.130700
     56 H72         2.5390    1.3870   -2.7680 hx        1 GNF      0.130700
     57 HN          1.4430   -0.9610   -4.2620 hn        1 GNF      0.465800
     58 H4          3.5760   -1.2020   -5.5290 ha        1 GNF      0.150500
     59 H3          4.6580   -0.3630   -7.6060 ha        1 GNF      0.197000
     60 H30         1.1320    2.4350   -5.3740 ha        1 GNF      0.150500
     61 H31         2.2110    3.2390   -7.4370 ha        1 GNF      0.197000
     62 H1          4.4560    3.0610  -10.3290 h1        1 GNF      0.081700
     63 H2          4.0060    3.9250   -8.7610 h1        1 GNF      0.081700
     64 H3A         2.7110    3.0280   -9.7270 h1        1 GNF      0.081700
     65 H202        1.2980   -0.9030    3.4570 hn        1 GNF      0.513300
     66 H92         3.5020   -0.5470   -0.5250 hn        1 GNF      0.486800
     67 HN3         0.6880    0.5150   -4.0400 hn        1 GNF      0.465800
@<TRIPOS>BOND
     1    1    2 2   
     2    2    3 1   
     3    2   21 1   
     4    3    4 1   
     5    3   14 1   
     6    3   33 1   
     7    4    5 1   
     8    4   34 1   
     9    4   65 1   
    10    5    6 1   
    11    5   13 2   
    12    6    7 1   
    13    7    8 ar  
    14    7   12 ar  
    15    8    9 ar  
    16    8   35 1   
    17    9   10 ar  
    18    9   36 1   
    19   10   11 ar  
    20   10   37 1   
    21   11   12 ar  
    22   11   38 1   
    23   12   13 1   
    24   14   15 1   
    25   14   39 1   
    26   14   40 1   
    27   15   16 1   
    28   15   20 1   
    29   15   41 1   
    30   16   17 1   
    31   16   42 1   
    32   16   43 1   
    33   17   18 1   
    34   17   44 1   
    35   17   45 1   
    36   18   19 1   
    37   18   46 1   
    38   18   47 1   
    39   19   20 1   
    40   19   48 1   
    41   19   49 1   
    42   20   50 1   
    43   20   51 1   
    44   21   22 1   
    45   21   52 1   
    46   21   66 1   
    47   22   23 1   
    48   22   53 1   
    49   22   54 1   
    50   23   24 1   
    51   23   55 1   
    52   23   56 1   
    53   24   25 1   
    54   24   57 1   
    55   24   67 1   
    56   25   26 ar  
    57   25   28 ar  
    58   26   27 ar  
    59   26   58 1   
    60   27   30 ar  
    61   27   59 1   
    62   28   29 ar  
    63   28   60 1   
    64   29   30 ar  
    65   29   61 1   
    66   30   31 1   
    67   31   32 1   
    68   32   62 1   
    69   32   63 1   
    70   32   64 1   
@<TRIPOS>SUBSTRUCTURE
     1 GNF         1 TEMP              0 ****  ****    0 ROOT
