@<TRIPOS>MOLECULE
GNF
   65    68     1     0     0
SMALL
bcc


@<TRIPOS>ATOM
      1 O11         2.9980   -2.2890   -0.9280 o         1 GNF     -0.408100
      2 C10         2.6860   -1.4220   -0.1290 c         1 GNF      0.532100
      3 C12         3.1320   -1.3490    1.3470 c3        1 GNF      0.149500
      4 N20         2.0560   -0.8690    2.1920 nu        1 GNF     -0.785200
      5 C21         2.0540    0.5010    2.4850 cc        1 GNF      0.677500
      6 O29         1.6920    0.8600    3.8160 os        1 GNF     -0.294700
      7 C28         1.6780    2.2600    3.7880 ca        1 GNF      0.035100
      8 C27         1.3790    3.1330    4.8220 ca        1 GNF     -0.096000
      9 C26         1.4550    4.4920    4.5110 ca        1 GNF     -0.094000
     10 C25         1.8110    4.9380    3.2290 ca        1 GNF     -0.123000
     11 C24         2.1070    4.0570    2.1900 ca        1 GNF     -0.073000
     12 C23         2.0390    2.6880    2.4650 ca        1 GNF      0.064400
     13 N22         2.2630    1.5460    1.6650 nd        1 GNF     -0.655100
     14 C13         3.6460   -2.7440    1.7490 c3        1 GNF     -0.097400
     15 C14         4.4520   -2.7110    3.0380 c3        1 GNF     -0.070700
     16 C19         4.5780   -4.1310    3.5840 c3        1 GNF     -0.074900
     17 C18         5.3920   -4.1530    4.8610 c3        1 GNF     -0.077900
     18 C17         6.7590   -3.5340    4.6570 c3        1 GNF     -0.081400
     19 C16         6.6480   -2.1320    4.0950 c3        1 GNF     -0.077900
     20 C15         5.8360   -2.1140    2.8160 c3        1 GNF     -0.074900
     21 N9          1.8480   -0.2780   -0.6390 ny        1 GNF     -0.665800
     22 C8          1.4540   -0.4220   -2.0690 c3        1 GNF      0.089800
     23 C7          0.6010    0.7770   -2.5480 c3        1 GNF      0.165800
     24 N           0.2760    0.6160   -3.9460 nu        1 GNF     -0.706600
     25 C5          1.2990    1.0300   -4.8560 ca        1 GNF     -0.005400
     26 C4          1.7720    2.3600   -4.9070 ca        1 GNF     -0.095000
     27 C3          2.7480    2.7320   -5.8180 ca        1 GNF     -0.176500
     28 C30         1.8250    0.0860   -5.7550 ca        1 GNF     -0.095000
     29 C31         2.8040    0.4510   -6.6760 ca        1 GNF     -0.176500
     30 C2          3.2690    1.7710   -6.7080 ca        1 GNF      0.147100
     31 O           4.2390    2.2400   -7.5620 os        1 GNF     -0.317900
     32 C           4.7160    1.3260   -8.5470 c3        1 GNF      0.108700
     33 H12         4.0160   -0.6320    1.3400 h1        1 GNF      0.116700
     34 HN20        1.8800   -1.4410    3.0010 hn        1 GNF      0.461800
     35 H27         1.1040    2.7760    5.8240 ha        1 GNF      0.169000
     36 H26         1.2310    5.2340    5.2950 ha        1 GNF      0.159000
     37 H25         1.8580    6.0230    3.0380 ha        1 GNF      0.156000
     38 H24         2.3880    4.4260    1.1930 ha        1 GNF      0.155000
     39 H131        4.2940   -3.1340    0.9170 hc        1 GNF      0.083200
     40 H132        2.7800   -3.4500    1.8560 hc        1 GNF      0.083200
     41 H14         3.9170   -2.0900    3.8100 hc        1 GNF      0.048700
     42 H191        5.0680   -4.7820    2.8130 hc        1 GNF      0.043200
     43 H192        3.5570   -4.5490    3.7840 hc        1 GNF      0.043200
     44 H181        5.5070   -5.2130    5.2070 hc        1 GNF      0.050700
     45 H182        4.8440   -3.5940    5.6650 hc        1 GNF      0.050700
     46 H171        7.3060   -3.5030    5.6360 hc        1 GNF      0.052700
     47 H172        7.3590   -4.1730    3.9570 hc        1 GNF      0.052700
     48 H161        6.1680   -1.4600    4.8540 hc        1 GNF      0.050700
     49 H162        7.6730   -1.7270    3.8880 hc        1 GNF      0.050700
     50 H151        6.3730   -2.7000    2.0250 hc        1 GNF      0.043200
     51 H152        5.7440   -1.0570    2.4530 hc        1 GNF      0.043200
     52 HN9         1.0000   -0.2060   -0.0620 hn        1 GNF      0.475300
     53 H81         0.8760   -1.3840   -2.1810 hx        1 GNF      0.118700
     54 H82         2.3940   -0.5050   -2.6880 hx        1 GNF      0.118700
     55 H71        -0.3590    0.8000   -1.9570 h1        1 GNF      0.048200
     56 H72         1.1680    1.7310   -2.3340 h1        1 GNF      0.048200
     57 HN         -0.5920    1.0730   -4.1630 hn        1 GNF      0.403800
     58 H4          1.3580    3.1230   -4.2290 ha        1 GNF      0.139500
     59 H3          3.1170    3.7670   -5.8670 ha        1 GNF      0.156000
     60 H30         1.4560   -0.9530   -5.7480 ha        1 GNF      0.139500
     61 H31         3.1950   -0.3020   -7.3750 ha        1 GNF      0.156000
     62 H1          3.8780    0.9720   -9.1950 h1        1 GNF      0.053367
     63 H2          5.4410    1.9420   -9.1380 h1        1 GNF      0.053367
     64 H3A         5.2330    0.4640   -8.0620 h1        1 GNF      0.053367
     65 H92         2.3830    0.5960   -0.5190 hn        1 GNF      0.475300
@<TRIPOS>BOND
     1    1    2 2   
     2    2    3 1   
     3    2   21 1   
     4    3    4 1   
     5    3   14 1   
     6    3   33 1   
     7    4    5 1   
     8    4   34 1   
     9    5    6 1   
    10    5   13 2   
    11    6    7 1   
    12    7    8 ar  
    13    7   12 ar  
    14    8    9 ar  
    15    8   35 1   
    16    9   10 ar  
    17    9   36 1   
    18   10   11 ar  
    19   10   37 1   
    20   11   12 ar  
    21   11   38 1   
    22   12   13 1   
    23   14   15 1   
    24   14   39 1   
    25   14   40 1   
    26   15   16 1   
    27   15   20 1   
    28   15   41 1   
    29   16   17 1   
    30   16   42 1   
    31   16   43 1   
    32   17   18 1   
    33   17   44 1   
    34   17   45 1   
    35   18   19 1   
    36   18   46 1   
    37   18   47 1   
    38   19   20 1   
    39   19   48 1   
    40   19   49 1   
    41   20   50 1   
    42   20   51 1   
    43   21   22 1   
    44   21   52 1   
    45   21   65 1   
    46   22   23 1   
    47   22   53 1   
    48   22   54 1   
    49   23   24 1   
    50   23   55 1   
    51   23   56 1   
    52   24   25 1   
    53   24   57 1   
    54   25   26 ar  
    55   25   28 ar  
    56   26   27 ar  
    57   26   58 1   
    58   27   30 ar  
    59   27   59 1   
    60   28   29 ar  
    61   28   60 1   
    62   29   30 ar  
    63   29   61 1   
    64   30   31 1   
    65   31   32 1   
    66   32   62 1   
    67   32   63 1   
    68   32   64 1   
@<TRIPOS>SUBSTRUCTURE
     1 GNF         1 TEMP              0 ****  ****    0 ROOT
