@<TRIPOS>MOLECULE
GNG
   33    35     1     0     0
SMALL
bcc


@<TRIPOS>ATOM
      1 O5'         0.6860   -1.1070    4.2480 oh        1 GNG     -0.673800
      2 C5'         1.1360   -1.0620    2.9000 c3        1 GNG      0.109400
      3 C4'         2.2710   -0.0570    2.7120 c3        1 GNG      0.088100
      4 O4'         3.3170   -0.2990    3.6640 os        1 GNG     -0.426600
      5 C1'         4.5030   -0.7960    3.0270 c3        1 GNG      0.253800
      6 N9          4.6650   -2.2170    3.3080 na        1 GNG     -0.229900
      7 C8          5.5530   -3.1190    2.6660 cc        1 GNG      0.426400
      8 N7          5.4040   -4.3930    3.0810 nd        1 GNG     -0.554000
      9 C5          4.3850   -4.3590    4.0300 cd        1 GNG      0.220800
     10 C4          3.9270   -3.0060    4.1920 cc        1 GNG      0.020000
     11 N3          2.9460   -2.6530    5.1210 na        1 GNG     -0.661600
     12 C2          2.1920   -3.7760    5.5370 cc        1 GNG      0.711100
     13 N1          2.5210   -5.0370    5.4640 nd        1 GNG     -0.646100
     14 C6          3.7300   -5.4410    4.7640 c         1 GNG      0.650000
     15 O6          4.0740   -6.6170    4.8240 o         1 GNG     -0.416100
     16 N2          0.8900   -3.4480    6.2230 n4        1 GNG     -0.814600
     17 C2'         4.3750   -0.4630    1.5250 c3        1 GNG     -0.157400
     18 C3'         2.8900   -0.1440    1.3010 c3        1 GNG      0.131100
     19 O3'         2.7050    1.1240    0.7060 oh        1 GNG     -0.579800
     20 H5'         0.3810   -0.2190    4.4800 ho        1 GNG      0.438000
     21 H5'1        1.4740   -2.1100    2.6800 h1        1 GNG      0.074200
     22 H5'2        0.2850   -0.7860    2.2210 h1        1 GNG      0.074200
     23 H4'         1.9150    0.9910    2.9300 h1        1 GNG      0.118700
     24 H1'         5.3600   -0.2470    3.5250 h2        1 GNG      0.123700
     25 H8          6.2920   -2.7750    1.9300 h5        1 GNG      0.091100
     26 HN3         2.5450   -1.7310    5.0730 hn        1 GNG      0.489800
     27 HN21        0.3520   -2.7940    5.6320 hn        1 GNG      0.485467
     28 HN22        1.0830   -3.0180    7.1340 hn        1 GNG      0.485467
     29 H2'1        4.9990    0.4420    1.3060 hc        1 GNG      0.096200
     30 H2'2        4.7150   -1.2940    0.8630 hc        1 GNG      0.096200
     31 H3'         2.3930   -0.9400    0.6830 h1        1 GNG      0.064700
     32 H1          3.0170    1.0640   -0.2070 ho        1 GNG      0.428000
     33 H23         0.3500   -4.3140    6.3650 hn        1 GNG      0.485467
@<TRIPOS>BOND
     1    1    2 1   
     2    1   20 1   
     3    2    3 1   
     4    2   21 1   
     5    2   22 1   
     6    3    4 1   
     7    3   18 1   
     8    3   23 1   
     9    4    5 1   
    10    5    6 1   
    11    5   17 1   
    12    5   24 1   
    13    6    7 1   
    14    6   10 1   
    15    7    8 2   
    16    7   25 1   
    17    8    9 1   
    18    9   10 2   
    19    9   14 1   
    20   10   11 1   
    21   11   12 1   
    22   11   26 1   
    23   12   13 2   
    24   12   16 1   
    25   13   14 1   
    26   14   15 2   
    27   16   27 1   
    28   16   28 1   
    29   16   33 1   
    30   17   18 1   
    31   17   29 1   
    32   17   30 1   
    33   18   19 1   
    34   18   31 1   
    35   19   32 1   
@<TRIPOS>SUBSTRUCTURE
     1 GNG         1 TEMP              0 ****  ****    0 ROOT
