@<TRIPOS>MOLECULE
GNG
   33    35     1     0     0
SMALL
bcc


@<TRIPOS>ATOM
      1 O5'         0.7270   -1.0580    4.3080 oh        1 GNG     -0.673800
      2 C5'         1.1420   -1.0220    2.9480 c3        1 GNG      0.109400
      3 C4'         2.2930   -0.0420    2.7310 c3        1 GNG      0.088100
      4 O4'         3.3590   -0.3070    3.6550 os        1 GNG     -0.426600
      5 C1'         4.5160   -0.8290    2.9860 c3        1 GNG      0.253800
      6 N9          4.6550   -2.2530    3.2620 na        1 GNG     -0.229900
      7 C8          5.5060   -3.1740    2.5960 cc        1 GNG      0.426400
      8 N7          5.3400   -4.4440    3.0150 nd        1 GNG     -0.554000
      9 C5          4.3470   -4.3890    3.9900 cd        1 GNG      0.220800
     10 C4          3.9240   -3.0270    4.1650 cc        1 GNG      0.020000
     11 N3          2.9750   -2.6540    5.1200 na        1 GNG     -0.661600
     12 C2          2.2090   -3.7600    5.5560 cc        1 GNG      0.711100
     13 N1          2.5090   -5.0280    5.4730 nd        1 GNG     -0.646100
     14 C6          3.6890   -5.4580    4.7410 c         1 GNG      0.650000
     15 O6          4.0090   -6.6410    4.7920 o         1 GNG     -0.416100
     16 N2          0.9330   -3.4050    6.2760 n4        1 GNG     -0.814600
     17 C2'         4.3550   -0.4920    1.4880 c3        1 GNG     -0.157400
     18 C3'         2.8720   -0.1410    1.3030 c3        1 GNG      0.131100
     19 O3'         2.6980    1.1310    0.7140 oh        1 GNG     -0.579800
     20 H5'         0.4480   -0.1650    4.5480 ho        1 GNG      0.438000
     21 H5'1        0.2790   -0.7280    2.2920 h1        1 GNG      0.074200
     22 H5'2        1.4510   -2.0770    2.7190 h1        1 GNG      0.074200
     23 H4'         1.9650    1.0130    2.9580 h1        1 GNG      0.118700
     24 H1'         5.3970   -0.2990    3.4610 h2        1 GNG      0.123700
     25 H8          6.2320   -2.8450    1.8410 h5        1 GNG      0.091100
     26 HN3         2.5940   -1.7240    5.0830 hn        1 GNG      0.489800
     27 HN21        0.3790   -4.2600    6.4330 hn        1 GNG      0.485467
     28 HN22        0.3940   -2.7390    5.7010 hn        1 GNG      0.485467
     29 H2'1        4.6600   -1.3300    0.8160 hc        1 GNG      0.096200
     30 H2'2        4.9920    0.4000    1.2520 hc        1 GNG      0.096200
     31 H3'         2.3410   -0.9260    0.6990 h1        1 GNG      0.064700
     32 H1          2.9850    1.0650   -0.2070 ho        1 GNG      0.428000
     33 H23         1.1600   -2.9810    7.1820 hn        1 GNG      0.485467
@<TRIPOS>BOND
     1    1    2 1   
     2    1   20 1   
     3    2    3 1   
     4    2   21 1   
     5    2   22 1   
     6    3    4 1   
     7    3   18 1   
     8    3   23 1   
     9    4    5 1   
    10    5    6 1   
    11    5   17 1   
    12    5   24 1   
    13    6    7 1   
    14    6   10 1   
    15    7    8 2   
    16    7   25 1   
    17    8    9 1   
    18    9   10 2   
    19    9   14 1   
    20   10   11 1   
    21   11   12 1   
    22   11   26 1   
    23   12   13 2   
    24   12   16 1   
    25   13   14 1   
    26   14   15 2   
    27   16   27 1   
    28   16   28 1   
    29   16   33 1   
    30   17   18 1   
    31   17   29 1   
    32   17   30 1   
    33   18   19 1   
    34   18   31 1   
    35   19   32 1   
@<TRIPOS>SUBSTRUCTURE
     1 GNG         1 TEMP              0 ****  ****    0 ROOT
