@<TRIPOS>MOLECULE
GNG
   32    34     1     0     0
SMALL
bcc


@<TRIPOS>ATOM
      1 O5'        -1.2090    1.6250   -3.5770 oh        1 GNG     -0.586800
      2 C5'        -0.5400    1.3560   -2.3640 c3        1 GNG      0.107400
      3 C4'         0.7990    0.6600   -2.6180 c3        1 GNG      0.097100
      4 O4'         1.4280    0.3600   -1.3650 os        1 GNG     -0.429600
      5 C1'         1.3520   -1.0470   -1.0750 c3        1 GNG      0.257800
      6 N9          0.3920   -1.2780   -0.0160 na        1 GNG     -0.252900
      7 C8         -0.4850   -2.3780    0.1770 cc        1 GNG      0.385400
      8 N7         -1.1920   -2.2910    1.3170 nd        1 GNG     -0.573000
      9 C5         -0.7890   -1.1020    1.9210 cd        1 GNG      0.191800
     10 C4          0.2010   -0.4600    1.1080 cc        1 GNG      0.053000
     11 N3          0.8380    0.7160    1.4730 na        1 GNG     -0.702600
     12 C2          0.2980    1.3410    2.6460 cc        1 GNG      0.825100
     13 N1         -0.5940    0.7920    3.4600 nd        1 GNG     -0.731100
     14 C6         -1.2160   -0.4510    3.1680 c         1 GNG      0.646000
     15 O6         -2.0550   -0.9220    3.9460 o         1 GNG     -0.515100
     16 N2          0.7770    2.6570    2.9000 nh        1 GNG     -0.883800
     17 C2'         1.0550   -1.7680   -2.4060 c3        1 GNG     -0.144400
     18 C3'         0.6290   -0.6660   -3.3860 c3        1 GNG      0.120100
     19 O3'         1.4950   -0.6110   -4.5060 oh        1 GNG     -0.589800
     20 H5'        -0.6690    2.2550   -4.0720 ho        1 GNG      0.404000
     21 H5'1       -1.2390    0.6890   -1.7920 h1        1 GNG      0.063700
     22 H5'2       -0.3650    2.2990   -1.7830 h1        1 GNG      0.063700
     23 H4'         1.5130    1.3440   -3.1550 h1        1 GNG      0.096700
     24 H1'         2.3800   -1.3080   -0.6750 h2        1 GNG      0.095700
     25 H8         -0.5440   -3.2050   -0.5370 h5        1 GNG      0.065100
     26 HN3         1.3030    1.2530    0.7730 hn        1 GNG      0.462800
     27 HN21        0.4400    3.0360    3.7630 hn        1 GNG      0.412300
     28 HN22        1.7650    2.7560    2.7980 hn        1 GNG      0.412300
     29 H2'1        0.2630   -2.5480   -2.3200 hc        1 GNG      0.079700
     30 H2'2        1.9960   -2.2590   -2.7640 hc        1 GNG      0.079700
     31 H3'        -0.4360   -0.7940   -3.7210 h1        1 GNG      0.077700
     32 H1          1.2440   -1.3350   -5.0910 ho        1 GNG      0.411000
@<TRIPOS>BOND
     1    1    2 1   
     2    1   20 1   
     3    2    3 1   
     4    2   21 1   
     5    2   22 1   
     6    3    4 1   
     7    3   18 1   
     8    3   23 1   
     9    4    5 1   
    10    5    6 1   
    11    5   17 1   
    12    5   24 1   
    13    6    7 1   
    14    6   10 1   
    15    7    8 2   
    16    7   25 1   
    17    8    9 1   
    18    9   10 2   
    19    9   14 1   
    20   10   11 1   
    21   11   12 1   
    22   11   26 1   
    23   12   13 2   
    24   12   16 1   
    25   13   14 1   
    26   14   15 2   
    27   16   27 1   
    28   16   28 1   
    29   17   18 1   
    30   17   29 1   
    31   17   30 1   
    32   18   19 1   
    33   18   31 1   
    34   19   32 1   
@<TRIPOS>SUBSTRUCTURE
     1 GNG         1 TEMP              0 ****  ****    0 ROOT
