@<TRIPOS>MOLECULE
GNG
   33    35     1     0     0
SMALL
bcc


@<TRIPOS>ATOM
      1 O5'         0.7820   -0.9960    4.3790 oh        1 GNG     -0.673800
      2 C5'         1.1670   -0.9460    3.0110 c3        1 GNG      0.109400
      3 C4'         2.3490   -0.0040    2.7870 c3        1 GNG      0.088100
      4 O4'         3.4250   -0.3290    3.6800 os        1 GNG     -0.426600
      5 C1'         4.5460   -0.8790    2.9730 c3        1 GNG      0.253800
      6 N9          4.6380   -2.3120    3.2160 na        1 GNG     -0.229900
      7 C8          5.4380   -3.2490    2.5120 cc        1 GNG      0.426400
      8 N7          5.2340   -4.5210    2.9070 nd        1 GNG     -0.554000
      9 C5          4.2670   -4.4510    3.9070 cd        1 GNG      0.220800
     10 C4          3.8990   -3.0790    4.1190 cc        1 GNG      0.020000
     11 N3          2.9870   -2.6910    5.1040 na        1 GNG     -0.661600
     12 C2          2.1900   -3.7780    5.5350 cc        1 GNG      0.711100
     13 N1          2.4390   -5.0530    5.4190 nd        1 GNG     -0.646100
     14 C6          3.5860   -5.5110    4.6500 c         1 GNG      0.650000
     15 O6          3.8620   -6.7050    4.6680 o         1 GNG     -0.416100
     16 N2          0.9450   -3.3910    6.2920 nz        1 GNG     -0.814600
     17 C2'         4.3640   -0.5030    1.4870 c3        1 GNG     -0.157400
     18 C3'         2.8910   -0.0930    1.3450 c3        1 GNG      0.131100
     19 O3'         2.7520    1.1970    0.7860 oh        1 GNG     -0.579800
     20 H5'         0.5420   -0.0980    4.6440 ho        1 GNG      0.438000
     21 H5'1        0.3010   -0.6050    2.3820 h1        1 GNG      0.074200
     22 H5'2        1.4310   -2.0060    2.7520 h1        1 GNG      0.074200
     23 H4'         2.0670    1.0580    3.0440 h1        1 GNG      0.118700
     24 H1'         5.4570   -0.3920    3.4380 h2        1 GNG      0.123700
     25 H8          6.1590   -2.9310    1.7460 h5        1 GNG      0.091100
     26 HN3         2.6400   -1.7460    5.0950 hn        1 GNG      0.489800
     27 HN21        0.3620   -4.2280    6.4430 hn        1 GNG      0.485467
     28 HN22        0.4180   -2.6930    5.7440 hn        1 GNG      0.485467
     29 H2'1        5.0290    0.3690    1.2550 hc        1 GNG      0.096200
     30 H2'2        4.6220   -1.3370    0.7910 hc        1 GNG      0.096200
     31 H3'         2.3180   -0.8440    0.7360 h1        1 GNG      0.064700
     32 H1          3.0150    1.1410   -0.1420 ho        1 GNG      0.428000
     33 H23         1.2080   -2.9950    7.2010 hn        1 GNG      0.485467
@<TRIPOS>BOND
     1    1    2 1   
     2    1   20 1   
     3    2    3 1   
     4    2   21 1   
     5    2   22 1   
     6    3    4 1   
     7    3   18 1   
     8    3   23 1   
     9    4    5 1   
    10    5    6 1   
    11    5   17 1   
    12    5   24 1   
    13    6    7 1   
    14    6   10 1   
    15    7    8 2   
    16    7   25 1   
    17    8    9 1   
    18    9   10 2   
    19    9   14 1   
    20   10   11 1   
    21   11   12 1   
    22   11   26 1   
    23   12   13 2   
    24   12   16 1   
    25   13   14 1   
    26   14   15 2   
    27   16   27 1   
    28   16   28 1   
    29   16   33 1   
    30   17   18 1   
    31   17   29 1   
    32   17   30 1   
    33   18   19 1   
    34   18   31 1   
    35   19   32 1   
@<TRIPOS>SUBSTRUCTURE
     1 GNG         1 TEMP              0 ****  ****    0 ROOT
