@<TRIPOS>MOLECULE
GNH
   43    45     1     0     0
SMALL
bcc


@<TRIPOS>ATOM
      1 N3B         1.8440   -1.6310   -0.2670 nz        1 GNH     -0.815700
      2 PB          2.6990   -0.5660    1.0360 p5        1 GNH      1.474700
      3 O1B         2.9610   -1.5840    2.0570 o         1 GNH     -0.800500
      4 O2B         1.7350    0.5350    1.1310 o         1 GNH     -0.800500
      5 O3A         3.9770   -0.2300    0.1380 os        1 GNH     -0.797800
      6 PA          5.1570   -0.0780   -1.0150 p5        1 GNH      1.594800
      7 O1A         6.3590   -0.8330   -0.6200 o         1 GNH     -0.844000
      8 O2A         5.1140    1.2480   -1.6240 o         1 GNH     -0.844000
      9 O5'         4.3610   -1.1680   -2.0210 os        1 GNH     -0.613200
     10 C5'         5.1370   -1.7750   -2.9980 c3        1 GNH      0.197400
     11 C4'         5.6220   -3.1650   -2.5450 c3        1 GNH      0.064100
     12 O4'         5.4570   -4.1010   -3.6260 os        1 GNH     -0.421600
     13 C3'         7.0970   -3.1900   -2.0930 c3        1 GNH      0.118100
     14 O3'         7.1940   -3.5540   -0.7350 oh        1 GNH     -0.636800
     15 C2'         7.7760   -4.2850   -2.9430 c3        1 GNH      0.113100
     16 O2'         8.1430   -5.4450   -2.2370 oh        1 GNH     -0.589800
     17 C1'         6.7040   -4.6710   -4.0190 c3        1 GNH      0.211800
     18 N9          7.0380   -4.2360   -5.3630 na        1 GNH     -0.200900
     19 C8          6.8950   -2.9420   -5.9190 cc        1 GNH      0.418400
     20 N7          7.2520   -2.8760   -7.2160 nd        1 GNH     -0.603000
     21 C5          7.6380   -4.1760   -7.5470 cd        1 GNH      0.182800
     22 C6          8.1290   -4.7230   -8.7940 c         1 GNH      0.649000
     23 O6          8.3180   -4.1430   -9.8750 o         1 GNH     -0.616500
     24 N1          8.4140   -6.1140   -8.7430 ns        1 GNH     -0.505400
     25 C2          8.2660   -6.8780   -7.5670 cd        1 GNH      0.646800
     26 N2          8.7060   -8.2330   -7.6270 nv        1 GNH     -0.878800
     27 N3          7.7880   -6.4020   -6.4000 nc        1 GNH     -0.647100
     28 C4          7.5020   -5.0460   -6.4030 cc        1 GNH      0.097800
     29 HN31        1.6700   -2.5460    0.1180 hn        1 GNH      0.425800
     30 HN32        2.4280   -1.7250   -1.0930 hn        1 GNH      0.425800
     31 H5'2        4.4980   -1.9030   -3.9180 h1        1 GNH      0.027700
     32 H5'1        6.0160   -1.1170   -3.2480 h1        1 GNH      0.027700
     33 H4'         4.9580   -3.5460   -1.7200 h1        1 GNH      0.086700
     34 H3'         7.5920   -2.1960   -2.2630 h1        1 GNH      0.091700
     35 HO3'        7.0450   -2.7400   -0.2180 ho        1 GNH      0.488000
     36 H2'         8.7260   -3.9100   -3.4080 h1        1 GNH      0.088700
     37 HO2'        7.5840   -5.5150   -1.4500 ho        1 GNH      0.430000
     38 H1'         6.5500   -5.7910   -4.0410 h2        1 GNH      0.110700
     39 H8          6.5100   -2.1110   -5.3130 h5        1 GNH      0.081100
     40 HN1         8.8240   -6.5250   -9.5530 hn        1 GNH      0.329500
     41 HN21        8.5690   -8.7260   -6.7670 hn        1 GNH      0.403800
     42 HN22        8.3400   -8.7310   -8.4110 hn        1 GNH      0.403800
     43 H3B3        0.9720   -1.1960   -0.5270 hn        1 GNH      0.425800
@<TRIPOS>BOND
     1    1    2 1   
     2    1   29 1   
     3    1   30 1   
     4    1   43 1   
     5    2    3 1   
     6    2    4 1   
     7    2    5 1   
     8    5    6 1   
     9    6    7 1   
    10    6    8 1   
    11    6    9 1   
    12    9   10 1   
    13   10   11 1   
    14   10   31 1   
    15   10   32 1   
    16   11   12 1   
    17   11   13 1   
    18   11   33 1   
    19   12   17 1   
    20   13   14 1   
    21   13   15 1   
    22   13   34 1   
    23   14   35 1   
    24   15   16 1   
    25   15   17 1   
    26   15   36 1   
    27   16   37 1   
    28   17   18 1   
    29   17   38 1   
    30   18   19 1   
    31   18   28 1   
    32   19   20 2   
    33   19   39 1   
    34   20   21 1   
    35   21   22 1   
    36   21   28 2   
    37   22   23 2   
    38   22   24 1   
    39   24   25 1   
    40   24   40 1   
    41   25   26 1   
    42   25   27 2   
    43   26   41 1   
    44   26   42 1   
    45   27   28 1   
@<TRIPOS>SUBSTRUCTURE
     1 GNH         1 TEMP              0 ****  ****    0 ROOT
