@<TRIPOS>MOLECULE
GNH
   42    44     1     0     0
SMALL
bcc


@<TRIPOS>ATOM
      1 N3B        -0.9930   -0.4500    6.5490 n3        1 GNH     -1.069900
      2 PB          0.5630   -0.1880    6.1980 p5        1 GNH      1.573700
      3 O1B         1.1190    0.8590    7.0960 o         1 GNH     -0.887000
      4 O2B         1.2610   -1.4860    6.0090 o         1 GNH     -0.887000
      5 O3A         0.4620    0.5340    4.6720 os        1 GNH     -0.820800
      6 PA          0.2570    1.2160    3.2580 p5        1 GNH      1.617800
      7 O1A        -0.7820    2.2630    3.2640 o         1 GNH     -0.905000
      8 O2A         1.5150    1.3920    2.4820 o         1 GNH     -0.905000
      9 O5'        -0.4420   -0.0710    2.4030 os        1 GNH     -0.570200
     10 C5'        -0.5230    0.1090    1.0390 c3        1 GNH      0.220400
     11 C4'         0.6360   -0.6130    0.3180 c3        1 GNH      0.056100
     12 O4'         0.1330   -1.2600   -0.8750 os        1 GNH     -0.423600
     13 C3'         1.7930    0.3200   -0.0890 c3        1 GNH      0.127100
     14 O3'         2.9810   -0.0200    0.5870 oh        1 GNH     -0.658800
     15 C2'         2.0090    0.0880   -1.6000 c3        1 GNH      0.109100
     16 O2'         3.1850   -0.6120   -1.9380 oh        1 GNH     -0.607800
     17 C1'         0.7800   -0.7790   -2.0410 c3        1 GNH      0.211800
     18 N9         -0.1800   -0.0570   -2.8690 na        1 GNH     -0.184900
     19 C8         -1.2380    0.7740   -2.4420 cc        1 GNH      0.436400
     20 N7         -1.9850    1.2550   -3.4600 nd        1 GNH     -0.621000
     21 C5         -1.4110    0.7150   -4.6100 cd        1 GNH      0.190800
     22 C6         -1.7630    0.8720   -6.0040 c         1 GNH      0.647000
     23 O6         -2.6840    1.5410   -6.5050 o         1 GNH     -0.635500
     24 N1         -0.9350    0.1450   -6.8980 n         1 GNH     -0.500400
     25 C2          0.1570   -0.6320   -6.4580 cd        1 GNH      0.611800
     26 N2          0.9610   -1.2280   -7.4900 nh        1 GNH     -0.869800
     27 N3          0.4980   -0.8120   -5.1720 nc        1 GNH     -0.623100
     28 C4         -0.2810   -0.1170   -4.2590 cc        1 GNH      0.072800
     29 HN31       -1.5880    0.2740    6.8420 hn        1 GNH      0.378800
     30 HN32       -1.4800   -1.2250    6.1940 hn        1 GNH      0.378800
     31 H5'2       -1.4890   -0.3450    0.6740 h1        1 GNH      0.008700
     32 H5'1       -0.5120    1.2060    0.7830 h1        1 GNH      0.008700
     33 H4'         1.0130   -1.4490    0.9700 h1        1 GNH      0.103700
     34 H3'         1.5350    1.3970    0.1120 h1        1 GNH      0.102700
     35 HO3'        2.8940    0.3510    1.4920 ho        1 GNH      0.506000
     36 H2'         2.0670    1.0580   -2.1610 h1        1 GNH      0.074700
     37 HO2'        3.4910   -1.0830   -1.1500 ho        1 GNH      0.434000
     38 H1'         1.1190   -1.6850   -2.6260 h2        1 GNH      0.096700
     39 H8         -1.4010    0.9670   -1.3690 h5        1 GNH      0.100100
     40 HN1        -1.0870    0.2730   -7.8730 hn        1 GNH      0.325500
     41 HN21        1.7930   -1.6420   -7.1150 hn        1 GNH      0.388800
     42 HN22        0.4340   -1.9000   -8.0120 hn        1 GNH      0.388800
@<TRIPOS>BOND
     1    1    2 1   
     2    1   29 1   
     3    1   30 1   
     4    2    3 1   
     5    2    4 1   
     6    2    5 1   
     7    5    6 1   
     8    6    7 1   
     9    6    8 1   
    10    6    9 1   
    11    9   10 1   
    12   10   11 1   
    13   10   31 1   
    14   10   32 1   
    15   11   12 1   
    16   11   13 1   
    17   11   33 1   
    18   12   17 1   
    19   13   14 1   
    20   13   15 1   
    21   13   34 1   
    22   14   35 1   
    23   15   16 1   
    24   15   17 1   
    25   15   36 1   
    26   16   37 1   
    27   17   18 1   
    28   17   38 1   
    29   18   19 1   
    30   18   28 1   
    31   19   20 2   
    32   19   39 1   
    33   20   21 1   
    34   21   22 1   
    35   21   28 2   
    36   22   23 2   
    37   22   24 1   
    38   24   25 1   
    39   24   40 1   
    40   25   26 1   
    41   25   27 2   
    42   26   41 1   
    43   26   42 1   
    44   27   28 1   
@<TRIPOS>SUBSTRUCTURE
     1 GNH         1 TEMP              0 ****  ****    0 ROOT
