@<TRIPOS>MOLECULE
GNH
   44    46     1     0     0
SMALL
bcc


@<TRIPOS>ATOM
      1 N3B         2.1150   -0.4560    0.0540 n4        1 GNH     -0.811700
      2 PB          3.5260   -0.2750    1.2930 p5        1 GNH      1.473700
      3 O1B         3.4120   -1.5640    1.9790 o         1 GNH     -0.791000
      4 O2B         3.2310    1.0590    1.8170 o         1 GNH     -0.791000
      5 O3A         4.6990   -0.2750    0.1990 os        1 GNH     -0.799800
      6 PA          5.7220   -0.3980   -1.0790 p5        1 GNH      1.601800
      7 O1A         6.6990   -1.4840   -0.8650 o         1 GNH     -0.849000
      8 O2A         5.9810    0.9010   -1.6900 o         1 GNH     -0.849000
      9 O5'         4.5490   -1.1730   -2.0150 os        1 GNH     -0.599200
     10 C5'         5.0280   -1.9120   -3.0830 c3        1 GNH      0.209400
     11 C4'         5.1830   -3.3990   -2.7100 c3        1 GNH      0.063100
     12 O4'         4.7510   -4.2130   -3.8260 os        1 GNH     -0.414600
     13 C3'         6.6270   -3.8020   -2.3460 c3        1 GNH      0.125100
     14 O3'         6.6920   -4.2930   -1.0300 oh        1 GNH     -0.636800
     15 C2'         7.0060   -4.9420   -3.3150 c3        1 GNH      0.117100
     16 O2'         7.1910   -6.2100   -2.7390 oh        1 GNH     -0.604800
     17 C1'         5.8000   -5.0260   -4.3110 c3        1 GNH      0.207800
     18 N9          6.1360   -4.6020   -5.6740 na        1 GNH     -0.150900
     19 C8          5.5020   -3.6420   -6.4660 cc        1 GNH      0.482400
     20 N7          6.0500   -3.5180   -7.7120 nd        1 GNH     -0.593000
     21 C5          7.0880   -4.4250   -7.7340 cd        1 GNH      0.289800
     22 C6          8.0470   -4.7390   -8.7840 c         1 GNH      0.649000
     23 O6          8.1390   -4.2780   -9.9220 o         1 GNH     -0.532500
     24 N1          9.0120   -5.7330   -8.4140 n         1 GNH     -0.506400
     25 C2          8.9800   -6.3200   -7.1430 cd        1 GNH      0.458800
     26 N2         10.0350   -7.3330   -6.8180 n4        1 GNH     -0.789600
     27 N3          8.1110   -6.0850   -6.1610 nc        1 GNH     -0.487100
     28 C4          7.1690   -5.1220   -6.4620 cc        1 GNH     -0.018200
     29 HN31        1.5890    0.4050    0.0260 hn        1 GNH      0.425467
     30 HN32        1.5170   -1.2130    0.3510 hn        1 GNH      0.425467
     31 H5'2        4.2800   -1.8380   -3.9240 h1        1 GNH      0.021700
     32 H5'1        6.0150   -1.4950   -3.4300 h1        1 GNH      0.021700
     33 H4'         4.4780   -3.6590   -1.8710 h1        1 GNH      0.108700
     34 H3'         7.3380   -2.9400   -2.4750 h1        1 GNH      0.111700
     35 HO3'        6.7940   -3.5140   -0.4470 ho        1 GNH      0.498000
     36 H2'         7.9710   -4.7040   -3.8360 h1        1 GNH      0.070700
     37 HO2'        6.7770   -6.2160   -1.8610 ho        1 GNH      0.450000
     38 H1'         5.3990   -6.0820   -4.3850 h2        1 GNH      0.105700
     39 H8          4.6470   -3.0570   -6.0840 h5        1 GNH      0.113100
     40 HN1         9.7120   -5.9670   -9.0820 hn        1 GNH      0.339500
     41 HN21       10.9590   -6.8920   -6.8770 hn        1 GNH      0.477133
     42 HN22        9.9740   -8.1160   -7.4760 hn        1 GNH      0.477133
     43 H3B3        2.4700   -0.6630   -0.8710 hn        1 GNH      0.425467
     44 H23         9.8870   -7.6820   -5.8570 hn        1 GNH      0.477133
@<TRIPOS>BOND
     1    1    2 1   
     2    1   29 1   
     3    1   30 1   
     4    1   43 1   
     5    2    3 1   
     6    2    4 1   
     7    2    5 1   
     8    5    6 1   
     9    6    7 1   
    10    6    8 1   
    11    6    9 1   
    12    9   10 1   
    13   10   11 1   
    14   10   31 1   
    15   10   32 1   
    16   11   12 1   
    17   11   13 1   
    18   11   33 1   
    19   12   17 1   
    20   13   14 1   
    21   13   15 1   
    22   13   34 1   
    23   14   35 1   
    24   15   16 1   
    25   15   17 1   
    26   15   36 1   
    27   16   37 1   
    28   17   18 1   
    29   17   38 1   
    30   18   19 1   
    31   18   28 1   
    32   19   20 2   
    33   19   39 1   
    34   20   21 1   
    35   21   22 1   
    36   21   28 2   
    37   22   23 2   
    38   22   24 1   
    39   24   25 1   
    40   24   40 1   
    41   25   26 1   
    42   25   27 2   
    43   26   41 1   
    44   26   42 1   
    45   26   44 1   
    46   27   28 1   
@<TRIPOS>SUBSTRUCTURE
     1 GNH         1 TEMP              0 ****  ****    0 ROOT
