@<TRIPOS>MOLECULE
GNH
   42    40     1     0     0
SMALL
bcc


@<TRIPOS>ATOM
      1 N3B        -4.3800   -1.2880    5.1630 n3        1 GNH     -1.082900
      2 PB         -4.7830   -0.9310    3.5770 p5        1 GNH      1.472700
      3 O1B        -5.5070    0.3850    3.5260 o         1 GNH     -0.866000
      4 O2B        -5.7000   -2.0390    3.0230 o         1 GNH     -0.866000
      5 O3A        -3.4820   -0.8490    2.7050 os        1 GNH     -0.725800
      6 PA         -3.4370   -1.2520    1.1540 p5        1 GNH      1.582800
      7 O1A        -2.9930   -2.7720    1.0160 o         1 GNH     -0.891500
      8 O2A        -4.8680   -1.0700    0.5240 o         1 GNH     -0.891500
      9 O5'        -2.4290   -0.3460    0.4100 os        1 GNH     -0.562200
     10 C5'        -1.0890   -0.8190    0.2390 c3        1 GNH      0.251400
     11 C4'        -0.9010   -1.2460   -1.0890 c3        1 GNH      0.068100
     12 O4'        -0.9700   -0.0810   -2.0240 os        1 GNH     -0.426600
     13 C3'         0.5810   -1.8710   -1.2680 c3        1 GNH      0.168100
     14 O3'         0.5030   -3.3200   -1.4580 oh        1 GNH     -0.633800
     15 C2'         1.0340   -1.3290   -2.2800 c3        1 GNH      0.103100
     16 O2'         0.7480   -2.1430   -3.4780 oh        1 GNH     -0.557800
     17 C1'         0.2680    0.1220   -2.4020 c3        1 GNH      0.220800
     18 N9          0.8760    1.0650   -1.5740 n3        1 GNH     -0.093400
     19 C8          0.3170    2.0260   -2.3300 c1        1 GNH      0.117400
     20 N7          1.0620    3.1600   -2.1880 ne        1 GNH     -0.364400
     21 C5          2.1000    2.8840   -1.3240 cg        1 GNH     -0.220000
     22 C6          3.1690    3.6940   -0.8120 c1        1 GNH      0.852900
     23 O6          3.3120    4.8280   -1.2080 o         1 GNH     -0.618500
     24 N1          4.0280    3.1850    0.0170 n2        1 GNH     -0.809800
     25 C2          3.9170    1.8930    0.3990 c1        1 GNH      0.605600
     26 N2          4.8960    1.5140    1.4350 n3        1 GNH     -0.771400
     27 N3          2.8760    1.0970   -0.0980 n1        1 GNH     -0.531800
     28 C4          1.9930    1.6080   -0.9460 c1        1 GNH      0.038700
     29 HN31       -4.7990   -1.9740    5.5960 hn        1 GNH      0.390300
     30 HN32       -3.6280   -0.8150    5.6000 hn        1 GNH      0.390300
     31 H5'2       -0.4230   -0.0570    0.4490 h1        1 GNH     -0.007300
     32 H5'1       -0.9240   -1.5900    0.8610 h1        1 GNH     -0.007300
     33 H4'        -1.5310   -1.8650   -1.3160 h1        1 GNH      0.082700
     34 H3'         1.1110   -1.6700   -0.5270 h1        1 GNH      0.107700
     35 HO3'        0.7030   -3.7500   -0.6490 ho        1 GNH      0.481000
     36 H2'         1.9410   -1.2030   -2.1930 h1        1 GNH      0.050700
     37 HO2'        1.4540   -2.0100   -4.1370 ho        1 GNH      0.365000
     38 H1'         0.2880    0.4200   -3.2980 h2        1 GNH      0.056700
     39 H8         -0.4510    1.9150   -2.9200 DU        1 GNH      0.186000
     40 HN1         4.6750    3.6880    0.3430 hn        1 GNH      0.483400
     41 HN21        5.0680    0.6340    1.6000 hn        1 GNH      0.426800
     42 HN22        5.3750    2.1700    1.8810 hn        1 GNH      0.426800
@<TRIPOS>BOND
     1    1    2 1   
     2    1   29 1   
     3    1   30 1   
     4    2    3 1   
     5    2    4 1   
     6    2    5 1   
     7    5    6 1   
     8    6    7 1   
     9    6    8 1   
    10    6    9 1   
    11    9   10 1   
    12   10   11 1   
    13   10   31 1   
    14   10   32 1   
    15   11   12 1   
    16   11   13 1   
    17   11   33 1   
    18   12   17 1   
    19   13   14 1   
    20   13   15 1   
    21   13   34 1   
    22   14   35 1   
    23   15   16 1   
    24   15   17 1   
    25   15   36 1   
    26   16   37 1   
    27   17   18 1   
    28   17   38 1   
    29   18   19 2   
    30   18   28 1   
    31   19   20 2   
    32   20   21 1   
    33   21   28 3   
    34   22   23 2   
    35   22   24 2   
    36   24   40 1   
    37   25   26 1   
    38   25   27 3   
    39   26   41 1   
    40   26   42 1   
@<TRIPOS>SUBSTRUCTURE
     1 GNH         1 TEMP              0 ****  ****    0 ROOT
