@<TRIPOS>MOLECULE
GNI
   54    46     1     0     0
SMALL
bcc


@<TRIPOS>ATOM
      1 O11        -3.1160    1.2350    0.2840 o         1 GNI     -0.414000
      2 C10        -1.9120    1.1220    0.1380 c1        1 GNI      0.370000
      3 N20        -0.1110    1.2020   -3.1340 n2        1 GNI     -0.028000
      4 C21        -0.0210    1.1050   -1.7880 c2        1 GNI     -0.022000
      5 C28         2.6870   -3.3700    5.3420 c1        1 GNI     -0.104000
      6 C27         2.0640   -3.6900    4.1420 c1        1 GNI     -0.111000
      7 C26         0.9660   -2.9550    3.7110 c1        1 GNI     -0.102000
      8 C25         0.4910   -1.8990    4.4800 c1        1 GNI      0.108000
      9 C24         1.1150   -1.5790    5.6810 c1        1 GNI     -0.127750
     10 C23         2.2130   -2.3150    6.1120 c1        1 GNI     -0.127750
     11 C13        -2.1840    1.2940   -2.3200 c2        1 GNI      0.055000
     12 C14        -3.5780    1.4110   -2.2200 c1        1 GNI     -0.038000
     13 C19        -4.3740    0.2700   -2.2410 c1        1 GNI     -0.127750
     14 C18        -5.7590    0.3880   -2.2430 c1        1 GNI     -0.127750
     15 C17        -6.3500    1.6470   -2.2230 c1        1 GNI     -0.127750
     16 C16        -5.5550    2.7880   -2.2020 c1        1 GNI     -0.127750
     17 C15        -4.1690    2.6700   -2.2010 c1        1 GNI     -0.095000
     18 N9         -1.0590    1.0010    1.2860 n2        1 GNI     -0.345000
     19 C8         -1.5620    0.4060    2.4960 c3        1 GNI     -0.018000
     20 C7         -0.3880    0.0390    3.4130 c3        1 GNI     -0.050000
     21 C5          4.0920    1.1110   -2.5930 c1        1 GNI     -0.129000
     22 C4          3.3810    2.3030   -2.4880 c1        1 GNI     -0.127750
     23 C3          2.0130    2.2770   -2.2340 c1        1 GNI     -0.127750
     24 C30         3.4350   -0.1070   -2.4460 c1        1 GNI     -0.028000
     25 C31         2.0660   -0.1330   -2.1920 c1        1 GNI     -0.101000
     26 O           5.6260   -1.2750   -4.4320 o         1 GNI     -0.611000
     27 C           4.5940   -1.7690   -3.8980 c1        1 GNI      0.336000
     28 O3          3.8870   -2.5970   -4.5380 os        1 GNI     -0.567000
     29 C2          4.2330   -1.4100   -2.4600 c3        1 GNI     -0.195000
     30 C9          1.3550    1.0590   -2.0870 c1        1 GNI     -0.052000
     31 O13        -1.4610    1.3200   -3.4700 os        1 GNI     -0.076000
     32 C12        -1.3040    1.1610   -1.2680 c2        1 GNI     -0.180000
     33 O21        -0.6670   -1.1890    4.0730 os        1 GNI     -0.216000
     34 CL26        4.0950   -4.2640    5.8600 cl        1 GNI     -0.052000
     35 CL29        0.1230   -3.4190    2.2540 cl        1 GNI     -0.023000
     36 H9         -0.2160    1.3600    1.2690 hn        1 GNI      0.284000
     37 H27         2.3990   -4.4360    3.5980 ha        1 GNI      0.144000
     38 H23         2.6420   -2.1010    6.9670 ha        1 GNI      0.150500
     39 H24         0.7800   -0.8340    6.2240 ha        1 GNI      0.150500
     40 H19        -3.9580   -0.6170   -2.2920 ha        1 GNI      0.150500
     41 H15        -3.6090    3.4750   -2.2370 ha        1 GNI      0.146000
     42 H18        -6.3210   -0.4170   -2.2580 ha        1 GNI      0.150500
     43 H17        -7.3280    1.7310   -2.2510 ha        1 GNI      0.150500
     44 H16        -5.9720    3.6760   -2.1890 ha        1 GNI      0.150500
     45 H8C1       -2.0710   -0.4050    2.2760 h1        1 GNI      0.089500
     46 H8C2       -2.1500    1.0460    2.9570 h1        1 GNI      0.089500
     47 H7C1       -0.2600    0.7490    4.0820 h1        1 GNI      0.135500
     48 H7C2        0.4280   -0.0560    2.8770 h1        1 GNI      0.135500
     49 H5          5.0580    1.1300   -2.7720 ha        1 GNI      0.127000
     50 H4          3.8450    3.1620   -2.5920 ha        1 GNI      0.150500
     51 H3          1.5120    3.1170   -2.1600 ha        1 GNI      0.150500
     52 H31         1.6030   -0.9910   -2.0880 ha        1 GNI      0.179000
     53 H2C1        3.6910   -2.1290   -2.0700 hc        1 GNI      0.088500
     54 H2C2        5.0560   -1.2960   -1.9340 hc        1 GNI      0.088500
@<TRIPOS>BOND
     1    1    2 1   
     2    2   32 1   
     3    3    4 1   
     4    3   31 1   
     5    4   30 1   
     6    4   32 1   
     7    5    6 1   
     8    5   34 1   
     9    6   37 1   
    10    7    8 1   
    11    7   35 1   
    12    8   33 1   
    13    9   10 1   
    14    9   39 1   
    15   10   38 1   
    16   11   12 1   
    17   11   31 1   
    18   11   32 1   
    19   12   17 1   
    20   13   14 1   
    21   13   40 1   
    22   14   42 1   
    23   15   16 1   
    24   15   43 1   
    25   16   44 1   
    26   17   41 1   
    27   18   19 1   
    28   18   36 1   
    29   19   20 1   
    30   19   45 1   
    31   19   46 1   
    32   20   33 1   
    33   20   47 1   
    34   20   48 1   
    35   21   24 1   
    36   21   49 1   
    37   22   23 1   
    38   22   50 1   
    39   23   51 1   
    40   24   29 1   
    41   25   30 1   
    42   25   52 1   
    43   26   27 1   
    44   27   29 1   
    45   29   53 1   
    46   29   54 1   
@<TRIPOS>SUBSTRUCTURE
     1 GNI         1 TEMP              0 ****  ****    0 ROOT
