@<TRIPOS>MOLECULE
GNI
   55    55     1     0     0
SMALL
bcc


@<TRIPOS>ATOM
      1 O11         2.3290    1.5520    0.6770 oh        1 GNI     -0.317000
      2 C10         1.7370    0.3620    0.2780 c2        1 GNI      0.205000
      3 N20         3.4140   -0.3270   -2.9540 n2        1 GNI     -0.022000
      4 C21         3.4460    0.2120   -1.7150 c2        1 GNI     -0.001000
      5 C28        -0.3130    5.4640    5.1090 c2        1 GNI     -0.362000
      6 C27         1.0850    5.5580    5.4830 c2        1 GNI     -0.048000
      7 C26         1.9930    4.6970    4.9750 c2        1 GNI     -0.106000
      8 C25         1.5800    3.6560    4.0310 c2        1 GNI      0.053000
      9 C24         0.9920    3.8810    2.8410 c2        1 GNI     -0.191000
     10 C23        -0.7710    4.7700    4.0540 c1        1 GNI      0.219000
     11 C13         1.4010   -0.6890   -2.0320 c2        1 GNI      0.034000
     12 C14         0.0210   -1.2170   -2.0990 c3        1 GNI      0.066000
     13 C19        -0.9400   -0.1530   -2.5370 c2        1 GNI     -0.246000
     14 C18        -1.8760   -0.4250   -3.4670 c2        1 GNI     -0.164000
     15 C17        -1.9590   -1.6230   -4.2020 c1        1 GNI     -0.114000
     16 C16        -0.9440   -3.3890   -2.9410 c1        1 GNI      0.212000
     17 C15        -0.0940   -2.3810   -3.0350 c2        1 GNI     -0.421000
     18 N9          0.9070   -0.3490    0.9680 n2        1 GNI     -0.323000
     19 C8          2.0550    0.0690    4.3500 c3        1 GNI     -0.310000
     20 C7          1.8430    1.3660    3.6890 c1        1 GNI     -0.049000
     21 C5          6.6880    2.2220   -0.0100 c2        1 GNI     -0.188000
     22 C4          7.0360    2.8460   -1.1470 c2        1 GNI     -0.125000
     23 C3          4.8360    2.1600   -1.4640 c1        1 GNI      0.202000
     24 C30         6.8000    0.7530    0.1820 c3        1 GNI     -0.116000
     25 C31         5.5360    0.0120   -0.3480 c3        1 GNI      0.104000
     26 O           4.8370   -0.5180    0.8060 os        1 GNI     -0.234000
     27 C           5.5730   -0.3090    1.9500 c2        1 GNI      0.306000
     28 O3          5.0690   -0.6990    2.9980 o         1 GNI     -0.309000
     29 C2          6.8810    0.3730    1.6620 c3        1 GNI     -0.198000
     30 C9          4.6220    0.8760   -1.1560 c2        1 GNI     -0.340000
     31 O13         2.2270   -0.8550   -3.1670 os        1 GNI     -0.055000
     32 C12         2.1420   -0.0050   -1.0780 c2        1 GNI     -0.115000
     33 O21         1.7710    2.3650    4.5660 os        1 GNI     -0.125000
     34 H9          0.7240   -0.0150    1.8910 hn        1 GNI      0.156000
     35 H27         1.3710    6.3580    6.1870 ha        1 GNI      0.168000
     36 H23         0.6410    3.0550    2.2040 ha        1 GNI      0.161500
     37 H24         0.9220    4.8900    2.4070 ha        1 GNI      0.161500
     38 H19        -0.8450    0.8240   -2.0490 ha        1 GNI      0.145000
     39 H15        -0.2560   -1.5480   -1.0500 hc        1 GNI      0.151000
     40 H18        -2.5860    0.3610   -3.7960 ha        1 GNI      0.164000
     41 H17         0.6030   -2.3610   -3.9060 ha        1 GNI      0.233000
     42 H16        -2.7800   -2.3360   -4.1030 ha        1 GNI      0.113000
     43 H8C1        2.2310    1.6590    1.6460 ho        1 GNI      0.252000
     44 H8C2        1.2430   -0.6290    4.0180 hc        1 GNI      0.129000
     45 H7C1        2.0790    0.0970    5.4670 hc        1 GNI      0.129000
     46 H7C2        3.0340   -0.3410    3.9720 hc        1 GNI      0.129000
     47 H5          6.2910    2.7930    0.8480 ha        1 GNI      0.146000
     48 H4          6.9260    3.9340   -1.2670 ha        1 GNI      0.135000
     49 H3          7.4640    2.3190   -2.0120 ha        1 GNI      0.135000
     50 H31         7.6980    0.3620   -0.3680 hc        1 GNI      0.122000
     51 H2C1        7.0120    1.2610    2.3300 hc        1 GNI      0.133500
     52 H2C2        7.7240   -0.3370    1.8570 hc        1 GNI      0.133500
     53 CL29        3.6310    4.7680    5.3960 cl        1 GNI      0.025000
     54 H92         5.8310   -0.8900   -0.9550 h1        1 GNI      0.123000
     55 CL26       -1.4360    6.2970    6.0830 cl        1 GNI      0.033000
@<TRIPOS>BOND
     1    1    2 1   
     2    1   43 1   
     3    2   18 1   
     4    2   32 1   
     5    3    4 1   
     6    3   31 1   
     7    4   30 1   
     8    4   32 1   
     9    5    6 1   
    10    5   10 1   
    11    5   55 1   
    12    6    7 1   
    13    6   35 1   
    14    7    8 1   
    15    7   53 1   
    16    8    9 1   
    17    8   33 1   
    18    9   36 1   
    19    9   37 1   
    20   11   12 1   
    21   11   31 1   
    22   11   32 1   
    23   12   13 1   
    24   12   17 1   
    25   12   39 1   
    26   13   14 1   
    27   13   38 1   
    28   14   15 1   
    29   14   40 1   
    30   15   42 1   
    31   16   17 1   
    32   17   41 1   
    33   18   34 1   
    34   19   20 1   
    35   19   44 1   
    36   19   45 1   
    37   19   46 1   
    38   20   33 1   
    39   21   22 1   
    40   21   24 1   
    41   21   47 1   
    42   22   48 1   
    43   22   49 1   
    44   23   30 1   
    45   24   25 1   
    46   24   29 1   
    47   24   50 1   
    48   25   26 1   
    49   25   30 1   
    50   25   54 1   
    51   26   27 1   
    52   27   28 1   
    53   27   29 1   
    54   29   51 1   
    55   29   52 1   
@<TRIPOS>SUBSTRUCTURE
     1 GNI         1 TEMP              0 ****  ****    0 ROOT
