@<TRIPOS>MOLECULE
GNI
   55    55     1     0     0
SMALL
bcc


@<TRIPOS>ATOM
      1 O11         1.3010    0.2400    0.5580 o         1 GNI     -0.396000
      2 C10         2.1200   -0.1450   -0.3070 c2        1 GNI      0.376000
      3 N20         3.3000    1.7980   -3.2360 n2        1 GNI     -0.004000
      4 C21         3.5200    1.2450   -2.0250 c2        1 GNI     -0.014000
      5 C28         0.4970    5.0710    4.0900 c2        1 GNI     -0.365000
      6 C27         1.9150    5.2850    4.2990 c2        1 GNI     -0.047000
      7 C26         2.8030    4.3080    4.0160 c2        1 GNI     -0.116000
      8 C25         2.3340    3.0170    3.4900 c2        1 GNI      0.095000
      9 C24         1.6010    2.9280    2.3550 c2        1 GNI     -0.260000
     10 C23        -0.0340    4.0950    3.3330 c1        1 GNI      0.208000
     11 C13         1.3890    0.7800   -2.6160 c2        1 GNI      0.096000
     12 C14         0.0210    0.4260   -2.8940 c2        1 GNI     -0.081000
     13 C19        -0.4180    0.3840   -4.2470 c2        1 GNI     -0.105000
     14 C18        -1.7400    0.0440   -4.6190 c2        1 GNI     -0.036000
     15 C17        -2.4700   -0.2180   -3.4830 c1        1 GNI     -0.094000
     16 C16        -2.0840   -0.1760   -2.2870 c1        1 GNI     -0.124000
     17 C15        -0.8460    0.1390   -1.7920 c2        1 GNI      0.024000
     18 N9          2.8820   -1.2620   -0.0890 nt        1 GNI     -0.396000
     19 C8          2.5550   -0.3200    4.9140 c3        1 GNI     -0.235000
     20 C7          2.8410    0.6960    3.8240 c3        1 GNI      0.159000
     21 C5          5.9740    2.2940    1.2610 c2        1 GNI     -0.114000
     22 C4          5.9260    3.0790    0.0480 c2        1 GNI     -0.150000
     23 C3          5.3570    2.6520   -1.0940 c2        1 GNI     -0.076000
     24 C30         6.4420    1.0350    1.3310 c2        1 GNI     -0.171000
     25 C31         5.2540    0.2510   -0.6530 c1        1 GNI      0.213000
     26 O           4.2620   -1.1320    2.5260 o         1 GNI     -0.376000
     27 C           4.8900   -0.1220    2.8530 c2        1 GNI      0.329000
     28 O3          4.2550    0.8380    3.5810 os        1 GNI     -0.300000
     29 C2          6.3280    0.2150    2.5660 c3        1 GNI     -0.123000
     30 C9          4.7430    1.3390   -1.2410 c2        1 GNI     -0.307000
     31 O13         2.0640    1.5390   -3.6090 os        1 GNI     -0.056000
     32 C12         2.2940    0.5600   -1.5890 c2        1 GNI     -0.229000
     33 O21         2.5670    1.9790    4.3720 os        1 GNI     -0.192000
     34 H9          2.8970   -1.6620    0.8230 hn        1 GNI      0.241000
     35 H27         2.2320    6.2660    4.6900 ha        1 GNI      0.162000
     36 H23         1.1580    1.9860    1.9970 ha        1 GNI      0.165000
     37 H24         1.5350    3.7710    1.6490 ha        1 GNI      0.165000
     38 H19         0.3030    0.6310   -5.0430 ha        1 GNI      0.163000
     39 H15        -0.5300    0.1840   -0.7420 ha        1 GNI      0.197000
     40 H18        -2.0900    0.0080   -5.6530 ha        1 GNI      0.165000
     41 H17        -2.5620   -5.7740   -2.1410 ha        1 GNI      0.000000
     42 H16        -2.4320   -6.1940   -2.6550 ha        1 GNI      0.000000
     43 H8C1        2.3040    0.4820    2.8590 h2        1 GNI      0.137000
     44 H8C2        2.8780   -1.3270    4.5560 hc        1 GNI      0.106000
     45 H7C1        1.4610   -0.3280    5.1320 hc        1 GNI      0.106000
     46 H7C2        3.1100   -0.0580    5.8460 hc        1 GNI      0.106000
     47 H5          5.5400    2.7820    2.1570 ha        1 GNI      0.158000
     48 H4          6.3290    4.1040    0.1180 ha        1 GNI      0.152000
     49 H3          5.3020    3.3050   -1.9820 ha        1 GNI      0.158000
     50 H31         7.0180    0.5680    0.5090 ha        1 GNI      0.155000
     51 H2C1        6.7540    0.7720    3.4450 hc        1 GNI      0.129000
     52 H2C2        6.8870   -0.7520    2.4500 hc        1 GNI      0.129000
     53 Cl29        4.4670    4.5060    4.2560 cl        1 GNI      0.014000
     54 H92         3.6100   -1.5090   -0.7120 hn        1 GNI      0.241000
     55 Cl26       -0.5700    6.1490    4.8730 cl        1 GNI      0.018000
@<TRIPOS>BOND
     1    1    2 1   
     2    2   18 1   
     3    2   32 1   
     4    3    4 1   
     5    3   31 1   
     6    4   30 1   
     7    4   32 1   
     8    5    6 1   
     9    5   10 1   
    10    5   55 1   
    11    6    7 1   
    12    6   35 1   
    13    7    8 1   
    14    7   53 1   
    15    8    9 1   
    16    8   33 1   
    17    9   36 1   
    18    9   37 1   
    19   11   12 1   
    20   11   31 1   
    21   11   32 1   
    22   12   13 1   
    23   12   17 1   
    24   13   14 1   
    25   13   38 1   
    26   14   15 1   
    27   14   40 1   
    28   15   16 1   
    29   16   17 1   
    30   17   39 1   
    31   18   34 1   
    32   18   54 1   
    33   19   20 1   
    34   19   44 1   
    35   19   45 1   
    36   19   46 1   
    37   20   28 1   
    38   20   33 1   
    39   20   43 1   
    40   21   22 1   
    41   21   24 1   
    42   21   47 1   
    43   22   23 1   
    44   22   48 1   
    45   23   30 1   
    46   23   49 1   
    47   24   29 1   
    48   24   50 1   
    49   25   30 1   
    50   26   27 1   
    51   27   28 1   
    52   27   29 1   
    53   29   51 1   
    54   29   52 1   
    55   41   42 1   
@<TRIPOS>SUBSTRUCTURE
     1 GNI         1 TEMP              0 ****  ****    0 ROOT
