@<TRIPOS>MOLECULE
GNI
   54    57     1     0     0
SMALL
bcc


@<TRIPOS>ATOM
      1 O11         2.3260   -4.0630    4.5180 o         1 GNI     -0.681100
      2 C10         2.7680   -3.1760    5.2950 c         1 GNI      0.696700
      3 N20         1.2790    0.1590    6.0160 nc        1 GNI     -0.365300
      4 C21         1.8420   -0.9860    6.4530 cd        1 GNI      0.416800
      5 C28         1.2510   -9.2240    9.3940 ca        1 GNI     -0.025600
      6 C27         1.8970   -8.3290   10.2510 ca        1 GNI     -0.099000
      7 C26         2.6310   -7.2650    9.7260 ca        1 GNI     -0.012600
      8 C25         2.7120   -7.0970    8.3210 ca        1 GNI      0.160100
      9 C24         2.0600   -8.0080    7.4760 ca        1 GNI     -0.204000
     10 C23         1.3310   -9.0670    8.0100 ca        1 GNI     -0.092000
     11 C13         1.7880   -1.0580    4.1930 cc        1 GNI      0.358200
     12 C14         1.8340   -1.1470    2.7520 ca        1 GNI     -0.144500
     13 C19         1.7260   -2.3810    2.0960 ca        1 GNI     -0.090500
     14 C18         1.7780   -2.4330    0.7030 ca        1 GNI     -0.147000
     15 C17         1.9320   -1.2660   -0.0430 ca        1 GNI     -0.119000
     16 C16         2.0320   -0.0350    0.6070 ca        1 GNI     -0.147000
     17 C15         1.9820    0.0290    1.9960 ca        1 GNI     -0.090500
     18 N9          3.7910   -3.4310    6.1600 n         1 GNI     -0.520900
     19 C8          4.4860   -4.6850    6.2100 c3        1 GNI      0.095000
     20 C7          3.6180   -5.9280    6.4520 c3        1 GNI      0.099400
     21 C5          2.6310   -2.0810   10.4780 ca        1 GNI     -0.128000
     22 C4          1.3270   -2.1430    9.9850 ca        1 GNI     -0.140000
     23 C3          1.0480   -1.7730    8.6710 ca        1 GNI     -0.122000
     24 C30         3.6740   -1.6190    9.6670 ca        1 GNI     -0.021300
     25 C31         3.3840   -1.2000    8.3600 ca        1 GNI     -0.099000
     26 O           5.8400   -2.4960    7.9950 o         1 GNI     -0.845300
     27 C           6.0060   -2.4880    9.2530 c         1 GNI      0.924600
     28 O3          6.9120   -3.1320    9.8420 o         1 GNI     -0.845300
     29 C2          5.0800   -1.6090   10.1290 c3        1 GNI     -0.175100
     30 C9          2.0890   -1.3190    7.8510 ca        1 GNI     -0.163500
     31 O13         1.2390    0.1510    4.7000 os        1 GNI     -0.136100
     32 C12         2.1830   -1.8180    5.2850 cd        1 GNI     -0.331200
     33 O21         3.4370   -6.0220    7.8740 os        1 GNI     -0.288900
     34 H9          4.1330   -2.7290    6.7950 hn        1 GNI      0.382500
     35 H27         1.8310   -8.4610   11.3430 ha        1 GNI      0.153000
     36 H23         0.8210   -9.7730    7.3380 ha        1 GNI      0.139000
     37 H24         2.1120   -7.8930    6.3840 ha        1 GNI      0.149000
     38 H19         1.6060   -3.3090    2.6840 ha        1 GNI      0.167000
     39 H15         2.0570    0.9990    2.5120 ha        1 GNI      0.167000
     40 H18         1.6990   -3.4050    0.1960 ha        1 GNI      0.129000
     41 H17         1.9740   -1.3140   -1.1400 ha        1 GNI      0.123000
     42 H16         2.1530    0.8880    0.0220 ha        1 GNI      0.129000
     43 H8C1        5.2610   -4.5910    7.0350 h1        1 GNI      0.088200
     44 H8C2        5.0070   -4.8590    5.2240 h1        1 GNI      0.088200
     45 H7C1        4.1670   -6.8380    6.0950 h1        1 GNI      0.052200
     46 H7C2        2.6220   -5.8500    5.9450 h1        1 GNI      0.052200
     47 H5          2.8450   -2.4140   11.5040 ha        1 GNI      0.126000
     48 H4          0.5150   -2.5040   10.6320 ha        1 GNI      0.117000
     49 H3          0.0260   -1.8460    8.2770 ha        1 GNI      0.124000
     50 H31         4.2140   -0.8300    7.7330 ha        1 GNI      0.169000
     51 H2C1        5.1550   -1.9600   11.1890 hc        1 GNI      0.044200
     52 H2C2        5.4870   -0.5650   10.0770 hc        1 GNI      0.044200
     53 CL26        0.3590  -10.5200   10.0510 cl        1 GNI     -0.119400
     54 CL29        3.4100   -6.2090   10.7960 cl        1 GNI     -0.041400
@<TRIPOS>BOND
     1    1    2 2   
     2    2   18 1   
     3    2   32 1   
     4    3    4 2   
     5    3   31 1   
     6    4   30 1   
     7    4   32 1   
     8    5    6 ar  
     9    5   10 ar  
    10    5   53 1   
    11    6    7 ar  
    12    6   35 1   
    13    7    8 ar  
    14    7   54 1   
    15    8    9 ar  
    16    8   33 1   
    17    9   10 ar  
    18    9   37 1   
    19   10   36 1   
    20   11   12 1   
    21   11   31 1   
    22   11   32 2   
    23   12   13 ar  
    24   12   17 ar  
    25   13   14 ar  
    26   13   38 1   
    27   14   15 ar  
    28   14   40 1   
    29   15   16 ar  
    30   15   41 1   
    31   16   17 ar  
    32   16   42 1   
    33   17   39 1   
    34   18   19 1   
    35   18   34 1   
    36   19   20 1   
    37   19   43 1   
    38   19   44 1   
    39   20   33 1   
    40   20   45 1   
    41   20   46 1   
    42   21   22 ar  
    43   21   24 ar  
    44   21   47 1   
    45   22   23 ar  
    46   22   48 1   
    47   23   30 ar  
    48   23   49 1   
    49   24   25 ar  
    50   24   29 1   
    51   25   30 ar  
    52   25   50 1   
    53   26   27 1   
    54   27   28 1   
    55   27   29 1   
    56   29   51 1   
    57   29   52 1   
@<TRIPOS>SUBSTRUCTURE
     1 GNI         1 TEMP              0 ****  ****    0 ROOT
