@<TRIPOS>MOLECULE
GNL
   27    28     1     0     0
SMALL
bcc


@<TRIPOS>ATOM
      1 C1          0.2230   -0.3510   -1.0000 c3        1 GNL      0.208200
      2 S1          1.3990   -1.6460   -0.4700 ss        1 GNL     -0.330300
      3 C2          0.7940    0.9950   -0.4490 c3        1 GNL      0.046500
      4 N2          2.1290    0.7970    0.0990 n2        1 GNL     -0.565900
      5 C3         -0.0990    1.7490    0.5790 c3        1 GNL      0.128100
      6 O3         -0.0250    3.1350    0.3250 oh        1 GNL     -0.575800
      7 C4         -1.5600    1.2760    0.5900 c3        1 GNL      0.081100
      8 O4         -2.2680    1.8440   -0.4980 oh        1 GNL     -0.591800
      9 C5         -1.5910   -0.2500    0.5650 c3        1 GNL      0.055100
     10 O5         -1.1140   -0.6690   -0.7200 os        1 GNL     -0.397600
     11 C6         -3.0160   -0.7990    0.6730 c3        1 GNL      0.142400
     12 O6         -3.0190   -2.2040    0.7690 oh        1 GNL     -0.590800
     13 C7          2.5020   -0.4430    0.1480 c2        1 GNL      0.461200
     14 C8          3.8070   -0.9310    0.6620 c3        1 GNL     -0.130400
     15 H1          0.2520   -0.3470   -2.1260 h2        1 GNL      0.104700
     16 H2          0.9200    1.6870   -1.3370 h1        1 GNL      0.099700
     17 H3          0.3220    1.6360    1.6210 h1        1 GNL      0.100700
     18 HO3        -0.6310    3.3360   -0.4040 ho        1 GNL      0.413000
     19 H4         -2.0790    1.6810    1.5030 h1        1 GNL      0.102700
     20 HO4        -2.0510    1.3290   -1.2880 ho        1 GNL      0.412000
     21 H5         -0.9390   -0.6800    1.3730 h1        1 GNL      0.084700
     22 H6         -3.4850   -0.4350    1.6260 h1        1 GNL      0.063200
     23 H6A        -3.6190   -0.4560   -0.2090 h1        1 GNL      0.063200
     24 HO6        -2.5930   -2.5460   -0.0280 ho        1 GNL      0.414000
     25 H8          3.8090   -2.0480    0.7010 hc        1 GNL      0.068033
     26 H8A         4.6360   -0.5900   -0.0090 hc        1 GNL      0.068033
     27 H8B         4.0000   -0.5330    1.6910 hc        1 GNL      0.068033
@<TRIPOS>BOND
     1    1    2 1   
     2    1    3 1   
     3    1   10 1   
     4    1   15 1   
     5    2   13 1   
     6    3    4 1   
     7    3    5 1   
     8    3   16 1   
     9    4   13 2   
    10    5    6 1   
    11    5    7 1   
    12    5   17 1   
    13    6   18 1   
    14    7    8 1   
    15    7    9 1   
    16    7   19 1   
    17    8   20 1   
    18    9   10 1   
    19    9   11 1   
    20    9   21 1   
    21   11   12 1   
    22   11   22 1   
    23   11   23 1   
    24   12   24 1   
    25   13   14 1   
    26   14   25 1   
    27   14   26 1   
    28   14   27 1   
@<TRIPOS>SUBSTRUCTURE
     1 GNL         1 TEMP              0 ****  ****    0 ROOT
