@<TRIPOS>MOLECULE
GNL
   27    28     1     0     0
SMALL
bcc


@<TRIPOS>ATOM
      1 C1         -0.0060   -0.1440   -0.0190 c3        1 GNL      0.243200
      2 S1          1.8220    0.0970   -0.0330 ss        1 GNL     -0.351300
      3 C2         -0.3270   -0.6550    1.4150 c3        1 GNL      0.042500
      4 N2          0.7850   -0.3820    2.3170 n2        1 GNL     -0.603900
      5 C3         -0.7070   -2.1560    1.4890 c3        1 GNL      0.120100
      6 O3         -1.5870   -2.3740    2.5790 oh        1 GNL     -0.608800
      7 C4         -1.4570   -2.6350    0.2380 c3        1 GNL      0.125100
      8 O4         -2.7360   -2.0420    0.1170 oh        1 GNL     -0.588800
      9 C5         -0.6270   -2.2620   -0.9910 c3        1 GNL      0.094100
     10 O5         -0.5060   -0.8440   -1.1170 os        1 GNL     -0.371600
     11 C6         -1.3130   -2.7170   -2.2850 c3        1 GNL      0.142400
     12 O6         -0.4710   -2.5260   -3.4000 oh        1 GNL     -0.596800
     13 C7          1.8780   -0.0440    1.7030 c2        1 GNL      0.475200
     14 C8          3.1720    0.2650    2.3630 c3        1 GNL     -0.133400
     15 H1         -0.4360    0.8890   -0.1590 h2        1 GNL      0.107700
     16 H2         -1.2190   -0.0700    1.7910 h1        1 GNL      0.108700
     17 H3          0.2140   -2.7930    1.6140 h1        1 GNL      0.058700
     18 HO3        -1.1330   -2.0780    3.3780 ho        1 GNL      0.429000
     19 H4         -1.5730   -3.7550    0.2950 h1        1 GNL      0.060700
     20 HO4        -3.1780   -2.1610    0.9700 ho        1 GNL      0.425000
     21 H5          0.4000   -2.7140   -0.9040 h1        1 GNL      0.070700
     22 H6         -1.4990   -3.8230   -2.2390 h1        1 GNL      0.067200
     23 H6A        -2.2810   -2.1640   -2.4100 h1        1 GNL      0.067200
     24 HO6        -0.2980   -1.5780   -3.4660 ho        1 GNL      0.414000
     25 H8          3.4580   -0.5480    3.0770 hc        1 GNL      0.067367
     26 H8A         3.0910    1.2250    2.9330 hc        1 GNL      0.067367
     27 H8B         3.9770    0.3700    1.5940 hc        1 GNL      0.067367
@<TRIPOS>BOND
     1    1    2 1   
     2    1    3 1   
     3    1   10 1   
     4    1   15 1   
     5    2   13 1   
     6    3    4 1   
     7    3    5 1   
     8    3   16 1   
     9    4   13 2   
    10    5    6 1   
    11    5    7 1   
    12    5   17 1   
    13    6   18 1   
    14    7    8 1   
    15    7    9 1   
    16    7   19 1   
    17    8   20 1   
    18    9   10 1   
    19    9   11 1   
    20    9   21 1   
    21   11   12 1   
    22   11   22 1   
    23   11   23 1   
    24   12   24 1   
    25   13   14 1   
    26   14   25 1   
    27   14   26 1   
    28   14   27 1   
@<TRIPOS>SUBSTRUCTURE
     1 GNL         1 TEMP              0 ****  ****    0 ROOT
