@<TRIPOS>MOLECULE
GNL
   27    28     1     0     0
SMALL
bcc


@<TRIPOS>ATOM
      1 C1         -0.0030   -0.1420   -0.0130 c3        1 GNL      0.243200
      2 S1          1.8270    0.0910   -0.0290 ss        1 GNL     -0.351300
      3 C2         -0.3240   -0.6600    1.4180 c3        1 GNL      0.042500
      4 N2          0.7910   -0.3960    2.3200 n2        1 GNL     -0.603900
      5 C3         -0.7100   -2.1590    1.4830 c3        1 GNL      0.120100
      6 O3         -1.5890   -2.3800    2.5740 oh        1 GNL     -0.608800
      7 C4         -1.4630   -2.6290    0.2320 c3        1 GNL      0.125100
      8 O4         -2.7400   -2.0300    0.1160 oh        1 GNL     -0.588800
      9 C5         -0.6340   -2.2520   -0.9970 c3        1 GNL      0.094100
     10 O5         -0.5060   -0.8330   -1.1150 os        1 GNL     -0.371600
     11 C6         -1.3230   -2.6960   -2.2930 c3        1 GNL      0.142400
     12 O6         -0.4820   -2.5020   -3.4080 oh        1 GNL     -0.596800
     13 C7          1.8840   -0.0590    1.7070 c2        1 GNL      0.475200
     14 C8          3.1800    0.2420    2.3660 c3        1 GNL     -0.133400
     15 H1         -0.4280    0.8940   -0.1470 h2        1 GNL      0.107700
     16 H2         -1.2130   -0.0730    1.7980 h1        1 GNL      0.108700
     17 H3          0.2100   -2.8000    1.6040 h1        1 GNL      0.058700
     18 HO3        -1.1330   -2.0910    3.3740 ho        1 GNL      0.429000
     19 H4         -1.5830   -3.7480    0.2810 h1        1 GNL      0.060700
     20 HO4        -3.1810   -2.1510    0.9680 ho        1 GNL      0.425000
     21 H5          0.3910   -2.7080   -0.9150 h1        1 GNL      0.070700
     22 H6         -1.5130   -3.8010   -2.2530 h1        1 GNL      0.067200
     23 H6A        -2.2890   -2.1390   -2.4130 h1        1 GNL      0.067200
     24 HO6        -0.3060   -1.5540   -3.4690 ho        1 GNL      0.414000
     25 H8          3.1090    1.2100    2.9240 hc        1 GNL      0.067367
     26 H8A         3.4550   -0.5640    3.0920 hc        1 GNL      0.067367
     27 H8B         3.9880    0.3280    1.5990 hc        1 GNL      0.067367
@<TRIPOS>BOND
     1    1    2 1   
     2    1    3 1   
     3    1   10 1   
     4    1   15 1   
     5    2   13 1   
     6    3    4 1   
     7    3    5 1   
     8    3   16 1   
     9    4   13 2   
    10    5    6 1   
    11    5    7 1   
    12    5   17 1   
    13    6   18 1   
    14    7    8 1   
    15    7    9 1   
    16    7   19 1   
    17    8   20 1   
    18    9   10 1   
    19    9   11 1   
    20    9   21 1   
    21   11   12 1   
    22   11   22 1   
    23   11   23 1   
    24   12   24 1   
    25   13   14 1   
    26   14   25 1   
    27   14   26 1   
    28   14   27 1   
@<TRIPOS>SUBSTRUCTURE
     1 GNL         1 TEMP              0 ****  ****    0 ROOT
