@<TRIPOS>MOLECULE
GNL
   27    28     1     0     0
SMALL
bcc


@<TRIPOS>ATOM
      1 C1         -0.0320   -0.1370   -0.0030 c3        1 GNL      0.243200
      2 S1          1.7930    0.1330   -0.0370 ss        1 GNL     -0.351300
      3 C2         -0.3260   -0.6740    1.4270 c3        1 GNL      0.042500
      4 N2          0.7930   -0.3950    2.3190 n2        1 GNL     -0.603900
      5 C3         -0.6810   -2.1810    1.4840 c3        1 GNL      0.120100
      6 O3         -1.5440   -2.4290    2.5820 oh        1 GNL     -0.608800
      7 C4         -1.4390   -2.6550    0.2360 c3        1 GNL      0.125100
      8 O4         -2.7290   -2.0810    0.1400 oh        1 GNL     -0.588800
      9 C5         -0.6320   -2.2510   -0.9980 c3        1 GNL      0.094100
     10 O5         -0.5340   -0.8290   -1.1050 os        1 GNL     -0.371600
     11 C6         -1.3260   -2.6980   -2.2900 c3        1 GNL      0.142400
     12 O6         -0.5020   -2.4770   -3.4120 oh        1 GNL     -0.596800
     13 C7          1.8730   -0.0320    1.6960 c2        1 GNL      0.475200
     14 C8          3.1700    0.2890    2.3440 c3        1 GNL     -0.133400
     15 H1         -0.4790    0.8910   -0.1230 h2        1 GNL      0.107700
     16 H2         -1.2220   -0.1080    1.8230 h1        1 GNL      0.108700
     17 H3          0.2520   -2.8050    1.5880 h1        1 GNL      0.058700
     18 HO3        -1.0840   -2.1380    3.3800 ho        1 GNL      0.429000
     19 H4         -1.5360   -3.7770    0.2780 h1        1 GNL      0.060700
     20 HO4        -3.1580   -2.2190    0.9960 ho        1 GNL      0.425000
     21 H5          0.4030   -2.6870   -0.9310 h1        1 GNL      0.070700
     22 H6         -2.3040   -2.1590   -2.3940 h1        1 GNL      0.067200
     23 H6A        -1.4940   -3.8070   -2.2580 h1        1 GNL      0.067200
     24 HO6        -0.3450   -1.5260   -3.4670 ho        1 GNL      0.414000
     25 H8          3.9660    0.4080    1.5680 hc        1 GNL      0.067367
     26 H8A         3.4740   -0.5240    3.0510 hc        1 GNL      0.067367
     27 H8B         3.0830    1.2440    2.9210 hc        1 GNL      0.067367
@<TRIPOS>BOND
     1    1    2 1   
     2    1    3 1   
     3    1   10 1   
     4    1   15 1   
     5    2   13 1   
     6    3    4 1   
     7    3    5 1   
     8    3   16 1   
     9    4   13 2   
    10    5    6 1   
    11    5    7 1   
    12    5   17 1   
    13    6   18 1   
    14    7    8 1   
    15    7    9 1   
    16    7   19 1   
    17    8   20 1   
    18    9   10 1   
    19    9   11 1   
    20    9   21 1   
    21   11   12 1   
    22   11   22 1   
    23   11   23 1   
    24   12   24 1   
    25   13   14 1   
    26   14   25 1   
    27   14   26 1   
    28   14   27 1   
@<TRIPOS>SUBSTRUCTURE
     1 GNL         1 TEMP              0 ****  ****    0 ROOT
