@<TRIPOS>MOLECULE
GNL
   27    28     1     0     0
SMALL
bcc


@<TRIPOS>ATOM
      1 C1          0.0910    1.3730   -0.5290 c3        1 GNL      0.243200
      2 S1          1.6970    1.3730   -0.5290 ss        1 GNL     -0.351300
      3 C2         -0.3440    0.9850    1.0300 c3        1 GNL      0.042500
      4 N2          0.7530    1.4130    1.7090 n2        1 GNL     -0.603900
      5 C3         -0.3200   -0.4280    1.2670 c3        1 GNL      0.120100
      6 O3         -0.9300   -0.6970    2.5820 oh        1 GNL     -0.608800
      7 C4         -1.0690   -1.2150    0.2170 c3        1 GNL      0.125100
      8 O4         -2.3720   -0.9700    0.3400 oh        1 GNL     -0.588800
      9 C5         -0.5800   -0.8170   -1.3560 c3        1 GNL      0.094100
     10 O5         -0.6370    0.5310   -1.5950 os        1 GNL     -0.371600
     11 C6         -1.4440   -1.5040   -2.3080 c3        1 GNL      0.142400
     12 O6         -0.9740   -1.2750   -3.6190 oh        1 GNL     -0.596800
     13 C7          1.9870    1.3730    0.8900 c2        1 GNL      0.475200
     14 C8          3.2610    2.0180    1.4050 c3        1 GNL     -0.133400
     15 H1         -0.1850    2.2970   -0.6750 h2        1 GNL      0.107700
     16 H2         -1.1680    1.4180    1.3250 h1        1 GNL      0.108700
     17 H3          0.6080   -0.7290    1.2830 h1        1 GNL      0.058700
     18 HO3        -0.3940   -1.2240    3.0550 ho        1 GNL      0.429000
     19 H4         -0.9110   -2.1670    0.3650 h1        1 GNL      0.060700
     20 HO4        -2.7860   -1.7040    0.6180 ho        1 GNL      0.425000
     21 H5          0.3390   -1.1210   -1.4870 h1        1 GNL      0.070700
     22 H6         -1.4360   -2.4620   -2.1220 h1        1 GNL      0.067200
     23 H6A        -2.3550   -1.1630   -2.2240 h1        1 GNL      0.067200
     24 HO6        -1.4320   -1.7780   -4.1890 ho        1 GNL      0.414000
     25 H8          3.4820    1.6490    2.2810 hc        1 GNL      0.067367
     26 H8A         3.9910    1.8390    0.7820 hc        1 GNL      0.067367
     27 H8B         3.1280    2.9830    1.4810 hc        1 GNL      0.067367
@<TRIPOS>BOND
     1    1    2 1   
     2    1    3 1   
     3    1   10 1   
     4    1   15 1   
     5    2   13 1   
     6    3    4 1   
     7    3    5 1   
     8    3   16 1   
     9    4   13 2   
    10    5    6 1   
    11    5    7 1   
    12    5   17 1   
    13    6   18 1   
    14    7    8 1   
    15    7    9 1   
    16    7   19 1   
    17    8   20 1   
    18    9   10 1   
    19    9   11 1   
    20    9   21 1   
    21   11   12 1   
    22   11   22 1   
    23   11   23 1   
    24   12   24 1   
    25   13   14 1   
    26   14   25 1   
    27   14   26 1   
    28   14   27 1   
@<TRIPOS>SUBSTRUCTURE
     1 GNL         1 TEMP              0 ****  ****    0 ROOT
