@<TRIPOS>MOLECULE
GNQ
   70    66     1     0     0
SMALL
bcc


@<TRIPOS>ATOM
      1 O5         -0.7850   -4.6730   -0.9020 o         1 GNQ     -0.929000
      2 S           0.5950   -4.2720   -0.7660 ss        1 GNQ      2.801000
      3 O4          0.6410   -3.8990    0.6250 o         1 GNQ     -0.929000
      4 C17         1.6970   -5.6230   -1.1090 c2        1 GNQ     -0.800000
      5 C18         1.3110   -6.8800   -0.1790 c2        1 GNQ     -0.079000
      6 C20         1.8150   -6.9710    1.1280 c1        1 GNQ     -0.103000
      7 C21         1.4770   -8.0850    1.9430 c1        1 GNQ     -0.121500
      8 C22         0.6530   -9.0780    1.4460 c1        1 GNQ     -0.121500
      9 C23         0.1430   -8.9840    0.1200 c1        1 GNQ     -0.124000
     10 C19         0.4740   -7.8910   -0.6790 c2        1 GNQ     -0.120000
     11 C16         0.9670   -2.9030   -1.8070 c2        1 GNQ     -0.886000
     12 CA          0.3340   -1.6440   -1.2330 c3        1 GNQ      0.062000
     13 N          -0.9330   -1.4340   -1.8310 n         1 GNQ     -0.395000
     14 C11        -2.0550   -0.9670   -1.0150 c2        1 GNQ      0.382000
     15 O3         -1.9660   -0.9730    0.2010 o         1 GNQ     -0.408000
     16 N3         -3.3000   -0.5720   -1.6470 n         1 GNQ     -0.265000
     17 C15        -4.4560   -0.1770   -0.9080 c3        1 GNQ     -0.094500
     18 C14        -4.9860    1.1390   -1.3570 c3        1 GNQ     -0.057000
     19 O2         -5.1790    1.1900   -2.7860 os        1 GNQ     -0.267000
     20 C13        -4.0210    0.8000   -3.5000 c3        1 GNQ     -0.057000
     21 C12        -3.4750   -0.5360   -3.0270 c3        1 GNQ     -0.094500
     22 C           1.2450   -0.4290   -1.5130 c2        1 GNQ      0.296000
     23 O           1.7520   -0.2810   -2.6350 o         1 GNQ     -0.390000
     24 N2          1.6070    0.4890   -0.4160 n         1 GNQ     -0.363000
     25 C9          1.5940    1.9100   -0.6370 c3        1 GNQ     -0.009000
     26 C10         0.1660    2.3650   -0.9750 c3        1 GNQ     -0.232000
     27 C8          2.0640    2.6200    0.6010 c3        1 GNQ     -0.063000
     28 N1          1.9680    4.0300    0.4030 n3        1 GNQ     -0.284000
     29 C7          1.7280    4.9090    1.5390 c2        1 GNQ      0.086000
     30 C6          2.5860    4.8610    2.6580 c2        1 GNQ     -0.185000
     31 C5          2.4160    5.7580    3.7000 c1        1 GNQ     -0.084000
     32 C4          0.7260    5.8450    1.4830 c1        1 GNQ     -0.195000
     33 C3          0.5530    6.7530    2.5380 c1        1 GNQ     -0.072000
     34 C2          1.4000    6.7060    3.6430 c1        1 GNQ     -0.021000
     35 O1          1.2040    7.6290    4.7470 os        1 GNQ     -0.246000
     36 C1          1.6800    8.9610    4.4820 c3        1 GNQ      0.529000
     37 F1          0.8660    9.5610    3.6050 f         1 GNQ     -0.148667
     38 F2          1.7030    9.6710    5.6330 f         1 GNQ     -0.148667
     39 F3          2.8950    8.9010    3.9800 f         1 GNQ     -0.148667
     40 H171        2.6080   -5.3510   -0.9260 ha        1 GNQ      0.160500
     41 H172        1.6140   -5.8900   -2.0920 ha        1 GNQ      0.160500
     42 H20         2.3930   -6.2730    1.4750 ha        1 GNQ      0.136000
     43 H21         1.8420   -8.1530    2.8940 ha        1 GNQ      0.137500
     44 H22         0.4190   -9.8530    2.0120 ha        1 GNQ      0.137500
     45 H23        -0.4540   -9.7050   -0.2400 ha        1 GNQ      0.138000
     46 H19         0.1290   -7.8290   -1.5760 ha        1 GNQ      0.148000
     47 H161        0.6110   -3.0690   -2.7040 ha        1 GNQ      0.176500
     48 H162        1.9280   -2.7880   -1.8580 ha        1 GNQ      0.176500
     49 HA          0.2200   -1.7510   -0.2480 h1        1 GNQ      0.143000
     50 HN         -1.0640   -1.6530   -2.6860 hn        1 GNQ      0.246000
     51 H151       -4.2280   -0.1210    0.0310 h1        1 GNQ      0.124500
     52 H152       -5.1500   -0.8500   -1.0240 h1        1 GNQ      0.124500
     53 H141       -4.3370    1.8590   -1.0900 h1        1 GNQ      0.096750
     54 H142       -5.8580    1.3070   -0.9080 h1        1 GNQ      0.096750
     55 H131       -3.3410    1.4750   -3.3840 h1        1 GNQ      0.096750
     56 H132       -4.2370    0.7340   -4.4340 h1        1 GNQ      0.096750
     57 H121       -4.1080   -1.2560   -3.2890 h1        1 GNQ      0.124500
     58 H122       -2.6150   -0.6970   -3.4590 h1        1 GNQ      0.124500
     59 HN2         1.8840    0.1480    0.4010 hn        1 GNQ      0.260000
     60 H9          2.1890    2.1280   -1.3820 h1        1 GNQ      0.119000
     61 H101       -0.1530    1.8840   -1.7890 hc        1 GNQ      0.088000
     62 H102        0.1610    3.3700   -1.1500 hc        1 GNQ      0.088000
     63 H103       -0.4350    2.1600   -0.2140 hc        1 GNQ      0.088000
     64 H81         1.5150    2.3630    1.3480 h1        1 GNQ      0.104000
     65 H82         2.9820    2.3830    0.7790 h1        1 GNQ      0.104000
     66 HN1         2.0770    4.3890   -0.4480 hn        1 GNQ      0.203000
     67 H6          3.3030    4.1930    2.6990 ha        1 GNQ      0.142000
     68 H5          3.0320    5.7220    4.5020 ha        1 GNQ      0.152000
     69 H4          0.1340    5.8780    0.7100 ha        1 GNQ      0.139000
     70 H3         -0.1610    7.4200    2.4980 ha        1 GNQ      0.151000
@<TRIPOS>BOND
     1    1    2 1   
     2    2    3 1   
     3    4    5 1   
     4    4   40 1   
     5    4   41 1   
     6    5    6 1   
     7    5   10 1   
     8    6   42 1   
     9    7    8 1   
    10    7   43 1   
    11    8   44 1   
    12    9   10 1   
    13    9   45 1   
    14   10   46 1   
    15   11   12 1   
    16   11   47 1   
    17   11   48 1   
    18   12   13 1   
    19   12   22 1   
    20   12   49 1   
    21   13   14 1   
    22   13   50 1   
    23   14   15 1   
    24   14   16 1   
    25   16   17 1   
    26   16   21 1   
    27   17   18 1   
    28   17   51 1   
    29   17   52 1   
    30   18   19 1   
    31   18   53 1   
    32   18   54 1   
    33   19   20 1   
    34   20   21 1   
    35   20   55 1   
    36   20   56 1   
    37   21   57 1   
    38   21   58 1   
    39   22   23 1   
    40   22   24 1   
    41   24   25 1   
    42   24   59 1   
    43   25   26 1   
    44   25   27 1   
    45   25   60 1   
    46   26   61 1   
    47   26   62 1   
    48   26   63 1   
    49   27   28 1   
    50   27   64 1   
    51   27   65 1   
    52   28   29 1   
    53   28   66 1   
    54   29   30 1   
    55   29   32 1   
    56   30   31 1   
    57   30   67 1   
    58   31   68 1   
    59   32   69 1   
    60   33   34 1   
    61   33   70 1   
    62   34   35 1   
    63   35   36 1   
    64   36   37 1   
    65   36   38 1   
    66   36   39 1   
@<TRIPOS>SUBSTRUCTURE
     1 GNQ         1 TEMP              0 ****  ****    0 ROOT
