@<TRIPOS>MOLECULE
GNQ
   70    72     1     0     0
SMALL
bcc


@<TRIPOS>ATOM
      1 O5          3.7120   -1.4300   -0.0790 o         1 GNQ     -0.640800
      2 S           2.9700   -1.5140   -1.2580 s6        1 GNQ      1.328000
      3 O4          3.6310   -1.3630   -2.4830 o         1 GNQ     -0.640800
      4 C17         2.0320   -2.9580   -1.2560 c3        1 GNQ     -0.256300
      5 C18         2.8520   -4.1910   -1.1720 ca        1 GNQ     -0.081300
      6 C20         2.9080   -5.0800   -2.2510 ca        1 GNQ     -0.112500
      7 C21         3.6570   -6.2520   -2.1560 ca        1 GNQ     -0.127000
      8 C22         4.3520   -6.5460   -0.9830 ca        1 GNQ     -0.119000
      9 C23         4.2980   -5.6630    0.0960 ca        1 GNQ     -0.127000
     10 C19         3.5510   -4.4910    0.0060 ca        1 GNQ     -0.112500
     11 C16         1.6370   -0.4170   -1.2430 c3        1 GNQ     -0.322600
     12 CA          2.0690    1.0040   -1.6090 c3        1 GNQ      0.064700
     13 N           3.1070    1.5010   -0.7300 n         1 GNQ     -0.518900
     14 C11         2.8370    1.6510    0.6640 c         1 GNQ      0.753100
     15 O3          1.8180    1.1370    1.1800 o         1 GNQ     -0.627100
     16 N3          3.7370    2.3910    1.4730 n         1 GNQ     -0.424800
     17 C15         5.1190    2.5400    1.0560 c3        1 GNQ      0.041000
     18 C14         5.9180    3.4770    1.9740 c3        1 GNQ      0.120900
     19 O2          5.7590    3.1530    3.3480 os        1 GNQ     -0.408600
     20 C13         4.3920    3.1660    3.7410 c3        1 GNQ      0.120900
     21 C12         3.5560    2.1920    2.9050 c3        1 GNQ      0.041000
     22 C           0.8350    1.9310   -1.7200 c         1 GNQ      0.636100
     23 O           0.7010    2.9300   -0.9860 o         1 GNQ     -0.601100
     24 N2         -0.0620    1.6720   -2.7400 n         1 GNQ     -0.546900
     25 C9         -1.3120    2.3970   -2.8260 c3        1 GNQ      0.083700
     26 C10        -1.8340    2.4680   -4.2600 c3        1 GNQ     -0.103100
     27 C8         -2.4480    1.8000   -1.9470 c3        1 GNQ      0.169800
     28 N1         -2.0520    1.5720   -0.5820 nh        1 GNQ     -0.750600
     29 C7         -3.0240    1.2530    0.3670 ca        1 GNQ      0.173600
     30 C6         -2.6940    1.3270    1.7480 ca        1 GNQ     -0.191500
     31 C5         -3.6060    0.9350    2.7160 ca        1 GNQ     -0.077500
     32 C4         -4.3090    0.7840    0.0030 ca        1 GNQ     -0.191500
     33 C3         -5.2210    0.3880    0.9740 ca        1 GNQ     -0.077500
     34 C2         -4.8650    0.4630    2.3240 ca        1 GNQ      0.020100
     35 O1         -5.7110   -0.0630    3.3010 os        1 GNQ     -0.361900
     36 C1         -6.7880    0.7350    3.7150 c3        1 GNQ      0.813700
     37 F1         -7.6740    0.9560    2.7100 f         1 GNQ     -0.220967
     38 F2         -7.3990    0.0220    4.6930 f         1 GNQ     -0.220967
     39 F3         -6.3890    1.9300    4.2180 f         1 GNQ     -0.220967
     40 H171        1.3150   -2.9630   -0.3880 h1        1 GNQ      0.115700
     41 H172        1.3890   -3.0150   -2.1750 h1        1 GNQ      0.115700
     42 H20         2.3630   -4.8540   -3.1800 ha        1 GNQ      0.143500
     43 H21         3.7000   -6.9440   -3.0100 ha        1 GNQ      0.136500
     44 H22         4.9410   -7.4710   -0.9090 ha        1 GNQ      0.135000
     45 H23         4.8480   -5.8900    1.0220 ha        1 GNQ      0.136500
     46 H19         3.5240   -3.7850    0.8530 ha        1 GNQ      0.143500
     47 H161        1.1410   -0.3900   -0.2300 h1        1 GNQ      0.132700
     48 H162        0.8430   -0.7430   -1.9600 h1        1 GNQ      0.132700
     49 HA          2.5480    0.9640   -2.6420 h1        1 GNQ      0.098700
     50 HN          3.6050    2.2660   -1.1400 hn        1 GNQ      0.303500
     51 H151        5.6330    1.5360    1.0230 h1        1 GNQ      0.060700
     52 H152        5.1550    2.9900    0.0240 h1        1 GNQ      0.060700
     53 H141        7.0150    3.3500    1.7790 h1        1 GNQ      0.057950
     54 H142        5.6160    4.5450    1.8030 h1        1 GNQ      0.057950
     55 H131        4.4050    2.8330    4.8120 h1        1 GNQ      0.057950
     56 H132        3.9870    4.2100    3.6660 h1        1 GNQ      0.057950
     57 H121        2.4660    2.3470    3.1440 h1        1 GNQ      0.060700
     58 H122        3.8300    1.1360    3.1890 h1        1 GNQ      0.060700
     59 HN2        -0.0360    0.7850   -3.1850 hn        1 GNQ      0.304500
     60 H9         -1.1070    3.4510   -2.4630 h1        1 GNQ      0.090700
     61 H101       -2.0670    1.4520   -4.6590 hc        1 GNQ      0.048367
     62 H102       -2.7680    3.0800   -4.2750 hc        1 GNQ      0.048367
     63 H103       -1.0820    2.9510   -4.9290 hc        1 GNQ      0.048367
     64 H81        -3.3260    2.5080   -2.0160 h1        1 GNQ      0.042700
     65 H82        -2.7730    0.8130   -2.3850 h1        1 GNQ      0.042700
     66 HN1        -1.3220    2.1710   -0.2460 hn        1 GNQ      0.435800
     67 H6         -1.7010    1.6900    2.0580 ha        1 GNQ      0.144500
     68 H5         -3.3470    0.9860    3.7840 ha        1 GNQ      0.150500
     69 H4         -4.6030    0.7200   -1.0550 ha        1 GNQ      0.144500
     70 H3         -6.2200    0.0240    0.6910 ha        1 GNQ      0.150500
@<TRIPOS>BOND
     1    1    2 2   
     2    2    3 2   
     3    2    4 1   
     4    2   11 1   
     5    4    5 1   
     6    4   40 1   
     7    4   41 1   
     8    5    6 ar  
     9    5   10 ar  
    10    6    7 ar  
    11    6   42 1   
    12    7    8 ar  
    13    7   43 1   
    14    8    9 ar  
    15    8   44 1   
    16    9   10 ar  
    17    9   45 1   
    18   10   46 1   
    19   11   12 1   
    20   11   47 1   
    21   11   48 1   
    22   12   13 1   
    23   12   22 1   
    24   12   49 1   
    25   13   14 1   
    26   13   50 1   
    27   14   15 2   
    28   14   16 1   
    29   16   17 1   
    30   16   21 1   
    31   17   18 1   
    32   17   51 1   
    33   17   52 1   
    34   18   19 1   
    35   18   53 1   
    36   18   54 1   
    37   19   20 1   
    38   20   21 1   
    39   20   55 1   
    40   20   56 1   
    41   21   57 1   
    42   21   58 1   
    43   22   23 2   
    44   22   24 1   
    45   24   25 1   
    46   24   59 1   
    47   25   26 1   
    48   25   27 1   
    49   25   60 1   
    50   26   61 1   
    51   26   62 1   
    52   26   63 1   
    53   27   28 1   
    54   27   64 1   
    55   27   65 1   
    56   28   29 1   
    57   28   66 1   
    58   29   30 ar  
    59   29   32 ar  
    60   30   31 ar  
    61   30   67 1   
    62   31   34 ar  
    63   31   68 1   
    64   32   33 ar  
    65   32   69 1   
    66   33   34 ar  
    67   33   70 1   
    68   34   35 1   
    69   35   36 1   
    70   36   37 1   
    71   36   38 1   
    72   36   39 1   
@<TRIPOS>SUBSTRUCTURE
     1 GNQ         1 TEMP              0 ****  ****    0 ROOT
