@<TRIPOS>MOLECULE
GNQ
   72    74     1     0     0
SMALL
bcc


@<TRIPOS>ATOM
      1 O5          0.2060    0.6340    0.2830 o         1 GNQ     -0.639800
      2 S           1.4410    0.6380    0.9630 s6        1 GNQ      1.288000
      3 O4          1.4000    0.9740    2.3100 o         1 GNQ     -0.639800
      4 C17         2.5370   -0.5410    0.5050 c3        1 GNQ     -0.245300
      5 C18         2.0810   -1.8650    1.0090 ca        1 GNQ     -0.169300
      6 C20         2.3790   -2.2530    2.3240 ca        1 GNQ     -0.097000
      7 C21         1.9850   -3.5070    2.7840 ca        1 GNQ     -0.114500
      8 C22         1.3050   -4.3840    1.9360 ca        1 GNQ     -0.071000
      9 C23         1.0190   -4.0040    0.6230 ca        1 GNQ     -0.114500
     10 C19         1.4100   -2.7510    0.1560 ca        1 GNQ     -0.097000
     11 C16         2.2270    2.0880    0.2190 c3        1 GNQ     -0.325600
     12 CA          1.4820    3.3710    0.5150 c3        1 GNQ      0.130500
     13 N           0.0760    3.3820   -0.0310 n4        1 GNQ     -0.676800
     14 C11         0.0530    3.3130   -1.5720 c         1 GNQ      0.644100
     15 O3          1.0610    3.8420   -2.0860 o         1 GNQ     -0.614100
     16 N3         -1.0230    2.7830   -2.2040 n         1 GNQ     -0.353800
     17 C15        -2.0680    2.0490   -1.4990 c3        1 GNQ      0.026500
     18 C14        -3.3240    1.7830   -2.3520 c3        1 GNQ      0.115900
     19 O2         -2.9910    1.3790   -3.6670 os        1 GNQ     -0.367600
     20 C13        -2.2550    2.3830   -4.3470 c3        1 GNQ      0.115900
     21 C12        -0.9020    2.6130   -3.6590 c3        1 GNQ      0.026500
     22 C           2.1830    4.6710    0.0680 c         1 GNQ      0.531100
     23 O           1.6960    5.7640    0.3340 o         1 GNQ     -0.396100
     24 N2          3.4420    4.6050   -0.7050 n4        1 GNQ     -0.643800
     25 C9          4.3640    5.7920   -0.4720 c3        1 GNQ      0.124500
     26 C10         4.8720    5.8440    0.9570 c3        1 GNQ     -0.142100
     27 C8          5.5800    5.7240   -1.4460 c3        1 GNQ      0.151800
     28 N1          5.1560    5.4800   -2.8030 nh        1 GNQ     -0.763600
     29 C7          5.9130    4.5260   -3.5500 ca        1 GNQ      0.020600
     30 C6          5.2330    3.7730   -4.5330 ca        1 GNQ     -0.115000
     31 C5          5.9070    2.8220   -5.2850 ca        1 GNQ     -0.140500
     32 C4          7.2920    4.3170   -3.3620 ca        1 GNQ     -0.115000
     33 C3          7.9730    3.3540   -4.1010 ca        1 GNQ     -0.140500
     34 C2          7.2780    2.6040   -5.0560 ca        1 GNQ      0.150100
     35 O1          7.8230    1.5880   -5.8180 os        1 GNQ     -0.368900
     36 C1          9.2230    1.4250   -5.9020 c3        1 GNQ      0.830700
     37 F1          9.7280    1.0080   -4.7160 f         1 GNQ     -0.198300
     38 F2          9.3850    0.4640   -6.8380 f         1 GNQ     -0.198300
     39 F3          9.8440    2.5660   -6.2840 f         1 GNQ     -0.198300
     40 H171        3.5740   -0.3560    0.9100 h1        1 GNQ      0.148700
     41 H172        2.6730   -0.6160   -0.6110 h1        1 GNQ      0.148700
     42 H20         2.9240   -1.5720    2.9960 ha        1 GNQ      0.139500
     43 H21         2.2170   -3.8090    3.8180 ha        1 GNQ      0.163500
     44 H22         0.9990   -5.3790    2.3010 ha        1 GNQ      0.166000
     45 H23         0.4910   -4.6990   -0.0500 ha        1 GNQ      0.163500
     46 H19         1.1950   -2.4660   -0.8850 ha        1 GNQ      0.139500
     47 H161        3.2510    2.1600    0.6700 h1        1 GNQ      0.125200
     48 H162        2.3410    1.9300   -0.8830 h1        1 GNQ      0.125200
     49 HA          1.3780    3.4620    1.6550 hx        1 GNQ      0.173700
     50 HN         -0.4390    2.5710    0.3670 hn        1 GNQ      0.494300
     51 H151       -2.4090    2.6440   -0.6050 h1        1 GNQ      0.087450
     52 H152       -1.6400    1.0600   -1.1490 h1        1 GNQ      0.087450
     53 H141       -3.9750    2.6970   -2.3780 h1        1 GNQ      0.095200
     54 H142       -3.8880    0.9130   -1.9160 h1        1 GNQ      0.095200
     55 H131       -2.0800    1.9660   -5.3770 h1        1 GNQ      0.095200
     56 H132       -2.8440    3.3350   -4.4080 h1        1 GNQ      0.095200
     57 H121       -0.4170    3.5350   -4.0910 h1        1 GNQ      0.087450
     58 H122       -0.2340    1.7240   -3.8490 h1        1 GNQ      0.087450
     59 HN2         3.9530    3.7430   -0.4950 hn        1 GNQ      0.486800
     60 H9          3.7440    6.7120   -0.6970 hx        1 GNQ      0.128700
     61 H101        5.4850    4.9470    1.2180 hc        1 GNQ      0.083700
     62 H102        5.5240    6.7510    1.0630 hc        1 GNQ      0.083700
     63 H103        4.0300    5.9450    1.6850 hc        1 GNQ      0.083700
     64 H81         6.2770    4.9160   -1.0830 h1        1 GNQ      0.087200
     65 H82         6.1090    6.7140   -1.3210 h1        1 GNQ      0.087200
     66 HN1         5.0550    6.3330   -3.3250 hn        1 GNQ      0.413800
     67 H6          4.1660    3.9540   -4.7360 ha        1 GNQ      0.142500
     68 H5          5.3900    2.2400   -6.0650 ha        1 GNQ      0.173500
     69 H4          7.8620    4.9220   -2.6380 ha        1 GNQ      0.142500
     70 H3          9.0540    3.2040   -3.9470 ha        1 GNQ      0.173500
     71 H2         -0.3880    4.2540    0.2590 hn        1 GNQ      0.494300
     72 H221        3.1860    4.5920   -1.7160 hn        1 GNQ      0.486800
@<TRIPOS>BOND
     1    1    2 2   
     2    2    3 2   
     3    2    4 1   
     4    2   11 1   
     5    4    5 1   
     6    4   40 1   
     7    4   41 1   
     8    5    6 ar  
     9    5   10 ar  
    10    6    7 ar  
    11    6   42 1   
    12    7    8 ar  
    13    7   43 1   
    14    8    9 ar  
    15    8   44 1   
    16    9   10 ar  
    17    9   45 1   
    18   10   46 1   
    19   11   12 1   
    20   11   47 1   
    21   11   48 1   
    22   12   13 1   
    23   12   22 1   
    24   12   49 1   
    25   13   14 1   
    26   13   50 1   
    27   13   71 1   
    28   14   15 2   
    29   14   16 1   
    30   16   17 1   
    31   16   21 1   
    32   17   18 1   
    33   17   51 1   
    34   17   52 1   
    35   18   19 1   
    36   18   53 1   
    37   18   54 1   
    38   19   20 1   
    39   20   21 1   
    40   20   55 1   
    41   20   56 1   
    42   21   57 1   
    43   21   58 1   
    44   22   23 2   
    45   22   24 1   
    46   24   25 1   
    47   24   59 1   
    48   24   72 1   
    49   25   26 1   
    50   25   27 1   
    51   25   60 1   
    52   26   61 1   
    53   26   62 1   
    54   26   63 1   
    55   27   28 1   
    56   27   64 1   
    57   27   65 1   
    58   28   29 1   
    59   28   66 1   
    60   29   30 ar  
    61   29   32 ar  
    62   30   31 ar  
    63   30   67 1   
    64   31   34 ar  
    65   31   68 1   
    66   32   33 ar  
    67   32   69 1   
    68   33   34 ar  
    69   33   70 1   
    70   34   35 1   
    71   35   36 1   
    72   36   37 1   
    73   36   38 1   
    74   36   39 1   
@<TRIPOS>SUBSTRUCTURE
     1 GNQ         1 TEMP              0 ****  ****    0 ROOT
