@<TRIPOS>MOLECULE
GNQ
   72    74     1     0     0
SMALL
bcc


@<TRIPOS>ATOM
      1 O5          0.2380    0.6570    0.3530 o         1 GNQ     -0.639800
      2 S           1.4830    0.6760    1.0140 s6        1 GNQ      1.288000
      3 O4          1.4620    1.0390    2.3550 o         1 GNQ     -0.639800
      4 C17         2.5750   -0.5080    0.5620 c3        1 GNQ     -0.245300
      5 C18         2.1300   -1.8230    1.0990 ca        1 GNQ     -0.169300
      6 C20         2.4490   -2.1860    2.4160 ca        1 GNQ     -0.097000
      7 C21         2.0640   -3.4310    2.9060 ca        1 GNQ     -0.114500
      8 C22         1.3740   -4.3260    2.0850 ca        1 GNQ     -0.071000
      9 C23         1.0670   -3.9720    0.7700 ca        1 GNQ     -0.114500
     10 C19         1.4480   -2.7270    0.2730 ca        1 GNQ     -0.097000
     11 C16         2.2540    2.1140    0.2300 c3        1 GNQ     -0.325600
     12 CA          1.5100    3.4010    0.5140 c3        1 GNQ      0.130500
     13 N           0.0970    3.3980   -0.0120 ny        1 GNQ     -0.676800
     14 C11         0.0510    3.3010   -1.5500 c         1 GNQ      0.644100
     15 O3          1.0490    3.8230   -2.0890 o         1 GNQ     -0.614100
     16 N3         -1.0340    2.7570   -2.1560 n         1 GNQ     -0.353800
     17 C15        -2.0660    2.0330   -1.4210 c3        1 GNQ      0.026500
     18 C14        -3.3340    1.7490   -2.2500 c3        1 GNQ      0.115900
     19 O2         -3.0200    1.3210   -3.5630 os        1 GNQ     -0.367600
     20 C13        -2.2970    2.3140   -4.2720 c3        1 GNQ      0.115900
     21 C12        -0.9340    2.5600   -3.6090 c3        1 GNQ      0.026500
     22 C           2.2010    4.6940    0.0320 c         1 GNQ      0.531100
     23 O           1.7170    5.7900    0.2860 o         1 GNQ     -0.396100
     24 N2          3.4480    4.6170   -0.7590 ny        1 GNQ     -0.643800
     25 C9          4.3740    5.8060   -0.5580 c3        1 GNQ      0.124500
     26 C10         4.9050    5.8780    0.8610 c3        1 GNQ     -0.142100
     27 C8          5.5720    5.7260   -1.5510 c3        1 GNQ      0.151800
     28 N1          5.1270    5.4650   -2.8970 nu        1 GNQ     -0.763600
     29 C7          5.8710    4.5020   -3.6450 ca        1 GNQ      0.020600
     30 C6          5.1750    3.7360   -4.6070 ca        1 GNQ     -0.115000
     31 C5          5.8370    2.7760   -5.3580 ca        1 GNQ     -0.140500
     32 C4          7.2530    4.2960   -3.4780 ca        1 GNQ     -0.115000
     33 C3          7.9220    3.3250   -4.2170 ca        1 GNQ     -0.140500
     34 C2          7.2120    2.5620   -5.1490 ca        1 GNQ      0.150100
     35 O1          7.7450    1.5360   -5.9080 os        1 GNQ     -0.368900
     36 C1          9.1430    1.3750   -6.0160 c3        1 GNQ      0.830700
     37 F1          9.6710    0.9740   -4.8330 f         1 GNQ     -0.198300
     38 F2          9.2900    0.4020   -6.9410 f         1 GNQ     -0.198300
     39 F3          9.7550    2.5120   -6.4220 f         1 GNQ     -0.198300
     40 H171        2.6940   -0.6040   -0.5550 h1        1 GNQ      0.148700
     41 H172        3.6170   -0.3140    0.9470 h1        1 GNQ      0.148700
     42 H20         3.0020   -1.4900    3.0660 ha        1 GNQ      0.139500
     43 H21         2.3130   -3.7120    3.9430 ha        1 GNQ      0.163500
     44 H22         1.0770   -5.3140    2.4740 ha        1 GNQ      0.166000
     45 H23         0.5310   -4.6810    0.1190 ha        1 GNQ      0.163500
     46 H19         1.2170   -2.4630   -0.7700 ha        1 GNQ      0.139500
     47 H161        3.2850    2.1970    0.6630 h1        1 GNQ      0.125200
     48 H162        2.3520    1.9360   -0.8700 h1        1 GNQ      0.125200
     49 HA          1.4240    3.5130    1.6530 hx        1 GNQ      0.173700
     50 HN         -0.4100    2.5940    0.4090 hn        1 GNQ      0.494300
     51 H151       -1.6300    1.0520   -1.0600 h1        1 GNQ      0.087450
     52 H152       -2.3960    2.6440   -0.5330 h1        1 GNQ      0.087450
     53 H141       -3.9880    2.6600   -2.2830 h1        1 GNQ      0.095200
     54 H142       -3.8880    0.8850   -1.7900 h1        1 GNQ      0.095200
     55 H131       -2.8900    3.2640   -4.3410 h1        1 GNQ      0.095200
     56 H132       -2.1360    1.8790   -5.2970 h1        1 GNQ      0.095200
     57 H121       -0.4590    3.4750   -4.0650 h1        1 GNQ      0.087450
     58 H122       -0.2670    1.6690   -3.7930 h1        1 GNQ      0.087450
     59 HN2         3.1770    4.5890   -1.7660 hn        1 GNQ      0.486800
     60 H9          3.7490    6.7230   -0.7850 hx        1 GNQ      0.128700
     61 H101        5.5230    4.9860    1.1240 hc        1 GNQ      0.083700
     62 H102        4.0750    5.9890    1.6020 hc        1 GNQ      0.083700
     63 H103        5.5570    6.7870    0.9450 hc        1 GNQ      0.083700
     64 H81         6.2760    4.9230   -1.1900 h1        1 GNQ      0.087200
     65 H82         6.1040    6.7180   -1.4480 h1        1 GNQ      0.087200
     66 HN1         5.0160    6.3110   -3.4280 hn        1 GNQ      0.413800
     67 H6          4.1040    3.9140   -4.7930 ha        1 GNQ      0.142500
     68 H5          5.3070    2.1840   -6.1210 ha        1 GNQ      0.173500
     69 H4          7.8350    4.9100   -2.7720 ha        1 GNQ      0.142500
     70 H3          9.0060    3.1770   -4.0790 ha        1 GNQ      0.173500
     71 H2         -0.3650    4.2750    0.2690 hn        1 GNQ      0.494300
     72 H221        3.9630    3.7580   -0.5450 hn        1 GNQ      0.486800
@<TRIPOS>BOND
     1    1    2 2   
     2    2    3 2   
     3    2    4 1   
     4    2   11 1   
     5    4    5 1   
     6    4   40 1   
     7    4   41 1   
     8    5    6 ar  
     9    5   10 ar  
    10    6    7 ar  
    11    6   42 1   
    12    7    8 ar  
    13    7   43 1   
    14    8    9 ar  
    15    8   44 1   
    16    9   10 ar  
    17    9   45 1   
    18   10   46 1   
    19   11   12 1   
    20   11   47 1   
    21   11   48 1   
    22   12   13 1   
    23   12   22 1   
    24   12   49 1   
    25   13   14 1   
    26   13   50 1   
    27   13   71 1   
    28   14   15 2   
    29   14   16 1   
    30   16   17 1   
    31   16   21 1   
    32   17   18 1   
    33   17   51 1   
    34   17   52 1   
    35   18   19 1   
    36   18   53 1   
    37   18   54 1   
    38   19   20 1   
    39   20   21 1   
    40   20   55 1   
    41   20   56 1   
    42   21   57 1   
    43   21   58 1   
    44   22   23 2   
    45   22   24 1   
    46   24   25 1   
    47   24   59 1   
    48   24   72 1   
    49   25   26 1   
    50   25   27 1   
    51   25   60 1   
    52   26   61 1   
    53   26   62 1   
    54   26   63 1   
    55   27   28 1   
    56   27   64 1   
    57   27   65 1   
    58   28   29 1   
    59   28   66 1   
    60   29   30 ar  
    61   29   32 ar  
    62   30   31 ar  
    63   30   67 1   
    64   31   34 ar  
    65   31   68 1   
    66   32   33 ar  
    67   32   69 1   
    68   33   34 ar  
    69   33   70 1   
    70   34   35 1   
    71   35   36 1   
    72   36   37 1   
    73   36   38 1   
    74   36   39 1   
@<TRIPOS>SUBSTRUCTURE
     1 GNQ         1 TEMP              0 ****  ****    0 ROOT
