@<TRIPOS>MOLECULE
GNQ
   73    75     1     0     0
SMALL
bcc


@<TRIPOS>ATOM
      1 O5         -0.6170    0.4450    0.2840 o         1 GNQ     -0.635800
      2 S           0.5050    0.1600    1.0850 s6        1 GNQ      1.267000
      3 O4          0.4860    0.7140    2.3610 o         1 GNQ     -0.635800
      4 C17         1.2410   -1.3230    0.8750 c3        1 GNQ     -0.231300
      5 C18         0.3700   -2.3710    1.4720 ca        1 GNQ     -0.190300
      6 C20         0.4870   -2.6870    2.8350 ca        1 GNQ     -0.093500
      7 C21        -0.2970   -3.6980    3.3840 ca        1 GNQ     -0.112500
      8 C22        -1.1900   -4.4090    2.5780 ca        1 GNQ     -0.057000
      9 C23        -1.2980   -4.1060    1.2180 ca        1 GNQ     -0.112500
     10 C19        -0.5170   -3.0950    0.6630 ca        1 GNQ     -0.093500
     11 C16         1.7380    1.2670    0.2700 c3        1 GNQ     -0.316600
     12 CA          1.4040    2.7200    0.5160 c3        1 GNQ      0.146500
     13 N           0.0590    3.1210   -0.0370 n4        1 GNQ     -0.675800
     14 C11         0.0280    3.0590   -1.5790 c         1 GNQ      0.644100
     15 O3          1.1540    3.3110   -2.0750 o         1 GNQ     -0.668100
     16 N3         -1.1340    2.8200   -2.2210 n         1 GNQ     -0.328800
     17 C15        -2.3560    2.4170   -1.5280 c3        1 GNQ      0.022000
     18 C14        -3.6280    2.5180   -2.3960 c3        1 GNQ      0.114900
     19 O2         -3.4050    2.0360   -3.7070 os        1 GNQ     -0.358600
     20 C13        -2.4170    2.8010   -4.3770 c3        1 GNQ      0.114900
     21 C12        -1.0570    2.6390   -3.6810 c3        1 GNQ      0.022000
     22 C           2.4500    3.7410    0.0340 c         1 GNQ      0.542100
     23 O           2.3590    4.9370    0.2630 o         1 GNQ     -0.381100
     24 N2          3.6360    3.2690   -0.7670 n4        1 GNQ     -0.660800
     25 C9          4.8410    4.1780   -0.6570 c3        1 GNQ      0.105500
     26 C10         5.6840    3.8250    0.5600 c3        1 GNQ     -0.159100
     27 C8          5.6910    4.1030   -1.9550 c3        1 GNQ      0.072800
     28 N1          6.7960    5.1060   -1.9860 n4        1 GNQ     -0.601400
     29 C7          7.5550    5.0280   -3.2400 ca        1 GNQ     -0.154400
     30 C6          7.1490    5.8060   -4.3470 ca        1 GNQ     -0.058000
     31 C5          7.8950    5.7810   -5.5100 ca        1 GNQ     -0.143500
     32 C4          8.7100    4.2260   -3.3080 ca        1 GNQ     -0.058000
     33 C3          9.4590    4.2000   -4.4760 ca        1 GNQ     -0.143500
     34 C2          9.0580    4.9740   -5.5800 ca        1 GNQ      0.244100
     35 O1          9.7020    5.0310   -6.7800 os        1 GNQ     -0.355900
     36 C1         10.9190    4.3210   -7.0210 c3        1 GNQ      0.840700
     37 F1         10.7060    2.9910   -6.9000 f         1 GNQ     -0.178300
     38 F2         11.2280    4.6570   -8.2860 f         1 GNQ     -0.178300
     39 F3         11.8730    4.7200   -6.1520 f         1 GNQ     -0.178300
     40 H171        2.2540   -1.3920    1.3670 h1        1 GNQ      0.151200
     41 H172        1.4220   -1.5880   -0.2060 h1        1 GNQ      0.151200
     42 H20         1.1990   -2.1430    3.4750 ha        1 GNQ      0.139500
     43 H21        -0.2050   -3.9440    4.4550 ha        1 GNQ      0.171000
     44 H22        -1.8050   -5.2160    3.0140 ha        1 GNQ      0.175000
     45 H23        -1.9940   -4.6760    0.5800 ha        1 GNQ      0.171000
     46 H19        -0.5950   -2.8770   -0.4130 ha        1 GNQ      0.139500
     47 H161        1.7740    1.0230   -0.8180 h1        1 GNQ      0.116200
     48 H162        2.7250    1.0290    0.7350 h1        1 GNQ      0.116200
     49 HA          1.3390    2.8760    1.6550 hx        1 GNQ      0.192700
     50 HN         -0.1550    4.0850    0.2550 hn        1 GNQ      0.500300
     51 H151       -2.5250    3.0830   -0.6350 h1        1 GNQ      0.090950
     52 H152       -2.2280    1.3450   -1.1820 h1        1 GNQ      0.090950
     53 H141       -3.9970    3.5780   -2.4230 h1        1 GNQ      0.101700
     54 H142       -4.4190    1.8390   -1.9680 h1        1 GNQ      0.101700
     55 H131       -2.7170    3.8810   -4.4320 h1        1 GNQ      0.101700
     56 H132       -2.3580    2.3580   -5.4100 h1        1 GNQ      0.101700
     57 H121       -0.6670    1.5980   -3.8720 h1        1 GNQ      0.090950
     58 H122       -0.3310    3.3910   -4.1020 h1        1 GNQ      0.090950
     59 HN2         3.3140    3.2200   -1.7520 hn        1 GNQ      0.486300
     60 H9          4.4350    5.2350   -0.5410 hx        1 GNQ      0.144700
     61 H101        6.2450    2.8680    0.4140 hc        1 GNQ      0.099033
     62 H102        5.0590    3.7390    1.4860 hc        1 GNQ      0.099033
     63 H103        6.4200    4.6470    0.7580 hc        1 GNQ      0.099033
     64 H81         6.1610    3.0800   -2.0560 hx        1 GNQ      0.128200
     65 H82         5.0490    4.2920   -2.8670 hx        1 GNQ      0.128200
     66 HN1         6.4110    6.0570   -1.8970 hn        1 GNQ      0.467300
     67 H6          6.2560    6.4520   -4.3010 ha        1 GNQ      0.158500
     68 H5          7.6080    6.3890   -6.3880 ha        1 GNQ      0.204500
     69 H4          9.0500    3.6240   -2.4470 ha        1 GNQ      0.158500
     70 H3         10.3740    3.5810   -4.5280 ha        1 GNQ      0.204500
     71 H2         -0.6620    2.4810    0.3590 hn        1 GNQ      0.500300
     72 H221        3.8960    2.3220   -0.4630 hn        1 GNQ      0.486300
     73 H12         7.4410    4.9380   -1.2010 hn        1 GNQ      0.467300
@<TRIPOS>BOND
     1    1    2 2   
     2    2    3 2   
     3    2    4 1   
     4    2   11 1   
     5    4    5 1   
     6    4   40 1   
     7    4   41 1   
     8    5    6 ar  
     9    5   10 ar  
    10    6    7 ar  
    11    6   42 1   
    12    7    8 ar  
    13    7   43 1   
    14    8    9 ar  
    15    8   44 1   
    16    9   10 ar  
    17    9   45 1   
    18   10   46 1   
    19   11   12 1   
    20   11   47 1   
    21   11   48 1   
    22   12   13 1   
    23   12   22 1   
    24   12   49 1   
    25   13   14 1   
    26   13   50 1   
    27   13   71 1   
    28   14   15 2   
    29   14   16 1   
    30   16   17 1   
    31   16   21 1   
    32   17   18 1   
    33   17   51 1   
    34   17   52 1   
    35   18   19 1   
    36   18   53 1   
    37   18   54 1   
    38   19   20 1   
    39   20   21 1   
    40   20   55 1   
    41   20   56 1   
    42   21   57 1   
    43   21   58 1   
    44   22   23 2   
    45   22   24 1   
    46   24   25 1   
    47   24   59 1   
    48   24   72 1   
    49   25   26 1   
    50   25   27 1   
    51   25   60 1   
    52   26   61 1   
    53   26   62 1   
    54   26   63 1   
    55   27   28 1   
    56   27   64 1   
    57   27   65 1   
    58   28   29 1   
    59   28   66 1   
    60   28   73 1   
    61   29   30 ar  
    62   29   32 ar  
    63   30   31 ar  
    64   30   67 1   
    65   31   34 ar  
    66   31   68 1   
    67   32   33 ar  
    68   32   69 1   
    69   33   34 ar  
    70   33   70 1   
    71   34   35 1   
    72   35   36 1   
    73   36   37 1   
    74   36   38 1   
    75   36   39 1   
@<TRIPOS>SUBSTRUCTURE
     1 GNQ         1 TEMP              0 ****  ****    0 ROOT
