@<TRIPOS>MOLECULE
GNR
   26    27     1     0     0
SMALL
bcc


@<TRIPOS>ATOM
      1 OAM         3.2130    0.2400   -0.2620 o         1 GNR     -0.604500
      2 CAH         1.9880    0.1450   -0.4510 c         1 GNR      0.706500
      3 NAG         1.4740    0.5240   -1.6830 n         1 GNR     -0.469100
      4 CAD         0.1500    0.3500   -2.1050 ca        1 GNR      0.072600
      5 CAC        -0.2890    0.9670   -3.3000 ca        1 GNR     -0.164000
      6 CAB        -1.5910    0.7790   -3.7440 ca        1 GNR     -0.095000
      7 CAA        -2.4830   -0.0100   -3.0150 ca        1 GNR     -0.147000
      8 CAF        -2.0680   -0.6070   -1.8310 ca        1 GNR     -0.079000
      9 CAE        -0.7590   -0.4420   -1.3660 ca        1 GNR     -0.073100
     10 SAJ        -0.3150   -1.2710    0.0400 ss        1 GNR     -0.132000
     11 CAI         1.0520   -0.3260    0.6430 c3        1 GNR     -0.092600
     12 CAK         0.6390    0.8690    1.4830 c3        1 GNR     -0.147400
     13 CAL         0.1440    0.4290    2.8460 c         1 GNR      0.594100
     14 OAN         0.7100   -0.4560    3.5060 o         1 GNR     -0.554100
     15 NAO        -0.9030    1.2080    3.4320 n         1 GNR     -0.346400
     16 OAP        -1.5090    0.6320    4.4730 oh        1 GNR     -0.435100
     17 HAG         2.1220    0.8790   -2.3540 hn        1 GNR      0.337500
     18 HAC         0.4020    1.5920   -3.8870 ha        1 GNR      0.140000
     19 HAB        -1.9190    1.2580   -4.6800 ha        1 GNR      0.139000
     20 HAA        -3.5120   -0.1570   -3.3760 ha        1 GNR      0.141000
     21 HAF        -2.7690   -1.2230   -1.2470 ha        1 GNR      0.147000
     22 HAI         1.6280   -1.0460    1.2990 h1        1 GNR      0.151700
     23 HAK1       -0.1300    1.4730    0.9350 hc        1 GNR      0.086700
     24 HAK2        1.5340    1.5300    1.6610 hc        1 GNR      0.086700
     25 HAO        -1.6240    1.4570    2.7620 hn        1 GNR      0.300500
     26 HAP        -0.8600    0.6520    5.2050 ho        1 GNR      0.436000
@<TRIPOS>BOND
     1    1    2 2   
     2    2    3 1   
     3    2   11 1   
     4    3    4 1   
     5    3   17 1   
     6    4    5 ar  
     7    4    9 ar  
     8    5    6 ar  
     9    5   18 1   
    10    6    7 ar  
    11    6   19 1   
    12    7    8 ar  
    13    7   20 1   
    14    8    9 ar  
    15    8   21 1   
    16    9   10 1   
    17   10   11 1   
    18   11   12 1   
    19   11   22 1   
    20   12   13 1   
    21   12   23 1   
    22   12   24 1   
    23   13   14 2   
    24   13   15 1   
    25   15   16 1   
    26   15   25 1   
    27   16   26 1   
@<TRIPOS>SUBSTRUCTURE
     1 GNR         1 TEMP              0 ****  ****    0 ROOT
