@<TRIPOS>MOLECULE
GNR
   27    28     1     0     0
SMALL
bcc


@<TRIPOS>ATOM
      1 OAM         0.0730   -0.4740   -0.2150 o         1 GNR     -0.548500
      2 CAH         1.2820   -0.2110   -0.1650 c         1 GNR      0.707500
      3 NAG         1.9300   -0.1300    1.0570 n         1 GNR     -0.463100
      4 CAD         3.3070    0.0250    1.2480 ca        1 GNR      0.107600
      5 CAC         3.8070    0.2820    2.5490 ca        1 GNR     -0.156000
      6 CAB         5.1710    0.4290    2.7550 ca        1 GNR     -0.053000
      7 CAA         6.0700    0.3350    1.6860 ca        1 GNR     -0.134000
      8 CAF         5.5930    0.0910    0.4070 ca        1 GNR     -0.074000
      9 CAE         4.2210   -0.0650    0.1740 ca        1 GNR     -0.151100
     10 SAJ         3.7240   -0.5040   -1.3890 ss        1 GNR     -0.076000
     11 CAI         2.0550    0.0880   -1.4450 c3        1 GNR     -0.134600
     12 CAK         1.8890    1.5660   -1.7480 c3        1 GNR     -0.156400
     13 CAL         2.4870    1.9750   -3.0650 c         1 GNR      0.548100
     14 OAN         1.9200    2.3860   -4.0560 o         1 GNR     -0.343100
     15 NAO         4.0160    1.8490   -3.1010 n4        1 GNR     -0.523300
     16 OAP         4.4020    1.7490   -4.3900 oh        1 GNR     -0.350300
     17 HAG         1.3740   -0.3040    1.8730 hn        1 GNR      0.361500
     18 HAC         3.1140    0.3550    3.4040 ha        1 GNR      0.164000
     19 HAB         5.5500    0.6190    3.7740 ha        1 GNR      0.166000
     20 HAA         7.1510    0.4440    1.8640 ha        1 GNR      0.164000
     21 HAF         6.3000   -0.0050   -0.4330 ha        1 GNR      0.140000
     22 HAI         1.5670   -0.5210   -2.2640 h1        1 GNR      0.156700
     23 HAK1        0.7820    1.8020   -1.8020 hc        1 GNR      0.131200
     24 HAK2        2.3240    2.1950   -0.9220 hc        1 GNR      0.131200
     25 HAO         4.2740    0.9450   -2.5070 hn        1 GNR      0.462300
     26 HAP         5.3640    1.5520   -4.4120 ho        1 GNR      0.461000
     27 HAO2        4.4210    2.6940   -2.6690 hn        1 GNR      0.462300
@<TRIPOS>BOND
     1    1    2 2   
     2    2    3 1   
     3    2   11 1   
     4    3    4 1   
     5    3   17 1   
     6    4    5 ar  
     7    4    9 ar  
     8    5    6 ar  
     9    5   18 1   
    10    6    7 ar  
    11    6   19 1   
    12    7    8 ar  
    13    7   20 1   
    14    8    9 ar  
    15    8   21 1   
    16    9   10 1   
    17   10   11 1   
    18   11   12 1   
    19   11   22 1   
    20   12   13 1   
    21   12   23 1   
    22   12   24 1   
    23   13   14 2   
    24   13   15 1   
    25   15   16 1   
    26   15   25 1   
    27   15   27 1   
    28   16   26 1   
@<TRIPOS>SUBSTRUCTURE
     1 GNR         1 TEMP              0 ****  ****    0 ROOT
