@<TRIPOS>MOLECULE
GNR
   27    28     1     0     0
SMALL
bcc


@<TRIPOS>ATOM
      1 OAM         0.0510   -0.4100   -0.2190 o         1 GNR     -0.548500
      2 CAH         1.2640   -0.1680   -0.1660 c         1 GNR      0.707500
      3 NAG         1.9080   -0.0840    1.0590 ns        1 GNR     -0.463100
      4 CAD         3.2870    0.0490    1.2540 ca        1 GNR      0.107600
      5 CAC         3.7840    0.3130    2.5550 ca        1 GNR     -0.156000
      6 CAB         5.1490    0.4380    2.7670 ca        1 GNR     -0.053000
      7 CAA         6.0520    0.3150    1.7040 ca        1 GNR     -0.134000
      8 CAF         5.5770    0.0650    0.4250 ca        1 GNR     -0.074000
      9 CAE         4.2040   -0.0700    0.1870 ca        1 GNR     -0.151100
     10 SAJ         3.7060   -0.5180   -1.3740 ss        1 GNR     -0.076000
     11 CAI         2.0490    0.1030   -1.4450 c3        1 GNR     -0.134600
     12 CAK         1.9100    1.5800   -1.7650 c3        1 GNR     -0.156400
     13 CAL         2.5220    1.9630   -3.0840 c         1 GNR      0.548100
     14 OAN         1.9670    2.3740   -4.0820 o         1 GNR     -0.343100
     15 NAO         4.0480    1.8080   -3.1110 ny        1 GNR     -0.523300
     16 OAP         4.4380    1.6870   -4.3980 oh        1 GNR     -0.350300
     17 HAG         1.3450   -0.2390    1.8730 hn        1 GNR      0.361500
     18 HAC         3.0890    0.4070    3.4060 ha        1 GNR      0.164000
     19 HAB         5.5270    0.6320    3.7850 ha        1 GNR      0.166000
     20 HAA         7.1350    0.4070    1.8860 ha        1 GNR      0.164000
     21 HAF         6.2870   -0.0540   -0.4100 ha        1 GNR      0.140000
     22 HAI         1.5540   -0.5070   -2.2590 h1        1 GNR      0.156700
     23 HAK1        0.8080    1.8360   -1.8270 hc        1 GNR      0.131200
     24 HAK2        2.3530    2.2100   -0.9450 hc        1 GNR      0.131200
     25 HAO         4.2870    0.9070   -2.5060 hn        1 GNR      0.462300
     26 HAP         5.3970    1.4720   -4.4130 ho        1 GNR      0.461000
     27 HAO2        4.4670    2.6510   -2.6880 hn        1 GNR      0.462300
@<TRIPOS>BOND
     1    1    2 2   
     2    2    3 1   
     3    2   11 1   
     4    3    4 1   
     5    3   17 1   
     6    4    5 ar  
     7    4    9 ar  
     8    5    6 ar  
     9    5   18 1   
    10    6    7 ar  
    11    6   19 1   
    12    7    8 ar  
    13    7   20 1   
    14    8    9 ar  
    15    8   21 1   
    16    9   10 1   
    17   10   11 1   
    18   11   12 1   
    19   11   22 1   
    20   12   13 1   
    21   12   23 1   
    22   12   24 1   
    23   13   14 2   
    24   13   15 1   
    25   15   16 1   
    26   15   25 1   
    27   15   27 1   
    28   16   26 1   
@<TRIPOS>SUBSTRUCTURE
     1 GNR         1 TEMP              0 ****  ****    0 ROOT
