@<TRIPOS>MOLECULE
GNR
   26    24     1     0     0
SMALL
bcc


@<TRIPOS>ATOM
      1 OAM        -2.9110    0.8960    0.3090 o         1 GNR     -0.329000
      2 CAH        -1.8070    0.3850    0.3930 c1        1 GNR      0.314000
      3 NAG        -1.0820    0.4090    1.6690 n2        1 GNR     -0.323000
      4 CAD         0.0370   -0.8050    1.9610 c2        1 GNR      0.080000
      5 CAC         0.5050   -1.0680    3.2400 c2        1 GNR     -0.164000
      6 CAB         1.3300   -2.2020    3.4770 c1        1 GNR     -0.095000
      7 CAA         1.6820   -3.0830    2.3860 c1        1 GNR     -0.113000
      8 CAF         1.2030   -2.8190    1.0690 c1        1 GNR     -0.113000
      9 CAE         0.4010   -1.7170    0.8320 c1        1 GNR     -0.300000
     10 SAJ        -0.2030   -1.3380   -0.7220 ss        1 GNR      0.277000
     11 CAI        -1.0290    0.0460   -0.8710 c3        1 GNR     -0.264000
     12 CAK        -0.0140    1.3310   -1.3440 c3        1 GNR     -0.176000
     13 CAL        -0.1590    1.5710   -2.8700 c2        1 GNR      0.238000
     14 OAN        -0.1710    0.6280   -3.6340 o         1 GNR     -0.315000
     15 NAO        -0.1790    2.9280   -3.3910 n         1 GNR     -0.187000
     16 OAP        -0.4520    3.1540   -4.7280 oh        1 GNR     -0.240000
     17 HAG        -1.3850    0.9240    2.3550 hn        1 GNR      0.251000
     18 HAC         0.2690   -0.4770    3.9750 ha        1 GNR      0.140000
     19 HAB         1.6600   -2.3870    4.3810 ha        1 GNR      0.139000
     20 HAA         2.2520   -3.8650    2.5510 ha        1 GNR      0.144000
     21 HAF         1.4430   -3.4150    0.3330 ha        1 GNR      0.144000
     22 HAI        -1.6330   -0.0030   -1.6360 h1        1 GNR      0.191000
     23 HAK1       -0.2690    2.1420   -0.8620 hc        1 GNR      0.126000
     24 HAK2        0.9160    1.1060   -1.1360 hc        1 GNR      0.126000
     25 HAO        -0.0110    3.6310   -2.8370 hn        1 GNR      0.214000
     26 HAP        -0.3930    4.0270   -4.9010 ho        1 GNR      0.235000
@<TRIPOS>BOND
     1    1    2 1   
     2    2   11 1   
     3    3    4 1   
     4    3   17 1   
     5    4    5 1   
     6    4    9 1   
     7    5    6 1   
     8    5   18 1   
     9    6   19 1   
    10    7    8 1   
    11    7   20 1   
    12    8   21 1   
    13    9   10 1   
    14   10   11 1   
    15   11   12 1   
    16   11   22 1   
    17   12   13 1   
    18   12   23 1   
    19   12   24 1   
    20   13   14 1   
    21   13   15 1   
    22   15   16 1   
    23   15   25 1   
    24   16   26 1   
@<TRIPOS>SUBSTRUCTURE
     1 GNR         1 TEMP              0 ****  ****    0 ROOT
