@<TRIPOS>MOLECULE
GNR
   27    28     1     0     0
SMALL
bcc


@<TRIPOS>ATOM
      1 OAM         0.0660   -0.4560   -0.2510 o         1 GNR     -0.548500
      2 CAH         1.2770   -0.2040   -0.1950 c         1 GNR      0.707500
      3 NAG         1.9290   -0.1700    1.0280 n         1 GNR     -0.463100
      4 CAD         3.3080   -0.0320    1.2200 ca        1 GNR      0.107600
      5 CAC         3.8120    0.1750    2.5290 ca        1 GNR     -0.156000
      6 CAB         5.1770    0.3050    2.7360 ca        1 GNR     -0.053000
      7 CAA         6.0730    0.2430    1.6620 ca        1 GNR     -0.134000
      8 CAF         5.5910    0.0490    0.3760 ca        1 GNR     -0.074000
      9 CAE         4.2180   -0.0900    0.1420 ca        1 GNR     -0.151100
     10 SAJ         3.7140   -0.4690   -1.4350 ss        1 GNR     -0.076000
     11 CAI         2.0490    0.1370   -1.4650 c3        1 GNR     -0.134600
     12 CAK         1.8930    1.6250   -1.7130 c3        1 GNR     -0.156400
     13 CAL         2.4900    2.0770   -3.0170 c         1 GNR      0.548100
     14 OAN         1.9240    2.5290   -3.9900 o         1 GNR     -0.343100
     15 NAO         4.0180    1.9410   -3.0620 n4        1 GNR     -0.523300
     16 OAP         4.3990    1.8840   -4.3560 oh        1 GNR     -0.350300
     17 HAG         1.3730   -0.3700    1.8380 hn        1 GNR      0.361500
     18 HAC         3.1220    0.2220    3.3880 ha        1 GNR      0.164000
     19 HAB         5.5600    0.4550    3.7600 ha        1 GNR      0.166000
     20 HAA         7.1560    0.3380    1.8410 ha        1 GNR      0.164000
     21 HAF         6.2960   -0.0220   -0.4680 ha        1 GNR      0.140000
     22 HAI         1.5550   -0.4390   -2.3040 h1        1 GNR      0.156700
     23 HAK1        0.7880    1.8720   -1.7560 hc        1 GNR      0.131200
     24 HAK2        2.3350    2.2210   -0.8670 hc        1 GNR      0.131200
     25 HAO         4.2710    1.0140   -2.5020 hn        1 GNR      0.462300
     26 HAP         5.3600    1.6810   -4.3880 ho        1 GNR      0.461000
     27 HAO2        4.4310    2.7670   -2.6020 hn        1 GNR      0.462300
@<TRIPOS>BOND
     1    1    2 2   
     2    2    3 1   
     3    2   11 1   
     4    3    4 1   
     5    3   17 1   
     6    4    5 ar  
     7    4    9 ar  
     8    5    6 ar  
     9    5   18 1   
    10    6    7 ar  
    11    6   19 1   
    12    7    8 ar  
    13    7   20 1   
    14    8    9 ar  
    15    8   21 1   
    16    9   10 1   
    17   10   11 1   
    18   11   12 1   
    19   11   22 1   
    20   12   13 1   
    21   12   23 1   
    22   12   24 1   
    23   13   14 2   
    24   13   15 1   
    25   15   16 1   
    26   15   25 1   
    27   15   27 1   
    28   16   26 1   
@<TRIPOS>SUBSTRUCTURE
     1 GNR         1 TEMP              0 ****  ****    0 ROOT
