@<TRIPOS>MOLECULE
GNS
   28    27     1     0     0
SMALL
bcc


@<TRIPOS>ATOM
      1 C1         -1.0710    0.4090   -0.9090 c3        1 GNS      0.309900
      2 C2          0.4430    0.4530   -0.8960 c3        1 GNS      0.187500
      3 N           0.9540   -0.7120   -1.6090 n3        1 GNS     -0.885900
      4 S1          2.0760   -0.5200   -2.8060 s4        1 GNS      1.702700
      5 O1S         3.2730    0.2420   -2.2840 os        1 GNS     -1.071000
      6 O2S         1.4780    0.1620   -4.0140 o         1 GNS     -0.669900
      7 O3S         2.4870   -1.8540   -3.3940 o         1 GNS     -0.669900
      8 C3          0.9940    0.4530    0.4790 c3        1 GNS      0.081100
      9 O3          0.6720    1.7130    1.1110 oh        1 GNS     -0.621800
     10 C4          0.4400   -0.6630    1.3120 c3        1 GNS      0.127100
     11 C5         -1.0770   -0.7030    1.2880 c3        1 GNS      0.086100
     12 O5         -1.6170   -0.6980   -0.0720 os        1 GNS     -0.460600
     13 C6         -1.6060    0.4910    2.0240 c3        1 GNS      0.102400
     14 O6         -2.9240    0.2150    2.4920 oh        1 GNS     -0.614800
     15 O4          0.9430   -1.9050    0.8130 oh        1 GNS     -0.601800
     16 O1         -1.5010    0.2430   -2.2050 oh        1 GNS     -0.589800
     17 H1         -1.4130    1.2580   -0.5700 h2        1 GNS      0.070700
     18 H2          0.7390    1.2600   -1.3560 h1        1 GNS      0.090700
     19 HN          0.6150   -1.5370   -1.4320 hn        1 GNS      0.399800
     20 H3          1.9690    0.3600    0.4310 h1        1 GNS      0.073700
     21 HO3         1.4000    2.2290    1.1340 ho        1 GNS      0.413000
     22 H4          0.7390   -0.5460    2.2370 h1        1 GNS      0.079700
     23 H5         -1.3780   -1.5150    1.7450 h1        1 GNS      0.084700
     24 H61        -1.0210    0.6910    2.7900 h1        1 GNS      0.050200
     25 H62        -1.6290    1.2620    1.4220 h1        1 GNS      0.050200
     26 H6O        -3.1280    0.7780    3.1590 ho        1 GNS      0.420000
     27 HO4         1.3220   -2.3620    1.4790 ho        1 GNS      0.421000
     28 HO1        -2.1770    0.7970   -2.3660 ho        1 GNS      0.435000
@<TRIPOS>BOND
     1    1    2 1   
     2    1   12 1   
     3    1   16 1   
     4    1   17 1   
     5    2    3 1   
     6    2    8 1   
     7    2   18 1   
     8    3    4 1   
     9    3   19 1   
    10    4    6 1   
    11    4    7 1   
    12    8    9 1   
    13    8   10 1   
    14    8   20 1   
    15    9   21 1   
    16   10   11 1   
    17   10   15 1   
    18   10   22 1   
    19   11   12 1   
    20   11   13 1   
    21   11   23 1   
    22   13   14 1   
    23   13   24 1   
    24   13   25 1   
    25   14   26 1   
    26   15   27 1   
    27   16   28 1   
@<TRIPOS>SUBSTRUCTURE
     1 GNS         1 TEMP              0 ****  ****    0 ROOT
