@<TRIPOS>MOLECULE
GNS
   29    28     1     0     0
SMALL
bcc


@<TRIPOS>ATOM
      1 C1          0.1790    0.0720    0.0590 c3        1 GNS      0.318900
      2 C2          1.7240   -0.0200    0.1960 c3        1 GNS      0.146500
      3 N           2.2730   -1.1340   -0.5640 n8        1 GNS     -0.977800
      4 S1          2.0450   -1.0210   -2.9980 s4        1 GNS      1.815000
      5 O1S         3.2250   -0.3750   -3.1700 o         1 GNS     -0.584067
      6 O2S         1.9930   -2.3730   -3.1030 o         1 GNS     -0.584067
      7 O3S         0.8880   -0.3080   -2.9470 o         1 GNS     -0.703867
      8 C3          2.0710   -0.0560    1.7020 c3        1 GNS      0.077100
      9 O3          3.4860   -0.0450    1.8090 oh        1 GNS     -0.605800
     10 C4          1.4690    1.1850    2.3820 c3        1 GNS      0.089100
     11 C5         -0.0540    1.1570    2.1960 c3        1 GNS      0.102100
     12 O5         -0.3710    1.1390    0.8010 os        1 GNS     -0.450600
     13 C6         -0.7080    2.4230    2.7560 c3        1 GNS      0.140400
     14 O6         -2.1130    2.3500    2.6770 oh        1 GNS     -0.592800
     15 O4          1.7360    1.1390    3.7740 oh        1 GNS     -0.590800
     16 O1         -0.3790   -1.1100    0.5810 oh        1 GNS     -0.633800
     17 H1         -0.1320    0.2740   -1.0090 h2        1 GNS      0.129700
     18 H2          2.1540    0.9300   -0.2420 h1        1 GNS      0.098700
     19 HN          3.2590   -1.2040   -0.3690 hn        1 GNS      0.396800
     20 H3          1.6480   -0.9850    2.1760 h1        1 GNS      0.074700
     21 HO3         3.6920   -0.2440    2.7310 ho        1 GNS      0.415000
     22 H4          1.8990    2.1190    1.9260 h1        1 GNS      0.062700
     23 H5         -0.4860    0.2410    2.6850 h1        1 GNS      0.081700
     24 H61        -0.4700    2.5030    3.8510 h1        1 GNS      0.061700
     25 H62        -0.3290    3.3250    2.2070 h1        1 GNS      0.061700
     26 H6O        -2.3400    2.2640    1.7420 ho        1 GNS      0.411000
     27 HO4         2.6260    1.4920    3.8950 ho        1 GNS      0.409000
     28 HO1        -1.3320   -1.0720    0.4300 ho        1 GNS      0.431000
     29 HN3         1.8230   -1.9920   -0.2920 hn        1 GNS      0.396800
@<TRIPOS>BOND
     1    1    2 1   
     2    1   12 1   
     3    1   16 1   
     4    1   17 1   
     5    2    3 1   
     6    2    8 1   
     7    2   18 1   
     8    3   19 1   
     9    3   29 1   
    10    4    5 1   
    11    4    6 1   
    12    4    7 2   
    13    8    9 1   
    14    8   10 1   
    15    8   20 1   
    16    9   21 1   
    17   10   11 1   
    18   10   15 1   
    19   10   22 1   
    20   11   12 1   
    21   11   13 1   
    22   11   23 1   
    23   13   14 1   
    24   13   24 1   
    25   13   25 1   
    26   14   26 1   
    27   15   27 1   
    28   16   28 1   
@<TRIPOS>SUBSTRUCTURE
     1 GNS         1 TEMP              0 ****  ****    0 ROOT
