@<TRIPOS>MOLECULE
GNS
   28    28     1     0     0
SMALL
bcc


@<TRIPOS>ATOM
      1 C1          0.4050    1.0370   -0.0910 c3        1 GNS      0.331900
      2 C2         -0.2660   -0.3680   -0.2150 c3        1 GNS      0.244500
      3 N          -1.6100   -0.3870    0.2530 n3        1 GNS     -0.914100
      4 S1         -2.7350    0.8710    0.2060 s6        1 GNS      1.540700
      5 O1S        -3.0520    1.1190   -1.1540 o         1 GNS     -0.748867
      6 O2S        -3.8370    0.4040    0.9730 o         1 GNS     -0.748867
      7 O3S        -2.0630    1.9970    0.7920 o         1 GNS     -0.748867
      8 C3          0.6580   -1.3810    0.5120 c3        1 GNS      0.131100
      9 O3          0.1240   -2.6820    0.3300 oh        1 GNS     -0.596800
     10 C4          2.0700   -1.3150   -0.1020 c3        1 GNS      0.077100
     11 C5          2.6150    0.1150   -0.0160 c3        1 GNS      0.079100
     12 O5          1.7130    1.0260   -0.6440 os        1 GNS     -0.437600
     13 C6          3.9310    0.2690   -0.7830 c3        1 GNS      0.136400
     14 O6          4.4630    1.5710   -0.6570 oh        1 GNS     -0.611800
     15 O4          2.8630   -2.2220    0.6550 oh        1 GNS     -0.609800
     16 O1          0.6130    1.4320    1.2390 oh        1 GNS     -0.658800
     17 H1         -0.1540    1.8120   -0.6920 h2        1 GNS      0.105700
     18 H2         -0.2370   -0.6330   -1.3180 h1        1 GNS      0.034700
     19 HN         -1.8840   -1.2780    0.5840 hn        1 GNS      0.421800
     20 H3          0.7170   -1.1330    1.6070 h1        1 GNS      0.066700
     21 HO3         0.7050   -3.2780    0.8200 ho        1 GNS      0.402000
     22 H4          2.0330   -1.6540   -1.1750 h1        1 GNS      0.050700
     23 H5          2.7520    0.4080    1.0620 h1        1 GNS      0.083700
     24 H61         4.7130   -0.4110   -0.3530 h1        1 GNS      0.036700
     25 H62         3.7720    0.0320   -1.8700 h1        1 GNS      0.036700
     26 H6O         3.7300    2.1900   -0.7830 ho        1 GNS      0.426000
     27 HO4         3.7500   -2.1970    0.2810 ho        1 GNS      0.395000
     28 HO1        -0.1940    1.8940    1.5300 ho        1 GNS      0.476000
@<TRIPOS>BOND
     1    1    2 1   
     2    1   12 1   
     3    1   16 1   
     4    1   17 1   
     5    2    3 1   
     6    2    8 1   
     7    2   18 1   
     8    3    4 1   
     9    3   19 1   
    10    4    5 1   
    11    4    6 1   
    12    4    7 1   
    13    8    9 1   
    14    8   10 1   
    15    8   20 1   
    16    9   21 1   
    17   10   11 1   
    18   10   15 1   
    19   10   22 1   
    20   11   12 1   
    21   11   13 1   
    22   11   23 1   
    23   13   14 1   
    24   13   24 1   
    25   13   25 1   
    26   14   26 1   
    27   15   27 1   
    28   16   28 1   
@<TRIPOS>SUBSTRUCTURE
     1 GNS         1 TEMP              0 ****  ****    0 ROOT
