@<TRIPOS>MOLECULE
GNS
   29    28     1     0     0
SMALL
bcc


@<TRIPOS>ATOM
      1 C1          0.1790    0.0610    0.0640 c3        1 GNS      0.318900
      2 C2          1.7240   -0.0250    0.1990 c3        1 GNS      0.146500
      3 N           2.2740   -1.1450   -0.5520 n3        1 GNS     -0.977800
      4 S1          2.0410   -1.0570   -2.9860 s4        1 GNS      1.815000
      5 O1S         3.2180   -0.4090   -3.1670 o         1 GNS     -0.584067
      6 O2S         1.9930   -2.4110   -3.0770 o         1 GNS     -0.584067
      7 O3S         0.8810   -0.3470   -2.9390 o         1 GNS     -0.703867
      8 C3          2.0740   -0.0450    1.7040 c3        1 GNS      0.077100
      9 O3          3.4890   -0.0300    1.8080 oh        1 GNS     -0.605800
     10 C4          1.4700    1.2020    2.3730 c3        1 GNS      0.089100
     11 C5         -0.0530    1.1670    2.1910 c3        1 GNS      0.102100
     12 O5         -0.3730    1.1350    0.7960 os        1 GNS     -0.450600
     13 C6         -0.7090    2.4370    2.7390 c3        1 GNS      0.140400
     14 O6         -2.1140    2.3600    2.6640 oh        1 GNS     -0.592800
     15 O4          1.7400    1.1690    3.7650 oh        1 GNS     -0.590800
     16 O1         -0.3750   -1.1170    0.5990 oh        1 GNS     -0.633800
     17 H1         -0.1360    0.2510   -1.0060 h2        1 GNS      0.129700
     18 H2          2.1510    0.9210   -0.2500 h1        1 GNS      0.098700
     19 HN          3.2600   -1.2110   -0.3580 hn        1 GNS      0.396800
     20 H3          1.6550   -0.9710    2.1890 h1        1 GNS      0.074700
     21 HO3         3.6980   -0.2190    2.7310 ho        1 GNS      0.415000
     22 H4          1.8970    2.1310    1.9060 h1        1 GNS      0.062700
     23 H5         -0.4820    0.2550    2.6900 h1        1 GNS      0.081700
     24 H61        -0.3340    3.3350    2.1800 h1        1 GNS      0.061700
     25 H62        -0.4690    2.5280    3.8330 h1        1 GNS      0.061700
     26 H6O        -2.3430    2.2640    1.7310 ho        1 GNS      0.411000
     27 HO4         2.6300    1.5270    3.8800 ho        1 GNS      0.409000
     28 HO1        -1.3290   -1.0830    0.4500 ho        1 GNS      0.431000
     29 HN3         1.8270   -2.0020   -0.2690 hn        1 GNS      0.396800
@<TRIPOS>BOND
     1    1    2 1   
     2    1   12 1   
     3    1   16 1   
     4    1   17 1   
     5    2    3 1   
     6    2    8 1   
     7    2   18 1   
     8    3   19 1   
     9    3   29 1   
    10    4    5 1   
    11    4    6 1   
    12    4    7 2   
    13    8    9 1   
    14    8   10 1   
    15    8   20 1   
    16    9   21 1   
    17   10   11 1   
    18   10   15 1   
    19   10   22 1   
    20   11   12 1   
    21   11   13 1   
    22   11   23 1   
    23   13   14 1   
    24   13   24 1   
    25   13   25 1   
    26   14   26 1   
    27   15   27 1   
    28   16   28 1   
@<TRIPOS>SUBSTRUCTURE
     1 GNS         1 TEMP              0 ****  ****    0 ROOT
