@<TRIPOS>MOLECULE
GNS
   29    28     1     0     0
SMALL
bcc


@<TRIPOS>ATOM
      1 C1          0.1810    0.0740    0.0570 c3        1 GNS      0.318900
      2 C2          1.7250   -0.0170    0.1950 c3        1 GNS      0.146500
      3 N           2.2760   -1.1270   -0.5690 n3        1 GNS     -0.977800
      4 S1          2.0510   -1.0050   -3.0020 s4        1 GNS      1.815000
      5 O1S         3.2300   -0.3560   -3.1700 o         1 GNS     -0.584067
      6 O2S         2.0010   -2.3570   -3.1120 o         1 GNS     -0.584067
      7 O3S         0.8920   -0.2940   -2.9500 o         1 GNS     -0.703867
      8 C3          2.0700   -0.0580    1.7010 c3        1 GNS      0.077100
      9 O3          3.4850   -0.0480    1.8100 oh        1 GNS     -0.605800
     10 C4          1.4660    1.1800    2.3850 c3        1 GNS      0.089100
     11 C5         -0.0560    1.1510    2.1980 c3        1 GNS      0.102100
     12 O5         -0.3720    1.1390    0.8020 os        1 GNS     -0.450600
     13 C6         -0.7110    2.4150    2.7610 c3        1 GNS      0.140400
     14 O6         -2.1160    2.3420    2.6810 oh        1 GNS     -0.592800
     15 O4          1.7320    1.1280    3.7780 oh        1 GNS     -0.590800
     16 O1         -0.3770   -1.1100    0.5730 oh        1 GNS     -0.633800
     17 H1         -0.1300    0.2800   -1.0110 h2        1 GNS      0.129700
     18 H2          2.1550    0.9350   -0.2380 h1        1 GNS      0.098700
     19 HN          1.8260   -1.9870   -0.3000 hn        1 GNS      0.396800
     20 H3          1.6470   -0.9900    2.1720 h1        1 GNS      0.074700
     21 HO3         3.6900   -0.2500    2.7320 ho        1 GNS      0.415000
     22 H4          1.8970    2.1150    1.9330 h1        1 GNS      0.062700
     23 H5         -0.4880    0.2340    2.6830 h1        1 GNS      0.081700
     24 H61        -0.4750    2.4910    3.8560 h1        1 GNS      0.061700
     25 H62        -0.3330    3.3200    2.2150 h1        1 GNS      0.061700
     26 H6O        -2.3430    2.2590    1.7450 ho        1 GNS      0.411000
     27 HO4         2.6210    1.4810    3.9010 ho        1 GNS      0.409000
     28 HO1        -1.3310   -1.0720    0.4220 ho        1 GNS      0.431000
     29 HN3         3.2610   -1.1980   -0.3720 hn        1 GNS      0.396800
@<TRIPOS>BOND
     1    1    2 1   
     2    1   12 1   
     3    1   16 1   
     4    1   17 1   
     5    2    3 1   
     6    2    8 1   
     7    2   18 1   
     8    3   19 1   
     9    3   29 1   
    10    4    5 1   
    11    4    6 1   
    12    4    7 2   
    13    8    9 1   
    14    8   10 1   
    15    8   20 1   
    16    9   21 1   
    17   10   11 1   
    18   10   15 1   
    19   10   22 1   
    20   11   12 1   
    21   11   13 1   
    22   11   23 1   
    23   13   14 1   
    24   13   24 1   
    25   13   25 1   
    26   14   26 1   
    27   15   27 1   
    28   16   28 1   
@<TRIPOS>SUBSTRUCTURE
     1 GNS         1 TEMP              0 ****  ****    0 ROOT
