@<TRIPOS>MOLECULE
GNT
   42    45     1     0     0
SMALL
bcc


@<TRIPOS>ATOM
      1 C1          0.0080    0.1790   -0.0340 c2        1 GNT     -0.147200
      2 C2          1.3350    0.0490   -0.0380 c2        1 GNT     -0.191200
      3 C3          2.1570   -0.1760    1.1910 c3        1 GNT      0.179300
      4 C4          1.4180    0.2840    2.4410 c3        1 GNT     -0.118400
      5 C41        -0.0330   -0.1410    2.4890 c3        1 GNT      0.132100
      6 C42        -0.8630    0.0720    1.1760 c3        1 GNT      0.019500
      7 O5         -0.0810   -1.5700    2.8080 os        1 GNT     -0.310900
      8 C6         -1.6140   -3.4150    2.1970 ca        1 GNT      0.107100
      9 C7         -2.6880   -3.7870    1.3710 ca        1 GNT     -0.171000
     10 C8         -3.2360   -2.8830    0.4640 ca        1 GNT     -0.121000
     11 C9         -3.3420   -0.6290   -0.6590 c3        1 GNT      0.226100
     12 N10        -3.7580    0.6300   -0.0530 n3        1 GNT     -0.740600
     13 C11        -2.6800    1.5860    0.1490 c3        1 GNT      0.179800
     14 C12        -1.7650    1.2880    1.3350 c3        1 GNT     -0.060400
     15 C13        -1.1120   -2.1160    2.0570 ca        1 GNT      0.084100
     16 C14        -1.6470   -1.2160    1.1110 ca        1 GNT     -0.104300
     17 C15        -2.7270   -1.5830    0.3210 ca        1 GNT     -0.052300
     18 C16        -1.5380   -5.5390    3.2550 c3        1 GNT      0.111700
     19 O17        -1.0100   -4.2220    3.1390 os        1 GNT     -0.307900
     20 O18         2.5710   -1.5280    1.2960 oh        1 GNT     -0.593800
     21 C19        -4.8970    1.2160   -0.7250 c3        1 GNT      0.164100
     22 H1         -0.5390    0.3400   -0.9780 ha        1 GNT      0.129000
     23 H2          1.9080    0.0910   -0.9780 ha        1 GNT      0.135000
     24 H3          3.1310    0.3920    1.1030 h1        1 GNT      0.075700
     25 H41A        1.9430   -0.1310    3.3420 hc        1 GNT      0.069700
     26 H42         1.4520    1.4040    2.4930 hc        1 GNT      0.069700
     27 H41        -0.5480    0.3720    3.3480 h1        1 GNT      0.064700
     28 H7         -3.1120   -4.7980    1.4460 ha        1 GNT      0.139000
     29 H8         -4.0930   -3.1980   -0.1500 ha        1 GNT      0.133000
     30 H91        -4.2470   -1.1230   -1.1180 h1        1 GNT      0.039200
     31 H92        -2.5980   -0.4600   -1.4960 h1        1 GNT      0.039200
     32 H111       -3.1470    2.5940    0.3560 h1        1 GNT      0.031700
     33 H112       -2.0520    1.7050   -0.7840 h1        1 GNT      0.031700
     34 H121       -2.3910    1.1520    2.2570 hc        1 GNT      0.055700
     35 H122       -1.1140    2.1900    1.4870 hc        1 GNT      0.055700
     36 H161       -2.6110   -5.5090    3.5660 h1        1 GNT      0.044033
     37 H162       -1.4240   -6.0970    2.2950 h1        1 GNT      0.044033
     38 H163       -0.9070   -5.9990    4.0570 h1        1 GNT      0.044033
     39 H18         1.7890   -2.0540    1.5140 ho        1 GNT      0.418000
     40 H191       -5.7340    0.4690   -0.7440 h1        1 GNT      0.031700
     41 H192       -4.6770    1.5350   -1.7800 h1        1 GNT      0.031700
     42 H193       -5.2400    2.1140   -0.1450 h1        1 GNT      0.031700
@<TRIPOS>BOND
     1    1    2 2   
     2    1    6 1   
     3    1   22 1   
     4    2    3 1   
     5    2   23 1   
     6    3    4 1   
     7    3   20 1   
     8    3   24 1   
     9    4    5 1   
    10    4   25 1   
    11    4   26 1   
    12    5    6 1   
    13    5    7 1   
    14    5   27 1   
    15    6   14 1   
    16    6   16 1   
    17    7   15 1   
    18    8    9 ar  
    19    8   15 ar  
    20    8   19 1   
    21    9   10 ar  
    22    9   28 1   
    23   10   17 ar  
    24   10   29 1   
    25   11   12 1   
    26   11   17 1   
    27   11   30 1   
    28   11   31 1   
    29   12   13 1   
    30   12   21 1   
    31   13   14 1   
    32   13   32 1   
    33   13   33 1   
    34   14   34 1   
    35   14   35 1   
    36   15   16 ar  
    37   16   17 ar  
    38   18   19 1   
    39   18   36 1   
    40   18   37 1   
    41   18   38 1   
    42   20   39 1   
    43   21   40 1   
    44   21   41 1   
    45   21   42 1   
@<TRIPOS>SUBSTRUCTURE
     1 GNT         1 TEMP              0 ****  ****    0 ROOT
