@<TRIPOS>MOLECULE
GNT
   42    45     1     0     0
SMALL
bcc


@<TRIPOS>ATOM
      1 C1          0.0080    0.1860   -0.0280 c2        1 GNT     -0.147200
      2 C2          1.3350    0.0600   -0.0250 c2        1 GNT     -0.191200
      3 C3          2.1530   -0.1610    1.2080 c3        1 GNT      0.179300
      4 C4          1.4050    0.2980    2.4540 c3        1 GNT     -0.118400
      5 C41        -0.0440   -0.1330    2.4950 c3        1 GNT      0.132100
      6 C42        -0.8680    0.0760    1.1780 c3        1 GNT      0.019500
      7 O5         -0.0880   -1.5620    2.8150 os        1 GNT     -0.310900
      8 C6         -1.6120   -3.4120    2.1980 ca        1 GNT      0.107100
      9 C7         -2.6810   -3.7890    1.3670 ca        1 GNT     -0.171000
     10 C8         -3.2280   -2.8880    0.4570 ca        1 GNT     -0.121000
     11 C9         -3.3360   -0.6350   -0.6690 c3        1 GNT      0.226100
     12 N10        -3.7600    0.6230   -0.0660 n3        1 GNT     -0.740600
     13 C11        -2.6860    1.5830    0.1400 c3        1 GNT      0.179800
     14 C12        -1.7760    1.2890    1.3310 c3        1 GNT     -0.060400
     15 C13        -1.1140   -2.1120    2.0590 ca        1 GNT      0.084100
     16 C14        -1.6480   -1.2150    1.1100 ca        1 GNT     -0.104300
     17 C15        -2.7220   -1.5860    0.3150 ca        1 GNT     -0.052300
     18 C16        -1.5370   -5.5330    3.2620 c3        1 GNT      0.111700
     19 O17        -1.0100   -4.2160    3.1440 os        1 GNT     -0.307900
     20 O18         2.5710   -1.5110    1.3160 oh        1 GNT     -0.593800
     21 C19        -4.8970    1.2040   -0.7440 c3        1 GNT      0.164100
     22 H1         -0.5350    0.3440   -0.9750 ha        1 GNT      0.129000
     23 H2          1.9130    0.1030   -0.9620 ha        1 GNT      0.135000
     24 H3          3.1240    0.4100    1.1240 h1        1 GNT      0.075700
     25 H41A        1.9270   -0.1140    3.3580 hc        1 GNT      0.069700
     26 H42         1.4350    1.4170    2.5050 hc        1 GNT      0.069700
     27 H41        -0.5650    0.3800    3.3510 h1        1 GNT      0.064700
     28 H7         -3.1020   -4.8020    1.4420 ha        1 GNT      0.139000
     29 H8         -4.0810   -3.2060   -0.1610 ha        1 GNT      0.133000
     30 H91        -2.5880   -0.4640   -1.5020 h1        1 GNT      0.039200
     31 H92        -4.2370   -1.1330   -1.1320 h1        1 GNT      0.039200
     32 H111       -2.0540    1.7030   -0.7890 h1        1 GNT      0.031700
     33 H112       -3.1580    2.5900    0.3440 h1        1 GNT      0.031700
     34 H121       -1.1290    2.1940    1.4860 hc        1 GNT      0.055700
     35 H122       -2.4060    1.1520    2.2510 hc        1 GNT      0.055700
     36 H161       -2.6110   -5.5050    3.5670 h1        1 GNT      0.044033
     37 H162       -0.9090   -5.9900    4.0680 h1        1 GNT      0.044033
     38 H163       -1.4170   -6.0950    2.3030 h1        1 GNT      0.044033
     39 H18         1.7890   -2.0400    1.5310 ho        1 GNT      0.418000
     40 H191       -5.7310    0.4550   -0.7680 h1        1 GNT      0.031700
     41 H192       -4.6730    1.5240   -1.7990 h1        1 GNT      0.031700
     42 H193       -5.2470    2.1010   -0.1680 h1        1 GNT      0.031700
@<TRIPOS>BOND
     1    1    2 2   
     2    1    6 1   
     3    1   22 1   
     4    2    3 1   
     5    2   23 1   
     6    3    4 1   
     7    3   20 1   
     8    3   24 1   
     9    4    5 1   
    10    4   25 1   
    11    4   26 1   
    12    5    6 1   
    13    5    7 1   
    14    5   27 1   
    15    6   14 1   
    16    6   16 1   
    17    7   15 1   
    18    8    9 ar  
    19    8   15 ar  
    20    8   19 1   
    21    9   10 ar  
    22    9   28 1   
    23   10   17 ar  
    24   10   29 1   
    25   11   12 1   
    26   11   17 1   
    27   11   30 1   
    28   11   31 1   
    29   12   13 1   
    30   12   21 1   
    31   13   14 1   
    32   13   32 1   
    33   13   33 1   
    34   14   34 1   
    35   14   35 1   
    36   15   16 ar  
    37   16   17 ar  
    38   18   19 1   
    39   18   36 1   
    40   18   37 1   
    41   18   38 1   
    42   20   39 1   
    43   21   40 1   
    44   21   41 1   
    45   21   42 1   
@<TRIPOS>SUBSTRUCTURE
     1 GNT         1 TEMP              0 ****  ****    0 ROOT
