@<TRIPOS>MOLECULE
GNT
   42    45     1     0     0
SMALL
bcc


@<TRIPOS>ATOM
      1 C1          0.0110    0.1850   -0.0250 c2        1 GNT     -0.147200
      2 C2          1.3390    0.0570   -0.0190 c2        1 GNT     -0.191200
      3 C3          2.1530   -0.1650    1.2160 c3        1 GNT      0.179300
      4 C4          1.4040    0.2940    2.4610 c3        1 GNT     -0.118400
      5 C41        -0.0460   -0.1350    2.4980 c3        1 GNT      0.132100
      6 C42        -0.8670    0.0760    1.1800 c3        1 GNT      0.019500
      7 O5         -0.0930   -1.5640    2.8180 os        1 GNT     -0.310900
      8 C6         -1.6180   -3.4120    2.1970 ca        1 GNT      0.107100
      9 C7         -2.6850   -3.7880    1.3640 ca        1 GNT     -0.171000
     10 C8         -3.2290   -2.8850    0.4530 ca        1 GNT     -0.121000
     11 C9         -3.3330   -0.6320   -0.6720 c3        1 GNT      0.226100
     12 N10        -3.7560    0.6260   -0.0700 n3        1 GNT     -0.740600
     13 C11        -2.6810    1.5850    0.1390 c3        1 GNT      0.179800
     14 C12        -1.7740    1.2890    1.3320 c3        1 GNT     -0.060400
     15 C13        -1.1170   -2.1130    2.0600 ca        1 GNT      0.084100
     16 C14        -1.6490   -1.2150    1.1100 ca        1 GNT     -0.104300
     17 C15        -2.7220   -1.5840    0.3120 ca        1 GNT     -0.052300
     18 C16        -1.5450   -5.5350    3.2580 c3        1 GNT      0.111700
     19 O17        -1.0190   -4.2180    3.1440 os        1 GNT     -0.307900
     20 O18         2.5690   -1.5160    1.3240 oh        1 GNT     -0.593800
     21 C19        -4.8910    1.2100   -0.7500 c3        1 GNT      0.164100
     22 H1         -0.5300    0.3430   -0.9720 ha        1 GNT      0.129000
     23 H2          1.9180    0.1000   -0.9550 ha        1 GNT      0.135000
     24 H3          3.1260    0.4050    1.1340 h1        1 GNT      0.075700
     25 H41A        1.4350    1.4140    2.5120 hc        1 GNT      0.069700
     26 H42         1.9240   -0.1190    3.3660 hc        1 GNT      0.069700
     27 H41        -0.5690    0.3780    3.3540 h1        1 GNT      0.064700
     28 H7         -3.1080   -4.8000    1.4370 ha        1 GNT      0.139000
     29 H8         -4.0810   -3.2020   -0.1670 ha        1 GNT      0.133000
     30 H91        -4.2330   -1.1290   -1.1370 h1        1 GNT      0.039200
     31 H92        -2.5830   -0.4620   -1.5040 h1        1 GNT      0.039200
     32 H111       -2.0470    1.7050   -0.7890 h1        1 GNT      0.031700
     33 H112       -3.1520    2.5920    0.3420 h1        1 GNT      0.031700
     34 H121       -2.4060    1.1530    2.2500 hc        1 GNT      0.055700
     35 H122       -1.1260    2.1940    1.4880 hc        1 GNT      0.055700
     36 H161       -1.4230   -6.0940    2.2980 h1        1 GNT      0.044033
     37 H162       -2.6190   -5.5070    3.5610 h1        1 GNT      0.044033
     38 H163       -0.9180   -5.9930    4.0640 h1        1 GNT      0.044033
     39 H18         1.7860   -2.0440    1.5380 ho        1 GNT      0.418000
     40 H191       -4.6640    1.5290   -1.8040 h1        1 GNT      0.031700
     41 H192       -5.2410    2.1060   -0.1730 h1        1 GNT      0.031700
     42 H193       -5.7260    0.4610   -0.7750 h1        1 GNT      0.031700
@<TRIPOS>BOND
     1    1    2 2   
     2    1    6 1   
     3    1   22 1   
     4    2    3 1   
     5    2   23 1   
     6    3    4 1   
     7    3   20 1   
     8    3   24 1   
     9    4    5 1   
    10    4   25 1   
    11    4   26 1   
    12    5    6 1   
    13    5    7 1   
    14    5   27 1   
    15    6   14 1   
    16    6   16 1   
    17    7   15 1   
    18    8    9 ar  
    19    8   15 ar  
    20    8   19 1   
    21    9   10 ar  
    22    9   28 1   
    23   10   17 ar  
    24   10   29 1   
    25   11   12 1   
    26   11   17 1   
    27   11   30 1   
    28   11   31 1   
    29   12   13 1   
    30   12   21 1   
    31   13   14 1   
    32   13   32 1   
    33   13   33 1   
    34   14   34 1   
    35   14   35 1   
    36   15   16 ar  
    37   16   17 ar  
    38   18   19 1   
    39   18   36 1   
    40   18   37 1   
    41   18   38 1   
    42   20   39 1   
    43   21   40 1   
    44   21   41 1   
    45   21   42 1   
@<TRIPOS>SUBSTRUCTURE
     1 GNT         1 TEMP              0 ****  ****    0 ROOT
