@<TRIPOS>MOLECULE
GNT
   42    45     1     0     0
SMALL
bcc


@<TRIPOS>ATOM
      1 C1         -1.8320    0.9980   -0.7540 c2        1 GNT     -0.147200
      2 C2         -2.7540    1.4070    0.1170 c2        1 GNT     -0.191200
      3 C3         -3.1770    0.6240    1.3190 c3        1 GNT      0.179300
      4 C4         -2.8580   -0.8570    1.1520 c3        1 GNT     -0.118400
      5 C41        -1.4780   -1.1300    0.5950 c3        1 GNT      0.132100
      6 C42        -1.0460   -0.2690   -0.6420 c3        1 GNT      0.019500
      7 O5         -0.4990   -0.8870    1.6580 os        1 GNT     -0.310900
      8 C6          1.8350   -0.0640    1.6860 ca        1 GNT      0.107100
      9 C7          2.8540    0.5200    0.9150 ca        1 GNT     -0.171000
     10 C8          2.6420    0.8360   -0.4250 ca        1 GNT     -0.121000
     11 C9          1.2080    0.9550   -2.4940 c3        1 GNT      0.226100
     12 N10         0.7330   -0.1690   -3.2940 n3        1 GNT     -0.740600
     13 C11        -0.6970   -0.4170   -3.1930 c3        1 GNT      0.179800
     14 C12        -1.1440   -1.1100   -1.9070 c3        1 GNT     -0.060400
     15 C13         0.6040   -0.2930    1.0610 ca        1 GNT      0.084100
     16 C14         0.3830    0.0630   -0.2860 ca        1 GNT     -0.104300
     17 C15         1.4050    0.6110   -1.0480 ca        1 GNT     -0.052300
     18 C16         3.2050   -0.1820    3.6210 c3        1 GNT      0.111700
     19 O17         1.9440   -0.4330    3.0110 os        1 GNT     -0.307900
     20 O18        -2.6080    1.1510    2.5060 oh        1 GNT     -0.593800
     21 C19         1.1860   -0.1000   -4.6650 c3        1 GNT      0.164100
     22 H1         -1.5640    1.6270   -1.6190 ha        1 GNT      0.129000
     23 H2         -3.2590    2.3780   -0.0040 ha        1 GNT      0.135000
     24 H3         -4.2880    0.7500    1.4800 h1        1 GNT      0.075700
     25 H41A       -2.9460   -1.3590    2.1520 hc        1 GNT      0.069700
     26 H42        -3.6080   -1.3150    0.4570 hc        1 GNT      0.069700
     27 H41        -1.3810   -2.2230    0.3460 h1        1 GNT      0.064700
     28 H7          3.8370    0.7190    1.3660 ha        1 GNT      0.139000
     29 H8          3.4690    1.2680   -1.0080 ha        1 GNT      0.133000
     30 H91         0.4950    1.8330   -2.5500 h1        1 GNT      0.039200
     31 H92         2.1950    1.3040   -2.9150 h1        1 GNT      0.039200
     32 H111       -1.2930    0.5340   -3.3290 h1        1 GNT      0.031700
     33 H112       -0.9880   -1.1060   -4.0410 h1        1 GNT      0.031700
     34 H121       -2.2170   -1.4100   -2.0480 hc        1 GNT      0.055700
     35 H122       -0.5390   -2.0450   -1.7640 hc        1 GNT      0.055700
     36 H161        3.0610   -0.5510    4.6690 h1        1 GNT      0.044033
     37 H162        4.0140   -0.7570    3.1090 h1        1 GNT      0.044033
     38 H163        3.4370    0.9100    3.6160 h1        1 GNT      0.044033
     39 H18        -1.6630    0.9440    2.4900 ho        1 GNT      0.418000
     40 H191        0.7640    0.7750   -5.2320 h1        1 GNT      0.031700
     41 H192        2.3060   -0.0260   -4.6770 h1        1 GNT      0.031700
     42 H193        0.8900   -1.0430   -5.1950 h1        1 GNT      0.031700
@<TRIPOS>BOND
     1    1    2 2   
     2    1    6 1   
     3    1   22 1   
     4    2    3 1   
     5    2   23 1   
     6    3    4 1   
     7    3   20 1   
     8    3   24 1   
     9    4    5 1   
    10    4   25 1   
    11    4   26 1   
    12    5    6 1   
    13    5    7 1   
    14    5   27 1   
    15    6   14 1   
    16    6   16 1   
    17    7   15 1   
    18    8    9 ar  
    19    8   15 ar  
    20    8   19 1   
    21    9   10 ar  
    22    9   28 1   
    23   10   17 ar  
    24   10   29 1   
    25   11   12 1   
    26   11   17 1   
    27   11   30 1   
    28   11   31 1   
    29   12   13 1   
    30   12   21 1   
    31   13   14 1   
    32   13   32 1   
    33   13   33 1   
    34   14   34 1   
    35   14   35 1   
    36   15   16 ar  
    37   16   17 ar  
    38   18   19 1   
    39   18   36 1   
    40   18   37 1   
    41   18   38 1   
    42   20   39 1   
    43   21   40 1   
    44   21   41 1   
    45   21   42 1   
@<TRIPOS>SUBSTRUCTURE
     1 GNT         1 TEMP              0 ****  ****    0 ROOT
