@<TRIPOS>MOLECULE
GNX
   31    31     1     0     0
SMALL
bcc


@<TRIPOS>ATOM
      1 N          -1.5850   -0.3560   -0.1600 n3        1 GNX     -0.922100
      2 C1          0.2410   -2.0310   -0.1090 c3        1 GNX      0.319900
      3 O1          0.4230   -2.1310   -1.5020 oh        1 GNX     -0.661800
      4 S1         -2.8340   -1.4600   -0.2640 s6        1 GNX      1.531700
      5 C2         -0.2880   -0.6390    0.3660 c3        1 GNX      0.218500
      6 C3          0.7730    0.4520    0.0430 c3        1 GNX      0.192100
      7 O3          0.4110    1.6570    0.6360 os        1 GNX     -0.611500
      8 C4          2.1360    0.0170    0.6310 c3        1 GNX      0.109100
      9 O4          3.1910    0.9090    0.3160 oh        1 GNX     -0.647800
     10 C5          2.5250   -1.3610    0.0770 c3        1 GNX      0.100100
     11 O5          1.5260   -2.3280    0.4070 os        1 GNX     -0.447600
     12 C6          3.8140   -1.8690    0.7210 c3        1 GNX      0.140400
     13 O6          4.2240   -3.1170    0.1890 oh        1 GNX     -0.635800
     14 O12        -0.6940    2.8680   -1.1930 o         1 GNX     -0.755533
     15 S12         0.2870    3.1350   -0.2470 s6        1 GNX      1.700300
     16 O1S        -3.9910   -0.7510   -0.7040 o         1 GNX     -0.759867
     17 O22        -0.0290    4.0570    0.7470 o         1 GNX     -0.755533
     18 O2S        -2.4020   -2.4480   -1.2220 o         1 GNX     -0.759867
     19 O32         1.5930    3.2270   -0.7520 o         1 GNX     -0.755533
     20 O3S        -3.0140   -2.0670    1.0170 o         1 GNX     -0.759867
     21 HN         -1.6920    0.5850   -0.4560 hn        1 GNX      0.445800
     22 H1         -0.4210   -2.8590    0.2830 h2        1 GNX      0.084700
     23 HO1        -0.4630   -2.2390   -1.8890 ho        1 GNX      0.464000
     24 H2         -0.3470   -0.7080    1.4960 h1        1 GNX      0.041700
     25 H3          0.8720    0.5710   -1.0740 h1        1 GNX      0.048700
     26 H4          2.0530   -0.0280    1.7530 h1        1 GNX      0.046700
     27 HO4         2.7980    1.7380   -0.0060 ho        1 GNX      0.454000
     28 H5          2.6390   -1.3100   -1.0400 h1        1 GNX      0.071700
     29 H6          4.6480   -1.1510    0.5030 h1        1 GNX      0.044200
     30 H6A         3.6760   -1.9730    1.8300 h1        1 GNX      0.044200
     31 HO6         3.4230   -3.6410    0.0610 ho        1 GNX      0.416000
@<TRIPOS>BOND
     1    1    4 1   
     2    1    5 1   
     3    1   21 1   
     4    2    3 1   
     5    2    5 1   
     6    2   11 1   
     7    2   22 1   
     8    3   23 1   
     9    4   16 1   
    10    4   18 1   
    11    4   20 1   
    12    5    6 1   
    13    5   24 1   
    14    6    7 1   
    15    6    8 1   
    16    6   25 1   
    17    7   15 1   
    18    8    9 1   
    19    8   10 1   
    20    8   26 1   
    21    9   27 1   
    22   10   11 1   
    23   10   12 1   
    24   10   28 1   
    25   12   13 1   
    26   12   29 1   
    27   12   30 1   
    28   13   31 1   
    29   14   15 1   
    30   15   17 1   
    31   15   19 1   
@<TRIPOS>SUBSTRUCTURE
     1 GNX         1 TEMP              0 ****  ****    0 ROOT
