@<TRIPOS>MOLECULE
GO0
   23    24     1     0     0
SMALL
bcc


@<TRIPOS>ATOM
      1 CL1        -4.0240    1.0550    0.2230 cl        1 GO0     -0.172400
      2 C2         -2.7310   -0.0600    0.0890 ca        1 GO0     -0.016600
      3 C3         -1.4150    0.3990   -0.0710 ca        1 GO0     -0.056200
      4 N4         -0.9090    1.6750   -0.2050 na        1 GO0     -0.159400
      5 C6          0.4910    1.6080   -0.3530 cc        1 GO0     -0.107300
      6 C7          0.9010    0.2630   -0.3250 cd        1 GO0     -0.038400
      7 C8         -0.2980   -0.5410   -0.1760 ca        1 GO0     -0.059800
      8 C9         -0.6000   -1.9050   -0.1510 ca        1 GO0      0.087400
      9 C10        -1.9190   -2.3360    0.0110 ca        1 GO0     -0.206000
     10 C12        -2.9740   -1.4260    0.1370 ca        1 GO0     -0.137000
     11 CL14        0.6080   -3.0820   -0.3350 cl        1 GO0     -0.075400
     12 C15         2.2840   -0.2120   -0.4610 c3        1 GO0     -0.141200
     13 C18         2.8550   -1.1030    0.6580 c         1 GO0      0.916600
     14 O19         2.5260   -0.9330    1.8660 o         1 GO0     -0.867800
     15 O20         3.7090   -1.9770    0.3040 o         1 GO0     -0.867800
     16 C22         1.2380    2.9170   -0.5690 c         1 GO0      0.932800
     17 O23         2.3790    2.8950   -1.0950 o         1 GO0     -0.833800
     18 O24         0.6310    3.9840   -0.2440 o         1 GO0     -0.833800
     19 H10        -2.1410   -3.4110    0.0460 ha        1 GO0      0.112000
     20 H12        -3.9980   -1.8010    0.2720 ha        1 GO0      0.108000
     21 H15         2.3720   -0.7860   -1.4230 hc        1 GO0      0.055200
     22 H15A        2.9610    0.6850   -0.5350 hc        1 GO0      0.055200
     23 HN4        -1.3940    2.5230   -0.0670 hn        1 GO0      0.306700
@<TRIPOS>BOND
     1    1    2 1   
     2    2    3 ar  
     3    2   10 ar  
     4    3    4 1   
     5    3    7 ar  
     6    4    5 1   
     7    4   23 1   
     8    5    6 2   
     9    5   16 1   
    10    6    7 1   
    11    6   12 1   
    12    7    8 ar  
    13    8    9 ar  
    14    8   11 1   
    15    9   10 ar  
    16    9   19 1   
    17   10   20 1   
    18   12   13 1   
    19   12   21 1   
    20   12   22 1   
    21   13   14 1   
    22   13   15 1   
    23   16   17 1   
    24   16   18 1   
@<TRIPOS>SUBSTRUCTURE
     1 GO0         1 TEMP              0 ****  ****    0 ROOT
