@<TRIPOS>MOLECULE
GO0
   23    18     1     0     0
SMALL
bcc


@<TRIPOS>ATOM
      1 CL1        -4.0010    0.1370   -1.4340 cl        1 GO0     -0.094000
      2 C2         -2.2610    0.0510   -1.5010 c2        1 GO0     -0.095000
      3 C3         -1.3850    0.0980   -0.4030 c1        1 GO0     -0.011000
      4 N4         -1.6090    0.0870    0.9620 n1        1 GO0     -0.182000
      5 C6         -0.3980    0.1420    1.5910 c1        1 GO0     -0.061000
      6 C7          0.5850    0.1880    0.6230 c1        1 GO0     -0.046000
      7 C8         -0.0310    0.1610   -0.6090 c1        1 GO0     -0.048000
      8 C9          0.4810    0.1780   -1.9180 c1        1 GO0      0.009000
      9 C10        -0.3850    0.1310   -3.0020 c2        1 GO0     -0.206000
     10 C12        -1.7560    0.0680   -2.7930 c2        1 GO0     -0.137000
     11 CL14        2.1000    0.2610   -2.5590 cl        1 GO0      0.003000
     12 C15         2.0590    0.3090    0.9460 c2        1 GO0     -0.174000
     13 C18         2.6410   -1.0680    1.1650 c2        1 GO0      0.336000
     14 O19         1.9230   -1.9880    1.6370 o         1 GO0     -0.602500
     15 O20         3.8490   -1.2920    0.8910 o         1 GO0     -0.602500
     16 C22        -0.5300    0.2180    3.0960 c1        1 GO0      0.383000
     17 O23        -0.6910    1.3340    3.6580 o         1 GO0     -0.568500
     18 O24        -0.4670   -0.8310    3.7880 o         1 GO0     -0.568500
     19 H10        -0.0290    0.1430   -3.9110 ha        1 GO0      0.112000
     20 H12        -2.3640    0.0360   -3.5550 ha        1 GO0      0.108000
     21 H15         2.5210    0.7440    0.2010 ha        1 GO0      0.094500
     22 H15A        2.1720    0.8440    1.7570 ha        1 GO0      0.094500
     23 HN4        -2.4240    0.0480    1.3710 DU        1 GO0      0.257000
@<TRIPOS>BOND
     1    1    2 1   
     2    2    3 1   
     3    2   10 1   
     4    4    5 1   
     5    5    6 1   
     6    6    7 1   
     7    7    8 1   
     8    8    9 1   
     9    9   10 1   
    10    9   19 1   
    11   10   20 1   
    12   12   13 1   
    13   12   21 1   
    14   12   22 1   
    15   13   14 1   
    16   13   15 1   
    17   16   17 1   
    18   16   18 1   
@<TRIPOS>SUBSTRUCTURE
     1 GO0         1 TEMP              0 ****  ****    0 ROOT
