@<TRIPOS>MOLECULE
GO0
   23    24     1     0     0
SMALL
bcc


@<TRIPOS>ATOM
      1 CL1         0.0270    0.1810    0.0200 cl        1 GO0     -0.172400
      2 C2          1.7350    0.0510    0.0170 ca        1 GO0     -0.016600
      3 C3          2.4460    0.0260    1.2260 ca        1 GO0     -0.056200
      4 N4          2.0190    0.1450    2.5310 na        1 GO0     -0.159400
      5 C6          3.1300    0.0670    3.3940 cc        1 GO0     -0.107300
      6 C7          4.3030   -0.0950    2.6340 cd        1 GO0     -0.038400
      7 C8          3.9040   -0.0950    1.2390 ca        1 GO0     -0.059800
      8 C9          4.5570   -0.1440    0.0050 ca        1 GO0      0.087400
      9 C10         3.8260   -0.1180   -1.1850 ca        1 GO0     -0.206000
     10 C12         2.4300   -0.0280   -1.1830 ca        1 GO0     -0.137000
     11 CL14        6.2490   -0.2140   -0.0980 cl        1 GO0     -0.075400
     12 C15         5.6640   -0.2040    3.1750 c3        1 GO0     -0.141200
     13 C18         6.4950   -1.4440    2.7960 c         1 GO0      0.916600
     14 O19         5.9530   -2.5740    2.6370 o         1 GO0     -0.867800
     15 O20         7.7520   -1.2750    2.7050 o         1 GO0     -0.867800
     16 C22         2.8740    0.2310    4.8860 c         1 GO0      0.932800
     17 O23         3.8220    0.5690    5.6400 o         1 GO0     -0.833800
     18 O24         1.6800    0.0620    5.2850 o         1 GO0     -0.833800
     19 H10         4.3510   -0.1740   -2.1490 ha        1 GO0      0.112000
     20 H12         1.8870   -0.0200   -2.1380 ha        1 GO0      0.108000
     21 H15         5.6000   -0.1910    4.3000 hc        1 GO0      0.055200
     22 H15A        6.2480    0.7010    2.8560 hc        1 GO0      0.055200
     23 HN4         1.0860    0.1300    2.8550 hn        1 GO0      0.306700
@<TRIPOS>BOND
     1    1    2 1   
     2    2    3 ar  
     3    2   10 ar  
     4    3    4 1   
     5    3    7 ar  
     6    4    5 1   
     7    4   23 1   
     8    5    6 2   
     9    5   16 1   
    10    6    7 1   
    11    6   12 1   
    12    7    8 ar  
    13    8    9 ar  
    14    8   11 1   
    15    9   10 ar  
    16    9   19 1   
    17   10   20 1   
    18   12   13 1   
    19   12   21 1   
    20   12   22 1   
    21   13   14 1   
    22   13   15 1   
    23   16   17 1   
    24   16   18 1   
@<TRIPOS>SUBSTRUCTURE
     1 GO0         1 TEMP              0 ****  ****    0 ROOT
