@<TRIPOS>MOLECULE
GO1
   23    24     1     0     0
SMALL
bcc


@<TRIPOS>ATOM
      1 CL1         0.0920    0.4670   -0.0500 cl        1 GO1     -0.171400
      2 C2          1.7760    0.1600    0.0130 ca        1 GO1     -0.015600
      3 C3          2.4410    0.1030    1.2500 ca        1 GO1     -0.065200
      4 N4          1.9980    0.2830    2.5430 na        1 GO1     -0.158400
      5 C6          3.0800    0.1260    3.4320 cc        1 GO1     -0.119300
      6 C7          4.2490   -0.1510    2.7000 cd        1 GO1     -0.052400
      7 C8          3.8730   -0.1640    1.2990 ca        1 GO1     -0.075800
      8 C9          4.5770   -0.3560    0.1110 ca        1 GO1     -0.040000
      9 C11         3.8770   -0.2850   -1.0910 ca        1 GO1     -0.045600
     10 C12         2.4950   -0.0350   -1.1580 ca        1 GO1     -0.135000
     11 CL14        4.7130   -0.5080   -2.5750 cl        1 GO1     -0.175400
     12 C15         5.5930   -0.3420    3.2610 c3        1 GO1     -0.129200
     13 C18         6.5400   -1.2440    2.4560 c         1 GO1      0.905600
     14 O19         6.6210   -2.4740    2.7440 o         1 GO1     -0.868800
     15 O20         7.2670   -0.7160    1.5550 o         1 GO1     -0.868800
     16 C22         2.8160    0.2960    4.9200 c         1 GO1      0.929800
     17 O23         3.7890    0.3680    5.7130 o         1 GO1     -0.835300
     18 O24         1.6020    0.3810    5.2840 o         1 GO1     -0.835300
     19 H9          5.6680   -0.5590    0.1600 ha        1 GO1      0.220000
     20 H12         1.9880    0.0050   -2.1310 ha        1 GO1      0.120000
     21 H15         5.4890   -0.7600    4.3000 hc        1 GO1      0.054700
     22 H15A        6.0810    0.6670    3.3510 hc        1 GO1      0.054700
     23 HN4         1.0670    0.4160    2.8440 hn        1 GO1      0.305700
@<TRIPOS>BOND
     1    1    2 1   
     2    2    3 ar  
     3    2   10 ar  
     4    3    4 1   
     5    3    7 ar  
     6    4    5 1   
     7    4   23 1   
     8    5    6 2   
     9    5   16 1   
    10    6    7 1   
    11    6   12 1   
    12    7    8 ar  
    13    8    9 ar  
    14    8   19 1   
    15    9   10 ar  
    16    9   11 1   
    17   10   20 1   
    18   12   13 1   
    19   12   21 1   
    20   12   22 1   
    21   13   14 1   
    22   13   15 1   
    23   16   17 1   
    24   16   18 1   
@<TRIPOS>SUBSTRUCTURE
     1 GO1         1 TEMP              0 ****  ****    0 ROOT
