@<TRIPOS>MOLECULE
GO1
   23    24     1     0     0
SMALL
bcc


@<TRIPOS>ATOM
      1 CL1        -2.6620   -2.8190    0.0170 cl        1 GO1     -0.171400
      2 C2         -2.0310   -1.2260    0.0410 ca        1 GO1     -0.015600
      3 C3         -0.6480   -1.0130    0.1600 ca        1 GO1     -0.065200
      4 N4          0.4100   -1.8850    0.3000 na        1 GO1     -0.158400
      5 C6          1.6110   -1.1510    0.3880 cc        1 GO1     -0.119300
      6 C7          1.3230    0.2230    0.3120 cd        1 GO1     -0.052400
      7 C8         -0.1160    0.3450    0.1740 ca        1 GO1     -0.075800
      8 C9         -0.9900    1.4260    0.0760 ca        1 GO1     -0.040000
      9 C11        -2.3530    1.1650   -0.0340 ca        1 GO1     -0.045600
     10 C12        -2.8850   -0.1360   -0.0570 ca        1 GO1     -0.135000
     11 CL14       -3.4610    2.4740   -0.1500 cl        1 GO1     -0.175400
     12 C15         2.3020    1.3150    0.4040 c3        1 GO1     -0.129200
     13 C18         1.9370    2.6140   -0.3300 c         1 GO1      0.905600
     14 O19         2.3560    2.8010   -1.5090 o         1 GO1     -0.868800
     15 O20         1.2690    3.5000    0.2940 o         1 GO1     -0.868800
     16 C22         2.9100   -1.9210    0.5610 c         1 GO1      0.929800
     17 O23         3.9620   -1.2960    0.8480 o         1 GO1     -0.835300
     18 O24         2.8550   -3.1840    0.4250 o         1 GO1     -0.835300
     19 H9         -0.5740    2.4560    0.0870 ha        1 GO1      0.220000
     20 H12        -3.9680   -0.2880   -0.1520 ha        1 GO1      0.120000
     21 H15         2.4430    1.5680    1.4910 hc        1 GO1      0.054700
     22 H15A        3.2880    0.9430    0.0140 hc        1 GO1      0.054700
     23 HN4         0.3820   -2.8710    0.2640 hn        1 GO1      0.305700
@<TRIPOS>BOND
     1    1    2 1   
     2    2    3 ar  
     3    2   10 ar  
     4    3    4 1   
     5    3    7 ar  
     6    4    5 1   
     7    4   23 1   
     8    5    6 2   
     9    5   16 1   
    10    6    7 1   
    11    6   12 1   
    12    7    8 ar  
    13    8    9 ar  
    14    8   19 1   
    15    9   10 ar  
    16    9   11 1   
    17   10   20 1   
    18   12   13 1   
    19   12   21 1   
    20   12   22 1   
    21   13   14 1   
    22   13   15 1   
    23   16   17 1   
    24   16   18 1   
@<TRIPOS>SUBSTRUCTURE
     1 GO1         1 TEMP              0 ****  ****    0 ROOT
