@<TRIPOS>MOLECULE
GO1
   23    18     1     0     0
SMALL
bcc


@<TRIPOS>ATOM
      1 CL1        -3.9250    0.3040   -1.5550 cl        1 GO1     -0.093000
      2 C2         -2.1820    0.2610   -1.5830 c2        1 GO1     -0.094000
      3 C3         -1.3400    0.2220   -0.4580 c1        1 GO1     -0.020000
      4 N4         -1.6060    0.2410    0.8990 n1        1 GO1     -0.181000
      5 C6         -0.4150    0.1760    1.5660 c1        1 GO1     -0.073000
      6 C7          0.5970    0.1150    0.6280 c1        1 GO1     -0.060000
      7 C8          0.0200    0.1430   -0.6220 c1        1 GO1     -0.064000
      8 C9          0.5700    0.1030   -1.9150 c1        1 GO1     -0.040000
      9 C11        -0.2610    0.1410   -3.0250 c1        1 GO1     -0.124000
     10 C12        -1.6380    0.2200   -2.8590 c2        1 GO1     -0.135000
     11 CL14        0.3050    0.1730   -4.6740 cl        1 GO1     -0.097000
     12 C15         2.0510    0.1980    1.0390 c2        1 GO1     -0.162000
     13 C18         2.5640   -1.1880    1.3610 c2        1 GO1      0.325000
     14 O19         1.7690   -2.0720    1.7770 o         1 GO1     -0.603500
     15 O20         3.7850   -1.4570    1.2160 o         1 GO1     -0.603500
     16 C22        -0.5850    0.1680    3.0690 c1        1 GO1      0.380000
     17 O23        -0.6820    1.2550    3.6970 o         1 GO1     -0.570000
     18 O24        -0.6190   -0.9240    3.6940 o         1 GO1     -0.570000
     19 H9          1.5370    0.0410   -2.0320 ha        1 GO1      0.220000
     20 H12        -2.2230    0.2470   -3.6400 ha        1 GO1      0.120000
     21 H15         2.5750    0.5770    0.3050 ha        1 GO1      0.094000
     22 H15A        2.1350    0.7680    1.8290 ha        1 GO1      0.094000
     23 HN4        -2.4330    0.2900    1.2820 DU        1 GO1      0.256000
@<TRIPOS>BOND
     1    1    2 1   
     2    2    3 1   
     3    2   10 1   
     4    4    5 1   
     5    5    6 1   
     6    6    7 1   
     7    7    8 1   
     8    8   19 1   
     9    9   10 1   
    10    9   11 1   
    11   10   20 1   
    12   12   13 1   
    13   12   21 1   
    14   12   22 1   
    15   13   14 1   
    16   13   15 1   
    17   16   17 1   
    18   16   18 1   
@<TRIPOS>SUBSTRUCTURE
     1 GO1         1 TEMP              0 ****  ****    0 ROOT
