@<TRIPOS>MOLECULE
GOA
    8     6     1     0     0
SMALL
bcc


@<TRIPOS>ATOM
      1 C1         -1.0980   -0.2170   -0.0000 c1        1 GOA      0.344000
      2 C2          0.4150   -0.2170   -0.0000 c2        1 GOA     -0.097000
      3 O11        -1.7280   -0.2170    1.0900 o         1 GOA     -0.573000
      4 O12        -1.7280   -0.2170   -1.0910 o         1 GOA     -0.573000
      5 O2          0.8850    1.1120    0.0020 oh        1 GOA     -0.313000
      6 H22         0.7400   -0.6790    0.7960 h4        1 GOA      0.032000
      7 H21         0.7400   -0.6760   -0.7980 h4        1 GOA      0.032000
      8 H2          1.7730    1.1120    0.0020 ho        1 GOA      0.148000
@<TRIPOS>BOND
     1    1    3 1   
     2    1    4 1   
     3    2    5 1   
     4    2    6 1   
     5    2    7 1   
     6    5    8 1   
@<TRIPOS>SUBSTRUCTURE
     1 GOA         1 TEMP              0 ****  ****    0 ROOT
