@<TRIPOS>MOLECULE
GOA
    8     7     1     0     0
SMALL
bcc


@<TRIPOS>ATOM
      1 C1         -0.0440    0.0230    0.0050 c         1 GOA      0.924600
      2 C2          1.4970   -0.1410    0.0470 c3        1 GOA      0.003400
      3 O11        -0.7400   -0.8730    0.5560 o         1 GOA     -0.838300
      4 O12        -0.5080    1.0060   -0.6350 o         1 GOA     -0.838300
      5 O2          2.0030    0.5230    1.1930 oh        1 GOA     -0.585800
      6 H22         1.7610   -1.2310    0.0970 h1        1 GOA     -0.007300
      7 H21         1.9510    0.3050   -0.8770 h1        1 GOA     -0.007300
      8 H2          2.9580    0.3920    1.1730 ho        1 GOA      0.349000
@<TRIPOS>BOND
     1    1    2 1   
     2    1    3 1   
     3    1    4 1   
     4    2    5 1   
     5    2    6 1   
     6    2    7 1   
     7    5    8 1   
@<TRIPOS>SUBSTRUCTURE
     1 GOA         1 TEMP              0 ****  ****    0 ROOT
