@<TRIPOS>MOLECULE
GOA
    8     7     1     0     0
SMALL
bcc


@<TRIPOS>ATOM
      1 C1          0.5490    0.0530    0.0270 c         1 GOA      0.924600
      2 C2         -0.7850   -0.7200   -0.1420 c3        1 GOA      0.003400
      3 O11         0.8580    0.8850   -0.8700 o         1 GOA     -0.838300
      4 O12         1.2740   -0.2460    1.0150 o         1 GOA     -0.838300
      5 O2         -1.8190   -0.0070    0.5140 oh        1 GOA     -0.585800
      6 H22        -1.0290   -0.8190   -1.2330 h1        1 GOA     -0.007300
      7 H21        -0.6890   -1.7440    0.3070 h1        1 GOA     -0.007300
      8 H2         -2.6210   -0.5250    0.3800 ho        1 GOA      0.349000
@<TRIPOS>BOND
     1    1    2 1   
     2    1    3 1   
     3    1    4 1   
     4    2    5 1   
     5    2    6 1   
     6    2    7 1   
     7    5    8 1   
@<TRIPOS>SUBSTRUCTURE
     1 GOA         1 TEMP              0 ****  ****    0 ROOT
