@<TRIPOS>MOLECULE
GOB
   59    61     1     0     0
SMALL
bcc


@<TRIPOS>ATOM
      1 C1          2.6960    4.1000    1.7260 c3        1 GOB      0.114700
      2 O2          2.7870    2.6940    1.5280 os        1 GOB     -0.292900
      3 C3          1.7730    2.1020    0.8140 ca        1 GOB      0.172100
      4 C4          0.4940    2.6530    0.7300 ca        1 GOB     -0.287000
      5 C5         -0.5110    1.9570    0.0530 ca        1 GOB      0.235100
      6 C6         -0.2590    0.7280   -0.5820 ca        1 GOB     -0.420500
      7 C7          1.0420    0.1990   -0.4890 ca        1 GOB     -0.035000
      8 C8          2.0860    0.8460    0.1890 ca        1 GOB      0.040600
      9 N9          3.3880    0.3490    0.2510 n         1 GOB     -0.466100
     10 C10         3.7700   -0.9710    0.0750 c         1 GOB      0.669100
     11 O11         2.9520   -1.8840   -0.1740 o         1 GOB     -0.655100
     12 C12         5.2540   -1.2620    0.2200 c3        1 GOB     -0.125400
     13 C13         6.1240   -0.4380   -0.7000 c3        1 GOB     -0.204400
     14 C14         6.7040    0.8170   -0.0260 c         1 GOB      0.906600
     15 O15         5.9730    1.4780    0.7770 o         1 GOB     -0.841800
     16 O16         7.8870    1.1430   -0.3110 o         1 GOB     -0.841800
     17 S17        -1.3970   -0.1000   -1.4860 sy        1 GOB      1.525200
     18 O18        -2.1060    0.7820   -2.3270 o         1 GOB     -0.654300
     19 O19        -0.7780   -1.1660   -2.1710 o         1 GOB     -0.654300
     20 N20        -2.4300   -0.7240   -0.3340 nh        1 GOB     -0.541300
     21 C21        -1.9690   -1.4280    0.8050 ca        1 GOB      0.152600
     22 C22        -0.8930   -2.3380    0.7010 ca        1 GOB     -0.151000
     23 C23        -0.4260   -2.9990    1.8330 ca        1 GOB     -0.113000
     24 C24        -1.0230   -2.7930    3.0760 ca        1 GOB     -0.150000
     25 C25        -2.0950   -1.9100    3.1850 ca        1 GOB     -0.113000
     26 C26        -2.5670   -1.2280    2.0690 ca        1 GOB     -0.151000
     27 C27        -3.8370   -0.6300   -0.4840 ca        1 GOB      0.109600
     28 C28        -4.6440   -1.7870   -0.4340 ca        1 GOB     -0.094000
     29 C29        -6.0190   -1.7070   -0.6000 ca        1 GOB     -0.180500
     30 C30        -6.6490   -0.4630   -0.8240 ca        1 GOB      0.110600
     31 C31        -5.8410    0.6930   -0.8760 ca        1 GOB     -0.180500
     32 C32        -4.4670    0.6140   -0.6980 ca        1 GOB     -0.094000
     33 N33        -8.0490   -0.3700   -0.9150 nh        1 GOB     -0.808200
     34 O34        -1.8170    2.4050   -0.0130 os        1 GOB     -0.337900
     35 C35        -2.0430    3.7640    0.3440 c3        1 GOB      0.122700
     36 H1          2.4500    4.6290    0.7740 h1        1 GOB      0.045367
     37 H1A         1.9330    4.3290    2.5100 h1        1 GOB      0.045367
     38 H1B         3.7240    4.3720    2.0790 h1        1 GOB      0.045367
     39 H4          0.2810    3.6150    1.2140 ha        1 GOB      0.141000
     40 H7          1.2460   -0.7740   -0.9860 ha        1 GOB      0.201000
     41 HN9         4.1220    1.0050    0.5220 hn        1 GOB      0.402500
     42 H12         5.5470   -1.0650    1.2870 hc        1 GOB      0.063200
     43 H12A        5.3890   -2.3560    0.0120 hc        1 GOB      0.063200
     44 H13         6.9800   -1.0680   -1.0540 hc        1 GOB      0.040700
     45 H13A        5.5520   -0.1100   -1.6040 hc        1 GOB      0.040700
     46 H22        -0.3980   -2.5200   -0.2700 ha        1 GOB      0.155000
     47 H23         0.4320   -3.6830    1.7370 ha        1 GOB      0.133000
     48 H24        -0.6460   -3.3200    3.9640 ha        1 GOB      0.126000
     49 H25        -2.5710   -1.7410    4.1630 ha        1 GOB      0.133000
     50 H26        -3.4140   -0.5320    2.1710 ha        1 GOB      0.155000
     51 H28        -4.1810   -2.7710   -0.2560 ha        1 GOB      0.154000
     52 H29        -6.6170   -2.6290   -0.5530 ha        1 GOB      0.127500
     53 H31        -6.2980    1.6780   -1.0550 ha        1 GOB      0.127500
     54 H32        -3.8600    1.5350   -0.7610 ha        1 GOB      0.154000
     55 HN33       -8.4760   -1.2100   -1.2410 hn        1 GOB      0.375300
     56 HN3A       -8.3550    0.4280   -1.4290 hn        1 GOB      0.375300
     57 H35        -3.1120    3.9300    0.0560 h1        1 GOB      0.043033
     58 H35A       -1.9050    3.9030    1.4440 h1        1 GOB      0.043033
     59 H35B       -1.3690    4.4460   -0.2270 h1        1 GOB      0.043033
@<TRIPOS>BOND
     1    1    2 1   
     2    1   36 1   
     3    1   37 1   
     4    1   38 1   
     5    2    3 1   
     6    3    4 ar  
     7    3    8 ar  
     8    4    5 ar  
     9    4   39 1   
    10    5    6 ar  
    11    5   34 1   
    12    6    7 ar  
    13    6   17 1   
    14    7    8 ar  
    15    7   40 1   
    16    8    9 1   
    17    9   10 1   
    18    9   41 1   
    19   10   11 2   
    20   10   12 1   
    21   12   13 1   
    22   12   42 1   
    23   12   43 1   
    24   13   14 1   
    25   13   44 1   
    26   13   45 1   
    27   14   15 1   
    28   14   16 1   
    29   17   18 2   
    30   17   19 2   
    31   17   20 1   
    32   20   21 1   
    33   20   27 1   
    34   21   22 ar  
    35   21   26 ar  
    36   22   23 ar  
    37   22   46 1   
    38   23   24 ar  
    39   23   47 1   
    40   24   25 ar  
    41   24   48 1   
    42   25   26 ar  
    43   25   49 1   
    44   26   50 1   
    45   27   28 ar  
    46   27   32 ar  
    47   28   29 ar  
    48   28   51 1   
    49   29   30 ar  
    50   29   52 1   
    51   30   31 ar  
    52   30   33 1   
    53   31   32 ar  
    54   31   53 1   
    55   32   54 1   
    56   33   55 1   
    57   33   56 1   
    58   34   35 1   
    59   35   57 1   
    60   35   58 1   
    61   35   59 1   
@<TRIPOS>SUBSTRUCTURE
     1 GOB         1 TEMP              0 ****  ****    0 ROOT
