@<TRIPOS>MOLECULE
GOB
   59    54     1     0     0
SMALL
bcc


@<TRIPOS>ATOM
      1 C1         -2.3300   -1.7020   -4.0090 c3        1 GOB     -0.076000
      2 O2         -0.9690   -1.1370   -3.9160 os        1 GOB     -0.176000
      3 C3         -0.4450   -1.1370   -2.6260 c2        1 GOB      0.109000
      4 C4         -0.4430   -2.3290   -1.8590 c2        1 GOB     -0.240000
      5 C5          0.1040   -2.3350   -0.5950 c1        1 GOB      0.166000
      6 C6          0.6350   -1.2080   -0.0890 c1        1 GOB     -0.851000
      7 C7          0.6370   -0.0300   -0.8360 c1        1 GOB     -0.053000
      8 C8          0.0860   -0.0160   -2.1140 c1        1 GOB      0.063000
      9 N9          0.1450    1.1880   -2.9090 n         1 GOB     -0.317000
     10 C10         1.2060    1.3780   -3.8440 c2        1 GOB      0.319000
     11 O11         2.0610    0.5280   -3.9720 o         1 GOB     -0.433000
     12 C12         1.2800    2.7050   -4.6820 c3        1 GOB     -0.154000
     13 C13         2.0370    2.4410   -5.9880 c3        1 GOB     -0.235000
     14 C14         2.3040    3.7570   -6.6910 c2        1 GOB      0.327000
     15 O15         3.3670    4.3130   -6.5460 o         1 GOB     -0.575000
     16 O16         1.4370    4.2480   -7.4640 o         1 GOB     -0.575000
     17 S17         1.2220   -1.1850    1.7350 s4        1 GOB      2.070800
     18 O18         1.5710   -2.4530    2.1650 o         1 GOB     -0.542900
     19 O19         2.4740   -0.4860    1.8720 o         1 GOB     -0.542900
     20 N20         0.0530   -0.5190    2.7130 n2        1 GOB     -0.717000
     21 C21        -1.1190   -1.2770    3.0630 c2        1 GOB      0.041500
     22 C22        -1.0290   -2.2990    3.9660 c2        1 GOB     -0.121500
     23 C23        -2.1480   -3.0260    4.2880 c1        1 GOB     -0.151500
     24 C24        -3.3790   -2.7170    3.6890 c1        1 GOB     -0.138000
     25 C25        -3.4630   -1.6820    2.7750 c1        1 GOB     -0.138000
     26 C26        -2.3670   -0.9690    2.4590 c1        1 GOB     -0.113500
     27 C27         0.2540    0.7980    3.2850 c2        1 GOB      0.041500
     28 C28         0.9920    0.9430    4.4420 c2        1 GOB     -0.121500
     29 C29         1.2270    2.2500    4.9840 c1        1 GOB     -0.151500
     30 C30         0.7180    3.3500    4.3510 c1        1 GOB      0.048000
     31 C31        -0.0230    3.2030    3.1900 c1        1 GOB     -0.175000
     32 C32        -0.2560    1.9070    2.6520 c1        1 GOB     -0.113500
     33 N33         0.9340    4.6620    4.9040 n3        1 GOB     -0.321000
     34 O34         0.1500   -3.5140    0.1470 os        1 GOB     -0.236000
     35 C35         0.8890   -4.5830   -0.4890 c3        1 GOB     -0.066000
     36 H1         -2.8500   -1.4640   -3.1760 h1        1 GOB      0.085000
     37 H1A        -2.8020   -1.3200   -4.8270 h1        1 GOB      0.085000
     38 H1B        -2.2770   -2.6340   -4.0890 h1        1 GOB      0.085000
     39 H4         -0.7680   -3.1190   -2.2250 ha        1 GOB      0.146000
     40 H7          1.0270    0.7110   -0.5060 ha        1 GOB      0.185000
     41 HN9        -0.5490    1.8860   -2.8000 hn        1 GOB      0.318000
     42 H12         1.7370    3.3740   -4.1770 hc        1 GOB      0.103500
     43 H12A        0.3380    3.0260   -4.8930 hc        1 GOB      0.103500
     44 H13         2.9760    1.9510   -5.7670 hc        1 GOB      0.080000
     45 H13A        1.4650    1.8260   -6.6050 hc        1 GOB      0.080000
     46 H22        -0.2350   -2.4620    4.3980 ha        1 GOB      0.153500
     47 H23        -2.0840   -3.8140    4.9820 ha        1 GOB      0.126000
     48 H24        -4.1480   -3.2900    3.8420 ha        1 GOB      0.123500
     49 H25        -4.2940   -1.4740    2.3720 ha        1 GOB      0.123500
     50 H26        -2.4180   -0.2950    1.7920 ha        1 GOB      0.162500
     51 H28         1.3240    0.1610    4.9040 ha        1 GOB      0.153500
     52 H29         1.7720    2.3580    5.7850 ha        1 GOB      0.126000
     53 H31        -0.3790    3.9790    2.7470 ha        1 GOB      0.145000
     54 H32        -0.7690    1.8060    1.8420 ha        1 GOB      0.162500
     55 HN33        0.4690    5.4210    4.5320 hn        1 GOB      0.176000
     56 HN3A        1.4530    4.7650    5.6570 hn        1 GOB      0.176000
     57 H35         1.5830   -4.2100   -1.0450 h1        1 GOB      0.082667
     58 H35A        1.3000   -5.1650    0.2120 h1        1 GOB      0.082667
     59 H35B        0.3190   -5.0820   -1.0060 h1        1 GOB      0.082667
@<TRIPOS>BOND
     1    1    2 1   
     2    1   36 1   
     3    1   37 1   
     4    1   38 1   
     5    2    3 1   
     6    3    4 1   
     7    3    8 1   
     8    4    5 1   
     9    4   39 1   
    10    5   34 1   
    11    6    7 1   
    12    6   17 1   
    13    7   40 1   
    14    8    9 1   
    15    9   10 1   
    16    9   41 1   
    17   10   11 1   
    18   10   12 1   
    19   12   13 1   
    20   12   42 1   
    21   12   43 1   
    22   13   14 1   
    23   13   44 1   
    24   13   45 1   
    25   14   15 1   
    26   14   16 1   
    27   17   18 1   
    28   17   19 1   
    29   20   21 1   
    30   20   27 1   
    31   21   22 1   
    32   21   26 1   
    33   22   23 1   
    34   22   46 1   
    35   23   47 1   
    36   24   25 1   
    37   24   48 1   
    38   25   49 1   
    39   26   50 1   
    40   27   28 1   
    41   27   32 1   
    42   28   29 1   
    43   28   51 1   
    44   29   52 1   
    45   30   31 1   
    46   30   33 1   
    47   31   53 1   
    48   32   54 1   
    49   33   55 1   
    50   33   56 1   
    51   34   35 1   
    52   35   57 1   
    53   35   58 1   
    54   35   59 1   
@<TRIPOS>SUBSTRUCTURE
     1 GOB         1 TEMP              0 ****  ****    0 ROOT
