@<TRIPOS>MOLECULE
GOB
   59    61     1     0     0
SMALL
bcc


@<TRIPOS>ATOM
      1 C1          1.0380   -0.2590   -0.6750 c3        1 GOB      0.114700
      2 O2          2.3250    0.1540   -0.2280 os        1 GOB     -0.292900
      3 C3          2.5840    0.0270    1.1160 ca        1 GOB      0.172100
      4 C4          1.5730    0.0190    2.0770 ca        1 GOB     -0.287000
      5 C5          1.9120   -0.0330    3.4310 ca        1 GOB      0.235100
      6 C6          3.2510   -0.1140    3.8540 ca        1 GOB     -0.420500
      7 C7          4.2500   -0.1140    2.8640 ca        1 GOB     -0.035000
      8 C8          3.9690   -0.0490    1.4910 ca        1 GOB      0.040600
      9 N9          4.9510   -0.0880    0.5010 n         1 GOB     -0.466100
     10 C10         6.2880    0.2360    0.6600 c         1 GOB      0.669100
     11 O11         6.7680    0.6070    1.7550 o         1 GOB     -0.655100
     12 C12         7.1540    0.1380   -0.5840 c3        1 GOB     -0.125400
     13 C13         7.1200   -1.2250   -1.2360 c3        1 GOB     -0.204400
     14 C14         6.1190   -1.3170   -2.4010 c         1 GOB      0.906600
     15 O15         4.9960   -0.7300   -2.2960 o         1 GOB     -0.841800
     16 O16         6.4570   -1.9860   -3.4130 o         1 GOB     -0.841800
     17 S17         3.7100   -0.2750    5.4550 sy        1 GOB      1.525200
     18 O18         2.8990   -1.2200    6.1150 o         1 GOB     -0.654300
     19 O19         5.0900   -0.5580    5.5280 o         1 GOB     -0.654300
     20 N20         3.4330    1.2410    6.0930 nh        1 GOB     -0.541300
     21 C21         3.8950    2.4280    5.4720 ca        1 GOB      0.152600
     22 C22         5.1750    2.4750    4.8740 ca        1 GOB     -0.151000
     23 C23         5.6050    3.6350    4.2370 ca        1 GOB     -0.113000
     24 C24         4.7960    4.7700    4.2000 ca        1 GOB     -0.150000
     25 C25         3.5390    4.7380    4.8010 ca        1 GOB     -0.113000
     26 C26         3.0840    3.5830    5.4300 ca        1 GOB     -0.151000
     27 C27         2.7710    1.4040    7.3360 ca        1 GOB      0.109600
     28 C28         3.3720    2.1370    8.3810 ca        1 GOB     -0.094000
     29 C29         2.7400    2.2830    9.6080 ca        1 GOB     -0.180500
     30 C30         1.4750    1.7000    9.8430 ca        1 GOB      0.110600
     31 C31         0.8750    0.9650    8.7980 ca        1 GOB     -0.180500
     32 C32         1.5030    0.8300    7.5680 ca        1 GOB     -0.094000
     33 N33         0.7990    1.9120   11.0570 nh        1 GOB     -0.808200
     34 O34         0.9710    0.0260    4.4410 os        1 GOB     -0.337900
     35 C35        -0.3830   -0.1960    4.0640 c3        1 GOB      0.122700
     36 H1          0.7650   -1.2580   -0.2580 h1        1 GOB      0.045367
     37 H1A         0.2720    0.5050   -0.3970 h1        1 GOB      0.045367
     38 H1B         1.1630   -0.3120   -1.7880 h1        1 GOB      0.045367
     39 H4          0.5220    0.0750    1.7640 ha        1 GOB      0.141000
     40 H7          5.3110   -0.1740    3.1920 ha        1 GOB      0.201000
     41 HN9         4.6450   -0.3100   -0.4480 hn        1 GOB      0.402500
     42 H12         8.2000    0.3960   -0.2710 hc        1 GOB      0.063200
     43 H12A        6.8020    0.9120   -1.3180 hc        1 GOB      0.063200
     44 H13         6.8560   -2.0180   -0.4920 hc        1 GOB      0.040700
     45 H13A        8.1380   -1.4640   -1.6360 hc        1 GOB      0.040700
     46 H22         5.8380    1.5910    4.8860 ha        1 GOB      0.155000
     47 H23         6.5940    3.6440    3.7530 ha        1 GOB      0.133000
     48 H24         5.1450    5.6810    3.6940 ha        1 GOB      0.126000
     49 H25         2.8940    5.6280    4.7740 ha        1 GOB      0.133000
     50 H26         2.0880    3.5720    5.8980 ha        1 GOB      0.155000
     51 H28         4.3570    2.6070    8.2250 ha        1 GOB      0.154000
     52 H29         3.2380    2.8630   10.3990 ha        1 GOB      0.127500
     53 H31        -0.1070    0.4920    8.9480 ha        1 GOB      0.127500
     54 H32         1.0150    0.2330    6.7750 ha        1 GOB      0.154000
     55 HN33        0.1410    1.1920   11.2690 hn        1 GOB      0.375300
     56 HN3A        1.4140    2.0910   11.8220 hn        1 GOB      0.375300
     57 H35        -0.9160   -0.2650    5.0460 h1        1 GOB      0.043033
     58 H35A       -0.4880   -1.1470    3.4890 h1        1 GOB      0.043033
     59 H35B       -0.7660    0.6690    3.4690 h1        1 GOB      0.043033
@<TRIPOS>BOND
     1    1    2 1   
     2    1   36 1   
     3    1   37 1   
     4    1   38 1   
     5    2    3 1   
     6    3    4 ar  
     7    3    8 ar  
     8    4    5 ar  
     9    4   39 1   
    10    5    6 ar  
    11    5   34 1   
    12    6    7 ar  
    13    6   17 1   
    14    7    8 ar  
    15    7   40 1   
    16    8    9 1   
    17    9   10 1   
    18    9   41 1   
    19   10   11 2   
    20   10   12 1   
    21   12   13 1   
    22   12   42 1   
    23   12   43 1   
    24   13   14 1   
    25   13   44 1   
    26   13   45 1   
    27   14   15 1   
    28   14   16 1   
    29   17   18 2   
    30   17   19 2   
    31   17   20 1   
    32   20   21 1   
    33   20   27 1   
    34   21   22 ar  
    35   21   26 ar  
    36   22   23 ar  
    37   22   46 1   
    38   23   24 ar  
    39   23   47 1   
    40   24   25 ar  
    41   24   48 1   
    42   25   26 ar  
    43   25   49 1   
    44   26   50 1   
    45   27   28 ar  
    46   27   32 ar  
    47   28   29 ar  
    48   28   51 1   
    49   29   30 ar  
    50   29   52 1   
    51   30   31 ar  
    52   30   33 1   
    53   31   32 ar  
    54   31   53 1   
    55   32   54 1   
    56   33   55 1   
    57   33   56 1   
    58   34   35 1   
    59   35   57 1   
    60   35   58 1   
    61   35   59 1   
@<TRIPOS>SUBSTRUCTURE
     1 GOB         1 TEMP              0 ****  ****    0 ROOT
