@<TRIPOS>MOLECULE
GOB
   59    61     1     0     0
SMALL
bcc


@<TRIPOS>ATOM
      1 C1          1.0680   -0.2770   -0.6860 c3        1 GOB      0.114700
      2 O2          2.3490    0.1460   -0.2330 os        1 GOB     -0.292900
      3 C3          2.6030    0.0210    1.1120 ca        1 GOB      0.172100
      4 C4          1.5870    0.0060    2.0680 ca        1 GOB     -0.287000
      5 C5          1.9200   -0.0430    3.4240 ca        1 GOB      0.235100
      6 C6          3.2570   -0.1150    3.8540 ca        1 GOB     -0.420500
      7 C7          4.2620   -0.1070    2.8680 ca        1 GOB     -0.035000
      8 C8          3.9870   -0.0450    1.4940 ca        1 GOB      0.040600
      9 N9          4.9740   -0.0770    0.5090 ns        1 GOB     -0.466100
     10 C10         6.3080    0.2580    0.6750 c         1 GOB      0.669100
     11 O11         6.7790    0.6320    1.7710 o         1 GOB     -0.655100
     12 C12         7.1800    0.1650   -0.5660 c3        1 GOB     -0.125400
     13 C13         7.1590   -1.1980   -1.2180 c3        1 GOB     -0.204400
     14 C14         6.1650   -1.2970   -2.3870 c         1 GOB      0.906600
     15 O15         5.0370   -0.7190   -2.2880 o         1 GOB     -0.841800
     16 O16         6.5120   -1.9640   -3.3980 o         1 GOB     -0.841800
     17 S17         3.7100   -0.2720    5.4570 sy        1 GOB      1.525200
     18 O18         2.9020   -1.2230    6.1130 o         1 GOB     -0.654300
     19 O19         5.0910   -0.5450    5.5370 o         1 GOB     -0.654300
     20 N20         3.4190    1.2420    6.0930 nh        1 GOB     -0.541300
     21 C21         3.8760    2.4320    5.4740 ca        1 GOB      0.152600
     22 C22         5.1580    2.4880    4.8830 ca        1 GOB     -0.151000
     23 C23         5.5830    3.6510    4.2480 ca        1 GOB     -0.113000
     24 C24         4.7660    4.7800    4.2060 ca        1 GOB     -0.150000
     25 C25         3.5070    4.7390    4.8010 ca        1 GOB     -0.113000
     26 C26         3.0570    3.5810    5.4280 ca        1 GOB     -0.151000
     27 C27         2.7500    1.3990    7.3330 ca        1 GOB      0.109600
     28 C28         3.3410    2.1370    8.3810 ca        1 GOB     -0.094000
     29 C29         2.7020    2.2790    9.6040 ca        1 GOB     -0.180500
     30 C30         1.4400    1.6870    9.8340 ca        1 GOB      0.110600
     31 C31         0.8500    0.9480    8.7860 ca        1 GOB     -0.180500
     32 C32         1.4850    0.8160    7.5580 ca        1 GOB     -0.094000
     33 N33         0.7560    1.8940   11.0440 nv        1 GOB     -0.808200
     34 O34         0.9730    0.0080    4.4290 os        1 GOB     -0.337900
     35 C35        -0.3770   -0.2240    4.0460 c3        1 GOB      0.122700
     36 H1          0.8000   -1.2770   -0.2700 h1        1 GOB      0.045367
     37 H1A         0.2950    0.4820   -0.4120 h1        1 GOB      0.045367
     38 H1B         1.1980   -0.3290   -1.7980 h1        1 GOB      0.045367
     39 H4          0.5370    0.0540    1.7500 ha        1 GOB      0.141000
     40 H7          5.3210   -0.1600    3.2010 ha        1 GOB      0.201000
     41 HN9         4.6740   -0.3010   -0.4420 hn        1 GOB      0.402500
     42 H12         8.2220    0.4310   -0.2480 hc        1 GOB      0.063200
     43 H12A        6.8260    0.9370   -1.3020 hc        1 GOB      0.063200
     44 H13         6.8970   -1.9920   -0.4750 hc        1 GOB      0.040700
     45 H13A        8.1810   -1.4290   -1.6130 hc        1 GOB      0.040700
     46 H22         5.8280    1.6090    4.8980 ha        1 GOB      0.155000
     47 H23         6.5740    3.6670    3.7680 ha        1 GOB      0.133000
     48 H24         5.1110    5.6930    3.7020 ha        1 GOB      0.126000
     49 H25         2.8550    5.6250    4.7710 ha        1 GOB      0.133000
     50 H26         2.0580    3.5630    5.8910 ha        1 GOB      0.155000
     51 H28         4.3230    2.6140    8.2300 ha        1 GOB      0.154000
     52 H29         3.1910    2.8620   10.3980 ha        1 GOB      0.127500
     53 H31        -0.1290    0.4670    8.9320 ha        1 GOB      0.127500
     54 H32         1.0050    0.2160    6.7640 ha        1 GOB      0.154000
     55 HN33        0.1030    1.1700   11.2530 hn        1 GOB      0.375300
     56 HN3A        1.3670    2.0780   11.8120 hn        1 GOB      0.375300
     57 H35        -0.9130   -0.2970    5.0260 h1        1 GOB      0.043033
     58 H35A       -0.4720   -1.1760    3.4710 h1        1 GOB      0.043033
     59 H35B       -0.7630    0.6380    3.4490 h1        1 GOB      0.043033
@<TRIPOS>BOND
     1    1    2 1   
     2    1   36 1   
     3    1   37 1   
     4    1   38 1   
     5    2    3 1   
     6    3    4 ar  
     7    3    8 ar  
     8    4    5 ar  
     9    4   39 1   
    10    5    6 ar  
    11    5   34 1   
    12    6    7 ar  
    13    6   17 1   
    14    7    8 ar  
    15    7   40 1   
    16    8    9 1   
    17    9   10 1   
    18    9   41 1   
    19   10   11 2   
    20   10   12 1   
    21   12   13 1   
    22   12   42 1   
    23   12   43 1   
    24   13   14 1   
    25   13   44 1   
    26   13   45 1   
    27   14   15 1   
    28   14   16 1   
    29   17   18 2   
    30   17   19 2   
    31   17   20 1   
    32   20   21 1   
    33   20   27 1   
    34   21   22 ar  
    35   21   26 ar  
    36   22   23 ar  
    37   22   46 1   
    38   23   24 ar  
    39   23   47 1   
    40   24   25 ar  
    41   24   48 1   
    42   25   26 ar  
    43   25   49 1   
    44   26   50 1   
    45   27   28 ar  
    46   27   32 ar  
    47   28   29 ar  
    48   28   51 1   
    49   29   30 ar  
    50   29   52 1   
    51   30   31 ar  
    52   30   33 1   
    53   31   32 ar  
    54   31   53 1   
    55   32   54 1   
    56   33   55 1   
    57   33   56 1   
    58   34   35 1   
    59   35   57 1   
    60   35   58 1   
    61   35   59 1   
@<TRIPOS>SUBSTRUCTURE
     1 GOB         1 TEMP              0 ****  ****    0 ROOT
