@<TRIPOS>MOLECULE
GOI
   77    81     1     0     0
SMALL
bcc


@<TRIPOS>ATOM
      1 C1         -5.8970    0.2310   -0.0260 c3        1 GOI      0.306900
      2 O1         -4.8840   -0.6010   -0.5410 os        1 GOI     -0.415600
      3 C2         -6.1420    1.3320   -1.0770 c3        1 GOI      0.090100
      4 O2         -5.0910    2.2800   -1.0570 oh        1 GOI     -0.605800
      5 C3         -7.4290    2.0890   -0.7240 c3        1 GOI      0.108100
      6 O3         -7.7980    2.9790   -1.7630 oh        1 GOI     -0.606800
      7 C4         -8.5880    1.0890   -0.5720 c3        1 GOI      0.122100
      8 O4         -9.7470    1.7460   -0.0880 oh        1 GOI     -0.595800
      9 C5         -8.2170    0.0130    0.4590 c3        1 GOI      0.108100
     10 O5         -7.0090   -0.6500    0.0810 os        1 GOI     -0.451600
     11 C6         -9.2900   -1.0790    0.5160 c3        1 GOI      0.140400
     12 O6         -9.0030   -2.0250    1.5220 oh        1 GOI     -0.595800
     13 CAE         8.4310    3.5140    0.3760 ca        1 GOI     -0.131500
     14 CAF         7.0370   -3.4290   -1.0870 ca        1 GOI     -0.131500
     15 CAG         7.6280    3.5630   -0.7640 ca        1 GOI     -0.128000
     16 CAH         6.3700   -2.7280   -2.0920 ca        1 GOI     -0.128000
     17 CAI         8.3040    2.4540    1.2650 ca        1 GOI     -0.115500
     18 CAJ         7.2370   -2.8340    0.1530 ca        1 GOI     -0.115500
     19 CAK         6.6970    2.5600   -1.0120 ca        1 GOI     -0.108500
     20 CAL         5.8980   -1.4420   -1.8570 ca        1 GOI     -0.108500
     21 CAM         7.3140    0.3320    1.9870 cc        1 GOI     -0.117500
     22 CAN         7.0520   -0.9570    1.7160 cd        1 GOI     -0.117500
     23 CAO         3.1840   -0.1950   -0.0770 c3        1 GOI     -0.084400
     24 CAQ        -4.4190   -1.5880    0.3850 c3        1 GOI      0.138400
     25 CAS        -3.1320   -2.1690   -0.2160 c3        1 GOI      0.166800
     26 CAT        -0.1490   -0.7180    1.6430 c3        1 GOI      0.167300
     27 CAU         0.3080   -0.6300   -0.7270 c3        1 GOI      0.167300
     28 CAV        -1.3970   -1.5770    1.3690 c3        1 GOI      0.170800
     29 CAW        -0.9500   -1.4770   -1.0010 c3        1 GOI      0.170800
     30 CAX         4.3960    0.5620    0.4650 c3        1 GOI      0.004300
     31 CBA         7.3800    1.4220    1.0310 ca        1 GOI     -0.063500
     32 CBB         6.7830   -1.5300    0.4100 ca        1 GOI     -0.063500
     33 CBC         6.5550    1.4790   -0.1160 ca        1 GOI     -0.014700
     34 CBD         6.0890   -0.8260   -0.6020 ca        1 GOI     -0.014700
     35 NBJ         0.8630   -0.8390    0.6020 n3        1 GOI     -0.727600
     36 NBK        -1.9560   -1.3540    0.0430 n3        1 GOI     -0.735600
     37 NBL         5.5550    0.4950   -0.4240 na        1 GOI     -0.093300
     38 H1         -5.6330    0.6620    0.9790 h2        1 GOI      0.055700
     39 H2         -6.2260    0.8700   -2.0990 h1        1 GOI      0.076700
     40 HO2        -4.2740    1.7900   -1.2220 ho        1 GOI      0.430000
     41 H3         -7.2840    2.6680    0.2310 h1        1 GOI      0.063700
     42 HO3        -7.0350    3.5500   -1.9220 ho        1 GOI      0.428000
     43 H4         -8.8060    0.6170   -1.5700 h1        1 GOI      0.063700
     44 HO4        -9.9140    2.4830   -0.6910 ho        1 GOI      0.426000
     45 H5         -8.0850    0.4810    1.4730 h1        1 GOI      0.067700
     46 H6        -10.2700   -0.6140    0.8070 h1        1 GOI      0.064200
     47 H6A        -9.3770   -1.5820   -0.4830 h1        1 GOI      0.064200
     48 HO6        -8.1460   -2.4160    1.3040 ho        1 GOI      0.408000
     49 HAF         7.4040   -4.4480   -1.2750 ha        1 GOI      0.133000
     50 HAG         7.7290    4.3990   -1.4720 ha        1 GOI      0.133500
     51 HAH         6.2130   -3.1960   -3.0760 ha        1 GOI      0.133500
     52 HAI         8.9390    2.4130    2.1630 ha        1 GOI      0.132500
     53 HAJ         7.7670   -3.3840    0.9460 ha        1 GOI      0.132500
     54 HAK         6.0660    2.6110   -1.9130 ha        1 GOI      0.145000
     55 HAL         5.3680   -0.9010   -2.6570 ha        1 GOI      0.145000
     56 HAM         7.5440    0.6210    3.0290 ha        1 GOI      0.128500
     57 HAN         7.0740   -1.6900    2.5430 ha        1 GOI      0.128500
     58 HAO         3.4240   -1.2860   -0.1750 hc        1 GOI      0.058200
     59 HAOA        2.9210    0.1890   -1.0970 hc        1 GOI      0.058200
     60 HAQ        -4.2560   -1.1260    1.3930 h1        1 GOI      0.042200
     61 HAQA       -5.1960   -2.3930    0.4630 h1        1 GOI      0.042200
     62 HAS        -3.0180   -3.2150    0.1930 h1        1 GOI      0.048700
     63 HASA       -3.2850   -2.2480   -1.3310 h1        1 GOI      0.048700
     64 HAT        -0.4730    0.3540    1.7900 h1        1 GOI      0.037950
     65 HATA        0.3060   -1.0760    2.6090 h1        1 GOI      0.037950
     66 HAU         1.0900   -0.9380   -1.4770 h1        1 GOI      0.037950
     67 HAUA        0.0590    0.4560   -0.9100 h1        1 GOI      0.037950
     68 HAV        -1.1310   -2.6630    1.5320 h1        1 GOI      0.036450
     69 HAVA       -2.1810   -1.2960    2.1270 h1        1 GOI      0.036450
     70 HAW        -1.4040   -1.1110   -1.9640 h1        1 GOI      0.036450
     71 HAWA       -0.6350   -2.5510   -1.1510 h1        1 GOI      0.036450
     72 HAX         4.1260    1.6520    0.5710 h1        1 GOI      0.041200
     73 HAXA        4.6430    0.1670    1.4940 h1        1 GOI      0.041200
     74 CAR         2.0130    0.0120    0.8810 c3        1 GOI      0.170800
     75 HAE         9.1630    4.3110    0.5690 ha        1 GOI      0.133000
     76 HAR         2.3570   -0.2360    1.9270 h1        1 GOI      0.031200
     77 HARA        1.7320    1.1070    0.8690 h1        1 GOI      0.031200
@<TRIPOS>BOND
     1    1    2 1   
     2    1    3 1   
     3    1   10 1   
     4    1   38 1   
     5    2   24 1   
     6    3    4 1   
     7    3    5 1   
     8    3   39 1   
     9    4   40 1   
    10    5    6 1   
    11    5    7 1   
    12    5   41 1   
    13    6   42 1   
    14    7    8 1   
    15    7    9 1   
    16    7   43 1   
    17    8   44 1   
    18    9   10 1   
    19    9   11 1   
    20    9   45 1   
    21   11   12 1   
    22   11   46 1   
    23   11   47 1   
    24   12   48 1   
    25   13   15 ar  
    26   13   17 ar  
    27   13   75 1   
    28   14   16 ar  
    29   14   18 ar  
    30   14   49 1   
    31   15   19 ar  
    32   15   50 1   
    33   16   20 ar  
    34   16   51 1   
    35   17   31 ar  
    36   17   52 1   
    37   18   32 ar  
    38   18   53 1   
    39   19   33 ar  
    40   19   54 1   
    41   20   34 ar  
    42   20   55 1   
    43   21   22 2   
    44   21   31 1   
    45   21   56 1   
    46   22   32 1   
    47   22   57 1   
    48   23   30 1   
    49   23   58 1   
    50   23   59 1   
    51   23   74 1   
    52   24   25 1   
    53   24   60 1   
    54   24   61 1   
    55   25   36 1   
    56   25   62 1   
    57   25   63 1   
    58   26   28 1   
    59   26   35 1   
    60   26   64 1   
    61   26   65 1   
    62   27   29 1   
    63   27   35 1   
    64   27   66 1   
    65   27   67 1   
    66   28   36 1   
    67   28   68 1   
    68   28   69 1   
    69   29   36 1   
    70   29   70 1   
    71   29   71 1   
    72   30   37 1   
    73   30   72 1   
    74   30   73 1   
    75   31   33 ar  
    76   32   34 ar  
    77   33   37 1   
    78   34   37 1   
    79   35   74 1   
    80   74   76 1   
    81   74   77 1   
@<TRIPOS>SUBSTRUCTURE
     1 GOI         1 TEMP              0 ****  ****    0 ROOT
