@<TRIPOS>MOLECULE
GOI
   77    74     1     0     0
SMALL
bcc


@<TRIPOS>ATOM
      1 C1         -0.6380   -1.2230   -1.0180 c3        1 GOI      0.152000
      2 O1         -1.4270   -0.9280   -2.1390 oh        1 GOI     -0.339000
      3 C2          0.7210   -0.5450   -1.1000 c2        1 GOI     -0.108000
      4 O2          3.8260   -1.4640   -6.1460 oh        1 GOI     -0.408500
      5 C3          1.1470   -0.0970    0.0640 c1        1 GOI     -0.352000
      6 O3          3.5170   -0.1770    1.5070 oh        1 GOI     -0.408500
      7 C4          0.4510    0.1230    1.1940 c2        1 GOI      0.110000
      8 O4          0.8490    0.1510    2.4780 oh        1 GOI     -0.226000
      9 C5         -1.0270    0.3080    0.9180 c3        1 GOI      0.020000
     10 O5         -1.4540   -0.7770    0.0760 os        1 GOI     -0.317000
     11 C6         -1.3790    1.6510    0.2710 c3        1 GOI     -0.040000
     12 O6         -2.2630    1.4880   -0.8190 oh        1 GOI     -0.329000
     13 CAE         1.0530   -6.9340   -9.9280 c2        1 GOI     -0.081000
     14 CAF        -5.7730   -5.3440   -9.9710 c2        1 GOI     -0.240000
     15 CAG         1.1990   -5.4810   -9.9450 c2        1 GOI     -0.039000
     16 CAH        -5.4750   -4.0290  -10.4020 c1        1 GOI     -0.083000
     17 CAI        -0.1160   -7.5080  -10.0600 c1        1 GOI     -0.124000
     18 CAJ        -4.8180   -6.1520   -9.4330 c2        1 GOI     -0.007000
     19 CAK         0.1680   -4.6940  -10.1090 c1        1 GOI     -0.208000
     20 CAL        -4.1500   -3.4910  -10.1520 c3        1 GOI     -0.205000
     21 CAM        -2.3100   -7.9470   -9.0250 c3        1 GOI     -0.148000
     22 CAN        -2.4860   -6.5490   -8.6250 c1        1 GOI     -0.045000
     23 CAO        -0.3610   -2.9260   -7.4090 c3        1 GOI     -0.172000
     24 CAQ        -3.1030   -3.0450   -3.9740 c2        1 GOI     -0.341000
     25 CAS        -3.6410   -3.6460   -2.8980 c2        1 GOI     -0.036000
     26 CAT         0.9700   -1.5240   -4.4100 c1        1 GOI     -0.260000
     27 CAU         3.4570    0.2720   -3.6750 c1        1 GOI     -0.252500
     28 CAV        -4.3980   -3.5630   -0.6030 c3        1 GOI     -0.098000
     29 CAW         4.4030    0.9460   -3.3850 c1        1 GOI     -0.252500
     30 CAX        -1.3920   -3.9730   -7.8310 c3        1 GOI     -0.074000
     31 CBA        -1.3340   -7.9590  -10.1640 c2        1 GOI     -0.107000
     32 CBB        -3.4710   -5.6900   -9.1790 c2        1 GOI     -0.221000
     33 CBC        -0.9470   -4.0190  -10.2410 c2        1 GOI     -0.012000
     34 CBD        -3.1450   -4.3670   -9.4640 c2        1 GOI      0.132000
     35 NBJ         1.0480   -2.2880   -5.4500 n3        1 GOI     -0.160000
     36 NBK        -3.3680   -3.3170   -1.5690 n3        1 GOI     -0.304000
     37 NBL        -1.8810   -3.7520   -9.1930 n3        1 GOI     -0.198000
     38 H1         -1.5060    0.0350   -2.2180 ho        1 GOI      0.234000
     39 H2         -0.6020   -2.3460   -0.9350 h2        1 GOI      0.159000
     40 HO2         3.5910   -0.5300   -6.1210 ho        1 GOI      0.208000
     41 H3          4.1230   -1.6390   -5.2460 ho        1 GOI      0.208000
     42 HO3         3.3790   -0.8690    0.8520 ho        1 GOI      0.208000
     43 H4          3.3130    0.6290    1.0190 ho        1 GOI      0.208000
     44 HO4         1.7520   -0.2240    2.5400 ho        1 GOI      0.267000
     45 H5         -1.8410    2.3260    1.0400 h1        1 GOI      0.102500
     46 H6         -1.6180    0.1430    1.8640 h1        1 GOI      0.148000
     47 H6A        -0.4720    2.1460   -0.1700 h1        1 GOI      0.102500
     48 HO6        -2.9570    0.8710   -0.5470 ho        1 GOI      0.216000
     49 HAF        -6.8030   -5.7080  -10.1180 ha        1 GOI      0.151000
     50 HAG         2.2120   -5.0880   -9.7480 ha        1 GOI      0.148000
     51 HAH        -3.7350   -3.1400  -11.1450 hc        1 GOI      0.177000
     52 HAI        -1.7260   -8.3420  -11.1210 ha        1 GOI      0.149000
     53 HAJ        -5.0400   -7.1990   -9.1630 ha        1 GOI      0.131000
     54 HAK        -1.2580   -3.5860  -11.2130 h4        1 GOI      0.158000
     55 HAL        -4.2920   -2.5460   -9.5400 hc        1 GOI      0.177000
     56 HAM        -1.8940   -8.5240   -8.1520 hc        1 GOI      0.097500
     57 HAN        -3.2580   -8.4610   -9.3480 hc        1 GOI      0.097500
     58 HAO        -0.7860   -1.8940   -7.5140 hc        1 GOI      0.096500
     59 HAOA        0.5420   -2.9910   -8.0710 hc        1 GOI      0.096500
     60 HAQ        -2.9110   -2.4320   -1.4500 hn        1 GOI      0.206000
     61 HAQA       -3.2900   -3.4260   -4.9840 ha        1 GOI      0.118500
     62 HAS        -2.4550   -2.1620   -3.9030 ha        1 GOI      0.118500
     63 HASA       -4.3050   -4.5260   -3.0140 h4        1 GOI      0.125000
     64 HAT        -3.9670   -3.4040    0.4210 h1        1 GOI      0.069667
     65 HATA        1.1740   -0.4180   -2.0930 ha        1 GOI      0.193000
     66 HAU         1.8940   -2.2800   -5.9940 hn        1 GOI      0.251000
     67 HAUA        2.5920   -0.3290   -3.9220 ha        1 GOI      0.242500
     68 HAV        -4.7520   -4.6240   -0.6850 h1        1 GOI      0.069667
     69 HAVA       -5.2890   -2.8860   -0.7210 h1        1 GOI      0.069667
     70 HAW         0.0280   -1.5230   -3.8230 ha        1 GOI      0.080000
     71 HAWA        5.2420    1.5420   -3.1310 ha        1 GOI      0.242500
     72 HAX        -0.9470   -5.0070   -7.7180 h1        1 GOI      0.109500
     73 HAXA       -2.2790   -3.9090   -7.1390 h1        1 GOI      0.109500
     74 CAR         0.0250   -3.1900   -5.9550 c3        1 GOI     -0.126000
     75 HAE         1.9670   -7.5190   -9.7280 ha        1 GOI      0.151000
     76 HAR        -0.8950   -3.1040   -5.3050 h1        1 GOI      0.106000
     77 HARA        0.4100   -4.2470   -5.8660 h1        1 GOI      0.106000
@<TRIPOS>BOND
     1    1    2 1   
     2    1    3 1   
     3    1   10 1   
     4    1   39 1   
     5    2   38 1   
     6    3    5 1   
     7    3   65 1   
     8    4   40 1   
     9    4   41 1   
    10    5    7 1   
    11    6   42 1   
    12    6   43 1   
    13    7    8 1   
    14    7    9 1   
    15    8   44 1   
    16    9   10 1   
    17    9   11 1   
    18    9   46 1   
    19   11   12 1   
    20   11   45 1   
    21   11   47 1   
    22   12   48 1   
    23   13   15 1   
    24   13   17 1   
    25   13   75 1   
    26   14   16 1   
    27   14   18 1   
    28   14   49 1   
    29   15   19 1   
    30   15   50 1   
    31   16   20 1   
    32   17   31 1   
    33   18   32 1   
    34   18   53 1   
    35   19   33 1   
    36   20   34 1   
    37   20   51 1   
    38   20   55 1   
    39   21   22 1   
    40   21   31 1   
    41   21   56 1   
    42   21   57 1   
    43   22   32 1   
    44   23   30 1   
    45   23   58 1   
    46   23   59 1   
    47   23   74 1   
    48   24   25 1   
    49   24   61 1   
    50   24   62 1   
    51   25   36 1   
    52   25   63 1   
    53   26   35 1   
    54   26   70 1   
    55   27   29 1   
    56   27   67 1   
    57   28   36 1   
    58   28   64 1   
    59   28   68 1   
    60   28   69 1   
    61   29   71 1   
    62   30   37 1   
    63   30   72 1   
    64   30   73 1   
    65   31   52 1   
    66   32   34 1   
    67   33   37 1   
    68   33   54 1   
    69   34   37 1   
    70   35   66 1   
    71   35   74 1   
    72   36   60 1   
    73   74   76 1   
    74   74   77 1   
@<TRIPOS>SUBSTRUCTURE
     1 GOI         1 TEMP              0 ****  ****    0 ROOT
