@<TRIPOS>MOLECULE
GOI
   77    73     1     0     0
SMALL
bcc


@<TRIPOS>ATOM
      1 C1         -0.4940    3.6460    5.3110 c3        1 GOI      0.344900
      2 O1         -0.2660    3.6050    3.9230 os        1 GOI     -0.403600
      3 C2         -0.5620    5.0700    5.7540 c3        1 GOI      0.128100
      4 O2          0.7440    5.6810    5.5830 oh        1 GOI     -0.589800
      5 C3         -0.9720    5.1990    7.1860 c3        1 GOI      0.108100
      6 O3         -1.1850    6.6020    7.4860 oh        1 GOI     -0.605800
      7 C4         -2.2230    4.4410    7.4870 c3        1 GOI      0.086100
      8 O4         -2.4500    4.4610    8.9390 oh        1 GOI     -0.613800
      9 C5         -2.1480    3.0130    7.0280 c3        1 GOI      0.083100
     10 O5         -1.7390    2.8930    5.6180 os        1 GOI     -0.439600
     11 C6         -3.5010    2.3700    7.1970 c3        1 GOI      0.124400
     12 O6         -3.4280    1.3550    8.2230 oh        1 GOI     -0.603800
     13 CAE         5.2920   -2.9950   -5.5240 c1        1 GOI     -0.063000
     14 CAF        -2.2340   -4.7170   -6.8520 c1        1 GOI     -0.063000
     15 CAG         4.6990   -2.1740   -6.4680 c1        1 GOI     -0.063000
     16 CAH        -1.8420   -3.5880   -7.5510 c1        1 GOI     -0.063000
     17 CAI         4.4950   -3.7800   -4.6760 c1        1 GOI     -0.063000
     18 CAJ        -1.4530   -5.2000   -5.8180 c1        1 GOI     -0.063000
     19 CAK         3.3040   -2.1250   -6.5790 c1        1 GOI     -0.063000
     20 CAL        -0.6430   -2.9250   -7.2100 c1        1 GOI     -0.063000
     21 CAM         2.0300   -4.6690   -4.1310 c1        1 GOI     -0.063000
     22 CAN         0.9660   -5.3380   -4.9930 c1        1 GOI     -0.063000
     23 CAO         0.4520   -1.5490   -3.2930 c3        1 GOI     -0.084400
     24 CAQ        -0.3090    2.2890    3.3710 c3        1 GOI      0.133400
     25 CAR         0.7250   -1.6600   -1.7390 c3        1 GOI      0.170800
     26 CAS        -0.6400    2.3720    1.8540 c3        1 GOI      0.163800
     27 CAT        -0.3870   -0.9890    0.2000 c3        1 GOI      0.166800
     28 CAU         1.0260    0.5440   -0.9460 c3        1 GOI      0.166800
     29 CAV        -0.9340    0.1540    1.0410 c3        1 GOI      0.167800
     30 CAW         0.4760    1.6920   -0.1020 c3        1 GOI      0.167800
     31 CAX         0.9110   -2.8520   -3.9920 c3        1 GOI      0.182800
     32 CBA         3.0830   -3.7330   -4.7870 c1        1 GOI     -0.064500
     33 CBB        -0.2410   -4.5370   -5.4680 c1        1 GOI     -0.064500
     34 CBC         2.4970   -2.9160   -5.7260 c1        1 GOI      0.087800
     35 CBD         0.1530   -3.4110   -6.1630 c1        1 GOI      0.087800
     36 NBJ         0.0930   -0.5530   -1.0560 n3        1 GOI     -0.727600
     37 NBK        -0.0010    1.2540    1.1520 n3        1 GOI     -0.732600
     38 NBL         1.1140   -2.6010   -5.3640 n3        1 GOI     -0.472800
     39 H1          0.2630    3.2080    5.7710 h2        1 GOI      0.059700
     40 H2         -1.2030    5.5410    5.2010 h1        1 GOI      0.079700
     41 HO2         0.6450    6.5120    5.2760 ho        1 GOI      0.423000
     42 H3         -0.2810    4.8720    7.7330 h1        1 GOI      0.062700
     43 HO3        -1.2960    6.7080    8.3760 ho        1 GOI      0.426000
     44 H4         -2.9530    4.8660    7.0540 h1        1 GOI      0.065700
     45 HO4        -3.2670    4.8380    9.1170 ho        1 GOI      0.432000
     46 H5         -1.4580    2.5050    7.6240 h1        1 GOI      0.048700
     47 H6         -4.1730    3.0690    7.4620 h1        1 GOI      0.066700
     48 H6A        -3.7760    1.9560    6.3480 h1        1 GOI      0.066700
     49 HO6        -4.2460    0.9440    8.3070 ho        1 GOI      0.408000
     50 HAE         6.2970   -3.0280   -5.4450 ha        1 GOI      0.077200
     51 HAF        -3.0680   -5.1750   -7.0920 ha        1 GOI      0.077200
     52 HAG         5.2590   -1.6240   -7.0610 ha        1 GOI      0.077200
     53 HAH        -2.3850   -3.2570   -8.2650 ha        1 GOI      0.077200
     54 HAI         4.8920   -4.3300   -4.0440 ha        1 GOI      0.077200
     55 HAJ        -1.7260   -5.9790   -5.3380 ha        1 GOI      0.077200
     56 HAK         2.8980   -1.5580   -7.2300 ha        1 GOI      0.077200
     57 HAL        -0.3650   -2.1210   -7.7090 ha        1 GOI      0.077200
     58 HAM         2.1110   -4.9110   -3.1680 ha        1 GOI      0.077200
     59 HAN         1.0090   -6.3330   -5.1630 ha        1 GOI      0.077200
     60 HAO        -0.5560   -1.4080   -3.4550 hc        1 GOI      0.058200
     61 HAOA        0.9370   -0.8100   -3.6500 hc        1 GOI      0.058200
     62 HAQ        -0.9550    1.8020    3.7980 h1        1 GOI      0.043200
     63 HAQA        0.5750    1.8460    3.4960 h1        1 GOI      0.043200
     64 HAR         0.3520   -2.5140   -1.3980 h1        1 GOI      0.030700
     65 HARA        1.6890   -1.6370   -1.5740 h1        1 GOI      0.030700
     66 HAS        -0.2980    3.2320    1.4880 h1        1 GOI      0.048700
     67 HASA       -1.6680    2.3240    1.7190 h1        1 GOI      0.048700
     68 HAT         0.3700   -1.4300    0.7030 h1        1 GOI      0.037450
     69 HATA       -1.1070   -1.6530    0.0550 h1        1 GOI      0.037450
     70 HAU         1.2350    0.8870   -1.8650 h1        1 GOI      0.037450
     71 HAUA        1.8380    0.2220   -0.5400 h1        1 GOI      0.037450
     72 HAV        -1.1410   -0.1880    1.9560 h1        1 GOI      0.038200
     73 HAVA       -1.7390    0.4700    0.6410 h1        1 GOI      0.038200
     74 HAW        -0.3100    2.1490   -0.6230 h1        1 GOI      0.038200
     75 HAWA        1.2160    2.3760    0.0460 h1        1 GOI      0.038200
     76 HAX         0.2260   -3.5380   -3.8860 h1        1 GOI      0.041200
     77 HAXA        1.7570   -3.1640   -3.5840 h1        1 GOI      0.041200
@<TRIPOS>BOND
     1    1    2 1   
     2    1    3 1   
     3    1   10 1   
     4    1   39 1   
     5    2   24 1   
     6    3    4 1   
     7    3    5 1   
     8    3   40 1   
     9    4   41 1   
    10    5    6 1   
    11    5    7 1   
    12    5   42 1   
    13    6   43 1   
    14    7    8 1   
    15    7    9 1   
    16    7   44 1   
    17    8   45 1   
    18    9   10 1   
    19    9   11 1   
    20    9   46 1   
    21   11   12 1   
    22   11   47 1   
    23   11   48 1   
    24   12   49 1   
    25   13   17 3   
    26   13   50 1   
    27   14   18 3   
    28   14   51 1   
    29   15   19 3   
    30   15   52 1   
    31   16   20 3   
    32   16   53 1   
    33   17   54 1   
    34   18   55 1   
    35   19   56 1   
    36   20   57 1   
    37   21   22 3   
    38   21   58 1   
    39   22   59 1   
    40   23   25 1   
    41   23   31 1   
    42   23   60 1   
    43   23   61 1   
    44   24   26 1   
    45   24   62 1   
    46   24   63 1   
    47   25   36 1   
    48   25   64 1   
    49   25   65 1   
    50   26   37 1   
    51   26   66 1   
    52   26   67 1   
    53   27   29 1   
    54   27   36 1   
    55   27   68 1   
    56   27   69 1   
    57   28   30 1   
    58   28   36 1   
    59   28   70 1   
    60   28   71 1   
    61   29   37 1   
    62   29   72 1   
    63   29   73 1   
    64   30   37 1   
    65   30   74 1   
    66   30   75 1   
    67   31   38 1   
    68   31   76 1   
    69   31   77 1   
    70   32   34 3   
    71   33   35 3   
    72   34   38 1   
    73   35   38 1   
@<TRIPOS>SUBSTRUCTURE
     1 GOI         1 TEMP              0 ****  ****    0 ROOT
