@<TRIPOS>MOLECULE
GOL
   14    13     1     0     0
SMALL
bcc


@<TRIPOS>ATOM
      1 C1         -0.1170    0.0470   -0.1460 c3        1 GOL      0.118400
      2 O1          1.2850    0.0670   -0.3010 oh        1 GOL     -0.598800
      3 C2         -0.5080   -0.2990    1.2930 c3        1 GOL      0.059100
      4 O2         -0.0230    0.7690    2.0980 oh        1 GOL     -0.615800
      5 C3         -2.0280   -0.4280    1.4500 c3        1 GOL      0.118400
      6 O3         -2.4680    0.2540    2.6080 oh        1 GOL     -0.598800
      7 H11        -0.4800   -0.7530   -0.8440 h1        1 GOL      0.053200
      8 H12        -0.5540    1.0390   -0.4330 h1        1 GOL      0.053200
      9 HO1         1.6310    0.7010    0.3420 ho        1 GOL      0.413500
     10 H2         -0.0020   -1.2560    1.6000 h1        1 GOL      0.056700
     11 HO2        -0.1760    0.5170    3.0180 ho        1 GOL      0.420000
     12 H31        -2.5580   -0.0360    0.5420 h1        1 GOL      0.053200
     13 H32        -2.3220   -1.4980    1.6190 h1        1 GOL      0.053200
     14 HO3        -2.2980    1.1950    2.4670 ho        1 GOL      0.413500
@<TRIPOS>BOND
     1    1    2 1   
     2    1    3 1   
     3    1    7 1   
     4    1    8 1   
     5    2    9 1   
     6    3    4 1   
     7    3    5 1   
     8    3   10 1   
     9    4   11 1   
    10    5    6 1   
    11    5   12 1   
    12    5   13 1   
    13    6   14 1   
@<TRIPOS>SUBSTRUCTURE
     1 GOL         1 TEMP              0 ****  ****    0 ROOT
