@<TRIPOS>MOLECULE
GOL
   14    13     1     0     0
SMALL
bcc


@<TRIPOS>ATOM
      1 C1          0.0010   -0.0110    0.0720 c3        1 GOL      0.115900
      2 O1          1.3960    0.0870    0.3120 oh        1 GOL     -0.603800
      3 C2         -0.6570   -0.1550    1.4460 c3        1 GOL      0.100100
      4 O2         -0.3900    0.9800    2.2560 oh        1 GOL     -0.612800
      5 C3         -2.1800   -0.2330    1.3040 c3        1 GOL      0.115900
      6 O3         -2.7950   -0.4510    2.5550 oh        1 GOL     -0.603800
      7 H11        -0.2210   -0.9100   -0.5610 h1        1 GOL      0.043450
      8 H12        -0.3690    0.9150   -0.4430 h1        1 GOL      0.043450
      9 HO1         1.8150    0.2500   -0.5410 ho        1 GOL      0.414000
     10 H2         -0.2650   -1.0770    1.9600 h1        1 GOL      0.061700
     11 HO2         0.5710    1.0770    2.2890 ho        1 GOL      0.425000
     12 H31        -2.5690    0.7120    0.8400 h1        1 GOL      0.043450
     13 H32        -2.4640   -1.1180    0.6770 h1        1 GOL      0.043450
     14 HO3        -2.4940    0.2540    3.1450 ho        1 GOL      0.414000
@<TRIPOS>BOND
     1    1    2 1   
     2    1    3 1   
     3    1    7 1   
     4    1    8 1   
     5    2    9 1   
     6    3    4 1   
     7    3    5 1   
     8    3   10 1   
     9    4   11 1   
    10    5    6 1   
    11    5   12 1   
    12    5   13 1   
    13    6   14 1   
@<TRIPOS>SUBSTRUCTURE
     1 GOL         1 TEMP              0 ****  ****    0 ROOT
