@<TRIPOS>MOLECULE
GOL
   14    13     1     0     0
SMALL
bcc


@<TRIPOS>ATOM
      1 C1         -1.4040   -0.5020    0.6140 c3        1 GOL      0.109400
      2 O1         -1.9270   -1.3380   -0.3970 oh        1 GOL     -0.605800
      3 C2         -0.1280    0.2020    0.1390 c3        1 GOL      0.108100
      4 O2          0.1040    1.2720    1.0390 oh        1 GOL     -0.600800
      5 C3          1.0520   -0.7730    0.1260 c3        1 GOL      0.109400
      6 O3          2.1600   -0.0510   -0.3880 oh        1 GOL     -0.605800
      7 H11        -2.1570    0.2670    0.9320 h1        1 GOL      0.052200
      8 H12        -1.1850   -1.1890    1.4740 h1        1 GOL      0.052200
      9 HO1        -2.2100   -0.7700   -1.1240 ho        1 GOL      0.404500
     10 H2         -0.2750    0.6140   -0.8990 h1        1 GOL      0.045700
     11 HO2         0.9730    1.6330    0.8180 ho        1 GOL      0.422000
     12 H31         1.2760   -1.1290    1.1660 h1        1 GOL      0.052200
     13 H32         0.8110   -1.6490   -0.5320 h1        1 GOL      0.052200
     14 HO3         2.9080   -0.6580   -0.4000 ho        1 GOL      0.404500
@<TRIPOS>BOND
     1    1    2 1   
     2    1    3 1   
     3    1    7 1   
     4    1    8 1   
     5    2    9 1   
     6    3    4 1   
     7    3    5 1   
     8    3   10 1   
     9    4   11 1   
    10    5    6 1   
    11    5   12 1   
    12    5   13 1   
    13    6   14 1   
@<TRIPOS>SUBSTRUCTURE
     1 GOL         1 TEMP              0 ****  ****    0 ROOT
