@<TRIPOS>MOLECULE
GOM
   53    55     1     0     0
SMALL
bcc


@<TRIPOS>ATOM
      1 N          -5.2350   -0.3530   -1.0950 n4        1 GOM     -0.864600
      2 C          -3.5710   -0.1220    0.7730 c3        1 GOM      0.188400
      3 CA         -4.6370    0.5830   -0.1040 c3        1 GOM      0.094500
      4 CB         -5.6990    1.2380    0.7820 c3        1 GOM     -0.078400
      5 CG         -6.6790    2.0810   -0.0010 c3        1 GOM     -0.219400
      6 CD         -7.8010    1.2430   -0.6320 c         1 GOM      0.898600
      7 OE1        -7.5930    0.7430   -1.7900 o         1 GOM     -0.828800
      8 OE2        -8.8700    1.0810    0.0040 o         1 GOM     -0.828800
      9 P          -2.0800   -1.9190   -0.3770 p5        1 GOM      1.465800
     10 OP1        -1.3710   -2.5630    0.7440 o         1 GOM     -0.838500
     11 OP2        -3.3460   -2.3380   -1.0140 o         1 GOM     -0.838500
     12 OP3        -2.4120   -0.3470    0.0410 os        1 GOM     -0.592200
     13 O5'        -0.9370   -1.6120   -1.5070 os        1 GOM     -0.562200
     14 C5'         0.2480   -1.0160   -1.0680 c3        1 GOM      0.187400
     15 C4'         1.3540   -2.0610   -0.8410 c3        1 GOM      0.064100
     16 O4'         2.6020   -1.5340   -1.3210 os        1 GOM     -0.413600
     17 C1'         3.5580   -1.4070   -0.2650 c3        1 GOM      0.209800
     18 N9          3.7760   -0.0150    0.0630 na        1 GOM     -0.270000
     19 C4          4.9180    0.7430   -0.2400 ca        1 GOM      0.463800
     20 N3          6.1180    0.3860   -0.7920 nb        1 GOM     -0.722000
     21 C2          6.9700    1.4280   -0.9070 ca        1 GOM      0.673900
     22 N1          6.8140    2.7360   -0.5620 nb        1 GOM     -0.798000
     23 C6          5.6200    3.0990    0.0130 ca        1 GOM      0.739200
     24 N6          5.4130    4.3860    0.4680 nh        1 GOM     -0.946500
     25 C5          4.6040    2.1040    0.1860 ca        1 GOM     -0.225200
     26 N7          3.3000    2.1560    0.7020 nc        1 GOM     -0.555100
     27 C8          2.8390    0.9010    0.6030 cd        1 GOM      0.418700
     28 C2'         3.0320   -2.2510    0.9460 c3        1 GOM      0.112100
     29 O2'         3.7860   -3.4340    1.0400 oh        1 GOM     -0.583800
     30 C3'         1.5340   -2.4620    0.6390 c3        1 GOM      0.106100
     31 O3'         1.2240   -3.8240    0.8290 oh        1 GOM     -0.626800
     32 HN2        -4.4800   -0.8900   -1.5620 hn        1 GOM      0.473800
     33 HN3        -5.8400   -1.0220   -0.6170 hn        1 GOM      0.473800
     34 H          -5.8350    0.1790   -1.7700 hn        1 GOM      0.473800
     35 HC1        -3.9730   -1.0870    1.1880 h1        1 GOM      0.043700
     36 HC2        -3.3180    0.5750    1.6200 h1        1 GOM      0.043700
     37 HA         -4.1080    1.3840   -0.7030 hx        1 GOM      0.092700
     38 HB1        -6.2550    0.4560    1.3640 hc        1 GOM      0.054200
     39 HB2        -5.1550    1.8850    1.5200 hc        1 GOM      0.054200
     40 HG1        -7.1530    2.8220    0.6930 hc        1 GOM      0.044700
     41 HG2        -6.1480    2.6480   -0.8060 hc        1 GOM      0.044700
     42 H5'         0.0520   -0.4330   -0.1270 h1        1 GOM      0.041200
     43 H5''        0.5840   -0.3140   -1.8830 h1        1 GOM      0.041200
     44 H4'         1.1500   -2.9690   -1.4740 h1        1 GOM      0.095700
     45 H1'         4.5240   -1.8320   -0.6690 h2        1 GOM      0.123700
     46 H2          7.9560    1.1860   -1.3600 h5        1 GOM      0.045100
     47 HN61        6.0370    5.1000    0.1790 hn        1 GOM      0.432800
     48 HN62        4.4780    4.6430    0.6730 hn        1 GOM      0.432800
     49 H8          1.8350    0.5640    0.8990 h5        1 GOM      0.080800
     50 H2'         3.1830   -1.7280    1.9280 h1        1 GOM      0.088700
     51 HO2'        3.3530   -4.1130    0.5040 ho        1 GOM      0.429000
     52 H3'         0.9060   -1.8200    1.3150 h1        1 GOM      0.085700
     53 HO3'        0.2690   -3.8670    1.0100 ho        1 GOM      0.474000
@<TRIPOS>BOND
     1    1    3 1   
     2    1   32 1   
     3    1   33 1   
     4    1   34 1   
     5    2    3 1   
     6    2   12 1   
     7    2   35 1   
     8    2   36 1   
     9    3    4 1   
    10    3   37 1   
    11    4    5 1   
    12    4   38 1   
    13    4   39 1   
    14    5    6 1   
    15    5   40 1   
    16    5   41 1   
    17    6    7 1   
    18    6    8 1   
    19    9   10 1   
    20    9   11 1   
    21    9   12 1   
    22    9   13 1   
    23   13   14 1   
    24   14   15 1   
    25   14   42 1   
    26   14   43 1   
    27   15   16 1   
    28   15   30 1   
    29   15   44 1   
    30   16   17 1   
    31   17   18 1   
    32   17   28 1   
    33   17   45 1   
    34   18   19 1   
    35   18   27 1   
    36   19   20 ar  
    37   19   25 ar  
    38   20   21 ar  
    39   21   22 ar  
    40   21   46 1   
    41   22   23 ar  
    42   23   24 1   
    43   23   25 ar  
    44   24   47 1   
    45   24   48 1   
    46   25   26 1   
    47   26   27 2   
    48   27   49 1   
    49   28   29 1   
    50   28   30 1   
    51   28   50 1   
    52   29   51 1   
    53   30   31 1   
    54   30   52 1   
    55   31   53 1   
@<TRIPOS>SUBSTRUCTURE
     1 GOM         1 TEMP              0 ****  ****    0 ROOT
