@<TRIPOS>MOLECULE
GOM
   53    49     1     0     0
SMALL
bcc


@<TRIPOS>ATOM
      1 N          -3.5790   -1.3800    5.0190 n4        1 GOM     -0.348000
      2 C          -1.2230   -1.3080    4.5790 c3        1 GOM      0.000000
      3 CA         -2.3800   -0.6970    5.3470 c3        1 GOM     -0.080000
      4 CB         -2.1190   -0.8200    6.8390 c3        1 GOM     -0.153000
      5 CG         -2.5810    0.4540    7.5450 c3        1 GOM     -0.197000
      6 CD         -2.0350    0.4720    8.9730 c2        1 GOM      0.305000
      7 OE1        -0.9360    1.0390    9.2210 o         1 GOM     -0.331000
      8 OE2        -2.6750   -0.0960    9.8990 o         1 GOM     -0.331000
      9 P          -0.0250   -1.2510    2.2580 p3        1 GOM      2.546000
     10 OP1         1.3450   -0.9190    2.8010 o         1 GOM     -1.139000
     11 OP2        -0.1560   -2.7470    2.1050 os        1 GOM     -1.161000
     12 OP3        -1.1480   -0.7170    3.2760 os        1 GOM     -0.730000
     13 O5'        -0.2190   -0.5440    0.8190 os        1 GOM     -0.740000
     14 C5'         0.7460   -0.8250   -0.2240 c3        1 GOM      0.047000
     15 C4'         0.1340   -0.4940   -1.5900 c3        1 GOM     -0.048000
     16 O4'         0.7430    0.5210   -2.1240 os        1 GOM     -0.275000
     17 C1'         0.7430    0.2610   -3.6970 c3        1 GOM      0.120000
     18 N9          1.7950    0.9720   -4.3060 n3        1 GOM     -0.185000
     19 C4          1.6360    1.7560   -5.4110 c1        1 GOM      0.065000
     20 N3          0.5380    2.0660   -6.1660 n1        1 GOM     -0.193000
     21 C2          0.6540    2.9190   -7.2250 c1        1 GOM      0.007000
     22 N1          1.8710    3.4680   -7.5330 n1        1 GOM     -0.273000
     23 C6          2.9520    3.1660   -6.7940 c1        1 GOM      0.214000
     24 N6          4.1460    3.7740   -7.2870 n2        1 GOM     -0.344000
     25 C5          2.8340    2.2960   -5.7140 c1        1 GOM     -0.231000
     26 N7          3.7400    1.8480   -4.7990 n1        1 GOM     -0.135000
     27 C8          3.0920    1.0320   -3.9340 c1        1 GOM     -0.029000
     28 C2'         0.9220   -1.0560   -3.8610 c3        1 GOM      0.000000
     29 O2'         0.1750   -1.5300   -5.0440 oh        1 GOM     -0.314000
     30 C3'         0.3630   -1.6890   -2.5970 c3        1 GOM      0.001000
     31 O3'        -0.8010   -2.3070   -2.8600 oh        1 GOM     -0.361000
     32 HN2        -4.1030   -1.4580    5.7700 hn        1 GOM      0.190333
     33 HN3        -4.0340   -0.9090    4.3750 hn        1 GOM      0.190333
     34 H          -3.3760   -2.2190    4.6990 hn        1 GOM      0.190333
     35 HC1        -0.3890   -1.1420    5.0600 h1        1 GOM      0.083000
     36 HC2        -1.3630   -2.2730    4.4920 h1        1 GOM      0.083000
     37 HA         -2.4670    0.2470    5.1080 hx        1 GOM      0.117000
     38 HB1        -2.6120   -1.5870    7.1930 hc        1 GOM      0.092500
     39 HB2        -1.1610   -0.9490    6.9920 hc        1 GOM      0.092500
     40 HG1        -2.2480    1.2350    7.0580 hc        1 GOM      0.112000
     41 HG2        -3.5600    0.4770    7.5690 hc        1 GOM      0.112000
     42 H5'         0.9900   -1.7730   -0.1960 h1        1 GOM      0.066000
     43 H5''        1.5460   -0.2790   -0.0840 h1        1 GOM      0.066000
     44 H4'        -0.8190   -0.3070   -1.4980 h1        1 GOM      0.134000
     45 H1'        -0.1140    0.5340   -4.0830 h2        1 GOM      0.157000
     46 H2         -0.1320    3.1390   -7.7640 ha        1 GOM      0.180000
     47 HN61        4.1120    4.3300   -8.0150 hn        1 GOM      0.225500
     48 HN62        4.9460    3.6230   -6.8620 hn        1 GOM      0.225500
     49 H8          3.4970    0.5570   -3.1800 DU        1 GOM      0.216000
     50 H2'         1.8740   -1.2630   -3.9530 h1        1 GOM      0.127000
     51 HO2'        0.6300   -2.1870   -5.4400 ho        1 GOM      0.227000
     52 H3'         1.0080   -2.3260   -2.2240 h1        1 GOM      0.128000
     53 HO3'       -0.7810   -3.1320   -2.5290 ho        1 GOM      0.280000
@<TRIPOS>BOND
     1    1    3 1   
     2    1   32 1   
     3    1   33 1   
     4    1   34 1   
     5    2    3 1   
     6    2   12 1   
     7    2   35 1   
     8    2   36 1   
     9    3    4 1   
    10    3   37 1   
    11    4    5 1   
    12    4   38 1   
    13    4   39 1   
    14    5    6 1   
    15    5   40 1   
    16    5   41 1   
    17    6    7 1   
    18    6    8 1   
    19    9   10 1   
    20    9   12 1   
    21    9   13 1   
    22   13   14 1   
    23   14   15 1   
    24   14   42 1   
    25   14   43 1   
    26   15   16 1   
    27   15   30 1   
    28   15   44 1   
    29   16   17 1   
    30   17   18 1   
    31   17   28 1   
    32   17   45 1   
    33   18   19 1   
    34   18   27 1   
    35   19   25 1   
    36   20   21 1   
    37   21   46 1   
    38   22   23 1   
    39   23   25 1   
    40   24   47 1   
    41   24   48 1   
    42   26   27 1   
    43   28   29 1   
    44   28   30 1   
    45   28   50 1   
    46   29   51 1   
    47   30   31 1   
    48   30   52 1   
    49   31   53 1   
@<TRIPOS>SUBSTRUCTURE
     1 GOM         1 TEMP              0 ****  ****    0 ROOT
