@<TRIPOS>MOLECULE
GOO
   25    25     1     0     0
SMALL
bcc


@<TRIPOS>ATOM
      1 C7         -0.1270    0.0960    0.4580 c3        1 GOO      0.111700
      2 O6          1.2380    0.5010    0.3520 os        1 GOO     -0.438600
      3 C1          2.0560    0.0170    1.4000 c3        1 GOO      0.119100
      4 C2          2.3300   -1.5030    1.3180 c3        1 GOO      0.126100
      5 O2          1.5450   -2.0890    2.3320 oh        1 GOO     -0.582800
      6 C3          3.8510   -1.7040    1.5290 c3        1 GOO      0.077100
      7 O3          4.0190   -2.5050    2.6780 oh        1 GOO     -0.586800
      8 C4          4.4820   -0.3100    1.7660 c3        1 GOO      0.107100
      9 O4          4.7400   -0.0150    3.1180 oh        1 GOO     -0.615800
     10 C5          3.4360    0.6890    1.1940 c3        1 GOO      0.071500
     11 N5          3.5000    2.0410    1.8160 n4        1 GOO     -0.820600
     12 H7         -0.6080    0.6180    1.3210 h1        1 GOO      0.061700
     13 H7A        -0.5770    0.4230   -0.5130 h1        1 GOO      0.061700
     14 H7B        -0.1990   -1.0120    0.5860 h1        1 GOO      0.061700
     15 H1          1.5970    0.2550    2.4010 h1        1 GOO      0.087700
     16 H2          2.0240   -1.9070    0.3140 h1        1 GOO      0.086700
     17 HO2         1.8850   -2.9810    2.5000 ho        1 GOO      0.445000
     18 H3          4.3120   -2.1800    0.6240 h1        1 GOO      0.085700
     19 HO3         4.8730   -2.9530    2.6060 ho        1 GOO      0.441000
     20 H4          5.4620   -0.1970    1.2270 h1        1 GOO      0.099700
     21 HO4         4.3400   -0.6990    3.6830 ho        1 GOO      0.461000
     22 H5          3.6100    0.8190    0.0830 hx        1 GOO      0.134700
     23 HN5         4.3210    2.5450    1.4700 hn        1 GOO      0.468133
     24 HN5A        2.6470    2.5620    1.5870 hn        1 GOO      0.468133
     25 H53         3.5860    1.9350    2.8370 hn        1 GOO      0.468133
@<TRIPOS>BOND
     1    1    2 1   
     2    1   12 1   
     3    1   13 1   
     4    1   14 1   
     5    2    3 1   
     6    3    4 1   
     7    3   10 1   
     8    3   15 1   
     9    4    5 1   
    10    4    6 1   
    11    4   16 1   
    12    5   17 1   
    13    6    7 1   
    14    6    8 1   
    15    6   18 1   
    16    7   19 1   
    17    8    9 1   
    18    8   10 1   
    19    8   20 1   
    20    9   21 1   
    21   10   11 1   
    22   10   22 1   
    23   11   23 1   
    24   11   24 1   
    25   11   25 1   
@<TRIPOS>SUBSTRUCTURE
     1 GOO         1 TEMP              0 ****  ****    0 ROOT
