@<TRIPOS>MOLECULE
GOO
   24    24     1     0     0
SMALL
bcc


@<TRIPOS>ATOM
      1 C7          3.1950   -0.7270   -0.4430 c3        1 GOO      0.114700
      2 O6          2.2540   -0.0990    0.4140 os        1 GOO     -0.410600
      3 C1          0.9830    0.0990   -0.1910 c3        1 GOO      0.139100
      4 C2          0.0900   -1.1420    0.0420 c3        1 GOO      0.073100
      5 O2         -0.4710   -1.4910   -1.2140 oh        1 GOO     -0.613800
      6 C3         -1.0240   -0.7140    1.0240 c3        1 GOO      0.081100
      7 O3         -2.2190   -1.4150    0.7640 oh        1 GOO     -0.593800
      8 C4         -1.1390    0.8110    0.8410 c3        1 GOO      0.066100
      9 O4         -2.0120    1.1150   -0.2320 oh        1 GOO     -0.599800
     10 C5          0.3170    1.2870    0.5650 c3        1 GOO      0.133500
     11 N5          0.4560    2.5410   -0.1300 n3        1 GOO     -0.885800
     12 H7          4.1130   -0.8330    0.1880 h1        1 GOO      0.037700
     13 H7A         2.8220   -1.7280   -0.7700 h1        1 GOO      0.037700
     14 H7B         3.4040   -0.0860   -1.3350 h1        1 GOO      0.037700
     15 H1          1.0840    0.2960   -1.2920 h1        1 GOO      0.077700
     16 H2          0.6880   -1.9990    0.4510 h1        1 GOO      0.066700
     17 HO2        -1.0580   -2.2430   -1.0530 ho        1 GOO      0.420000
     18 H3         -0.7450   -0.9740    2.0790 h1        1 GOO      0.092700
     19 HO3        -2.7110   -0.9300    0.0860 ho        1 GOO      0.418000
     20 H4         -1.5930    1.3180    1.7310 h1        1 GOO      0.093700
     21 HO4        -1.6400    0.7030   -1.0270 ho        1 GOO      0.414000
     22 H5          0.8400    1.3890    1.5620 h1        1 GOO      0.091700
     23 HN5        -0.0640    2.5320   -0.9870 hn        1 GOO      0.354800
     24 HN5A        0.1210    3.2900    0.4440 hn        1 GOO      0.354800
@<TRIPOS>BOND
     1    1    2 1   
     2    1   12 1   
     3    1   13 1   
     4    1   14 1   
     5    2    3 1   
     6    3    4 1   
     7    3   10 1   
     8    3   15 1   
     9    4    5 1   
    10    4    6 1   
    11    4   16 1   
    12    5   17 1   
    13    6    7 1   
    14    6    8 1   
    15    6   18 1   
    16    7   19 1   
    17    8    9 1   
    18    8   10 1   
    19    8   20 1   
    20    9   21 1   
    21   10   11 1   
    22   10   22 1   
    23   11   23 1   
    24   11   24 1   
@<TRIPOS>SUBSTRUCTURE
     1 GOO         1 TEMP              0 ****  ****    0 ROOT
