@<TRIPOS>MOLECULE
GOO
   25    25     1     0     0
SMALL
bcc


@<TRIPOS>ATOM
      1 C7         -0.1560    0.1040    0.5400 c3        1 GOO      0.111700
      2 O6          1.2060    0.5110    0.4000 os        1 GOO     -0.438600
      3 C1          2.0520    0.0170    1.4210 c3        1 GOO      0.119100
      4 C2          2.3230   -1.5020    1.3190 c3        1 GOO      0.126100
      5 O2          1.5670   -2.0970    2.3490 oh        1 GOO     -0.582800
      6 C3          3.8500   -1.7040    1.4860 c3        1 GOO      0.077100
      7 O3          4.0500   -2.5160    2.6220 oh        1 GOO     -0.586800
      8 C4          4.4870   -0.3120    1.7180 c3        1 GOO      0.107100
      9 O4          4.7820   -0.0290    3.0640 oh        1 GOO     -0.615800
     10 C5          3.4250    0.6920    1.1830 c3        1 GOO      0.071500
     11 N5          3.5070    2.0380    1.8150 n4        1 GOO     -0.820600
     12 H7         -0.6140    0.6180    1.4210 h1        1 GOO      0.061700
     13 H7A        -0.6330    0.4390   -0.4150 h1        1 GOO      0.061700
     14 H7B        -0.2250   -1.0050    0.6600 h1        1 GOO      0.061700
     15 H1          1.6200    0.2470    2.4360 h1        1 GOO      0.087700
     16 H2          1.9900   -1.8980    0.3210 h1        1 GOO      0.086700
     17 HO2         1.9110   -2.9900    2.5000 ho        1 GOO      0.445000
     18 H3          4.2860   -2.1710    0.5630 h1        1 GOO      0.085700
     19 HO3         4.9020   -2.9620    2.5220 ho        1 GOO      0.441000
     20 H4          5.4520   -0.1940    1.1530 h1        1 GOO      0.099700
     21 HO4         4.3980   -0.7180    3.6340 ho        1 GOO      0.461000
     22 H5          3.5690    0.8320    0.0690 hx        1 GOO      0.134700
     23 HN5         2.6480    2.5610    1.6150 hn        1 GOO      0.468133
     24 HN5A        4.3170    2.5460    1.4510 hn        1 GOO      0.468133
     25 H53         3.6210    1.9240    2.8330 hn        1 GOO      0.468133
@<TRIPOS>BOND
     1    1    2 1   
     2    1   12 1   
     3    1   13 1   
     4    1   14 1   
     5    2    3 1   
     6    3    4 1   
     7    3   10 1   
     8    3   15 1   
     9    4    5 1   
    10    4    6 1   
    11    4   16 1   
    12    5   17 1   
    13    6    7 1   
    14    6    8 1   
    15    6   18 1   
    16    7   19 1   
    17    8    9 1   
    18    8   10 1   
    19    8   20 1   
    20    9   21 1   
    21   10   11 1   
    22   10   22 1   
    23   11   23 1   
    24   11   24 1   
    25   11   25 1   
@<TRIPOS>SUBSTRUCTURE
     1 GOO         1 TEMP              0 ****  ****    0 ROOT
