@<TRIPOS>MOLECULE
GOO
   25    25     1     0     0
SMALL
bcc


@<TRIPOS>ATOM
      1 C7         -0.1340    0.1170    0.4850 c3        1 GOO      0.111700
      2 O6          1.2340    0.5020    0.3550 os        1 GOO     -0.438600
      3 C1          2.0580    0.0250    1.4020 c3        1 GOO      0.119100
      4 C2          2.3100   -1.5000    1.3440 c3        1 GOO      0.126100
      5 O2          1.5300   -2.0570    2.3770 oh        1 GOO     -0.582800
      6 C3          3.8310   -1.7170    1.5410 c3        1 GOO      0.077100
      7 O3          4.0020   -2.5010    2.7010 oh        1 GOO     -0.586800
      8 C4          4.4830   -0.3290    1.7450 c3        1 GOO      0.107100
      9 O4          4.7620   -0.0130    3.0880 oh        1 GOO     -0.615800
     10 C5          3.4440    0.6740    1.1670 c3        1 GOO      0.071500
     11 N5          3.5340    2.0360    1.7650 nz        1 GOO     -0.820600
     12 H7         -0.2200   -0.9870    0.6330 h1        1 GOO      0.061700
     13 H7A        -0.5920    0.4330   -0.4870 h1        1 GOO      0.061700
     14 H7B        -0.5990    0.6610    1.3440 h1        1 GOO      0.061700
     15 H1          1.6140    0.2870    2.4040 h1        1 GOO      0.087700
     16 H2          1.9870   -1.9180    0.3510 h1        1 GOO      0.086700
     17 HO2         1.8600   -2.9500    2.5570 ho        1 GOO      0.445000
     18 H3          4.2750   -2.2160    0.6380 h1        1 GOO      0.085700
     19 HO3         4.8500   -2.9620    2.6270 ho        1 GOO      0.441000
     20 H4          5.4590   -0.2380    1.1920 h1        1 GOO      0.099700
     21 HO4         4.3600   -0.6820    3.6700 ho        1 GOO      0.461000
     22 H5          3.6070    0.7820    0.0520 hx        1 GOO      0.134700
     23 HN5         2.6850    2.5640    1.5370 hn        1 GOO      0.468133
     24 HN5A        3.6310    1.9470    2.7870 hn        1 GOO      0.468133
     25 H53         4.3570    2.5230    1.4010 hn        1 GOO      0.468133
@<TRIPOS>BOND
     1    1    2 1   
     2    1   12 1   
     3    1   13 1   
     4    1   14 1   
     5    2    3 1   
     6    3    4 1   
     7    3   10 1   
     8    3   15 1   
     9    4    5 1   
    10    4    6 1   
    11    4   16 1   
    12    5   17 1   
    13    6    7 1   
    14    6    8 1   
    15    6   18 1   
    16    7   19 1   
    17    8    9 1   
    18    8   10 1   
    19    8   20 1   
    20    9   21 1   
    21   10   11 1   
    22   10   22 1   
    23   11   23 1   
    24   11   24 1   
    25   11   25 1   
@<TRIPOS>SUBSTRUCTURE
     1 GOO         1 TEMP              0 ****  ****    0 ROOT
