@<TRIPOS>MOLECULE
GOX
   25    25     1     0     0
SMALL
bcc


@<TRIPOS>ATOM
      1 C1         -0.0350   -0.0450    0.0400 c2        1 GOX      0.499200
      2 N1         -0.6330    0.6530   -0.9120 n2        1 GOX     -0.516200
      3 C2          1.5000    0.0040    0.0170 c3        1 GOX      0.088800
      4 N5         -0.6200   -0.9360    0.9640 nu        1 GOX     -0.784200
      5 O7         -1.9490    0.6370   -0.9390 oh        1 GOX     -0.358500
      6 O2          2.0110   -1.1410   -0.6470 oh        1 GOX     -0.597800
      7 C3          2.1190   -0.0110    1.4250 c3        1 GOX      0.105100
      8 O3          1.9730    1.2530    2.0500 oh        1 GOX     -0.593800
      9 C4          1.4680   -1.0540    2.3460 c3        1 GOX      0.157100
     10 O4          1.9400   -2.3450    2.0260 oh        1 GOX     -0.589800
     11 C5         -0.0730   -1.0080    2.3050 c3        1 GOX      0.163500
     12 C6         -0.5520    0.1100    3.2570 c3        1 GOX      0.095400
     13 O6         -1.9690    0.0420    3.2950 oh        1 GOX     -0.609800
     14 HC2         1.8460    0.9320   -0.5240 h1        1 GOX      0.061700
     15 HN5        -1.6240   -0.8720    0.9970 hn        1 GOX      0.421800
     16 HO7        -2.1790    1.1960   -1.7090 ho        1 GOX      0.438000
     17 HO2         1.5440   -1.2180   -1.4890 ho        1 GOX      0.425000
     18 HC3         3.2130   -0.2680    1.3180 h1        1 GOX      0.073700
     19 HO3         2.4810    1.8860    1.5270 ho        1 GOX      0.410000
     20 HC4         1.8140   -0.8810    3.4060 h1        1 GOX      0.093700
     21 HO4         1.7360   -2.5120    1.0940 ho        1 GOX      0.428000
     22 HC5        -0.4520   -1.9940    2.7220 h1        1 GOX      0.092700
     23 HC61       -0.2080    1.1140    2.8940 h1        1 GOX      0.044700
     24 HC62       -0.1400   -0.0760    4.2850 h1        1 GOX      0.044700
     25 HO6        -2.2710    0.8270    3.7670 ho        1 GOX      0.408000
@<TRIPOS>BOND
     1    1    2 2   
     2    1    3 1   
     3    1    4 1   
     4    2    5 1   
     5    3    6 1   
     6    3    7 1   
     7    3   14 1   
     8    4   11 1   
     9    4   15 1   
    10    5   16 1   
    11    6   17 1   
    12    7    8 1   
    13    7    9 1   
    14    7   18 1   
    15    8   19 1   
    16    9   10 1   
    17    9   11 1   
    18    9   20 1   
    19   10   21 1   
    20   11   12 1   
    21   11   22 1   
    22   12   13 1   
    23   12   23 1   
    24   12   24 1   
    25   13   25 1   
@<TRIPOS>SUBSTRUCTURE
     1 GOX         1 TEMP              0 ****  ****    0 ROOT
