@<TRIPOS>MOLECULE
GOX
   25    23     1     0     0
SMALL
bcc


@<TRIPOS>ATOM
      1 C1         -0.6380    0.1220   -1.3210 c1        1 GOX     -0.019000
      2 N1         -1.3670    0.9660   -2.0480 n1        1 GOX     -0.118000
      3 C2          0.9530    0.1660   -1.2900 c2        1 GOX      0.021000
      4 N5         -1.2250   -0.9080   -0.4900 n3        1 GOX     -0.240000
      5 O7         -0.7470    1.9200   -2.8120 o         1 GOX     -0.268000
      6 O2          1.5140   -0.9260   -2.0310 oh        1 GOX     -0.321000
      7 C3          1.4130    0.1940    0.1050 c3        1 GOX     -0.003000
      8 O3          1.0690    1.4870    0.6850 oh        1 GOX     -0.322000
      9 C4          0.7810   -0.9190    0.9620 c3        1 GOX      0.046000
     10 O4          1.2580   -2.1840    0.5030 oh        1 GOX     -0.317000
     11 C5         -0.6890   -0.9150    0.8960 c3        1 GOX     -0.040000
     12 C6         -1.2070    0.3110    1.6200 c3        1 GOX     -0.055000
     13 O6         -2.4870    0.0210    2.1910 oh        1 GOX     -0.338000
     14 HC2         1.3010    0.9330   -1.7880 h4        1 GOX      0.104000
     15 HN5        -2.0970   -1.2030   -0.6560 hn        1 GOX      0.214000
     16 HO7        -1.3630    2.3740   -3.2820 ho        1 GOX      0.242000
     17 HO2         1.9870   -0.6050   -2.7240 ho        1 GOX      0.222000
     18 HC3         2.4040    0.0880    0.1190 h1        1 GOX      0.113000
     19 HO3         1.7990    1.9650    0.7910 ho        1 GOX      0.209000
     20 HC4         1.0530   -0.7970    1.8840 h1        1 GOX      0.133000
     21 HO4         1.7870   -2.5250    1.0970 ho        1 GOX      0.227000
     22 HC5        -1.0180   -1.7010    1.3460 h1        1 GOX      0.134000
     23 HC61       -0.5690    0.5640    2.3450 h1        1 GOX      0.085000
     24 HC62       -1.2900    1.0300    1.0050 h1        1 GOX      0.085000
     25 HO6        -2.6220    0.5400    2.8910 ho        1 GOX      0.207000
@<TRIPOS>BOND
     1    1    2 1   
     2    1    4 1   
     3    3    6 1   
     4    3    7 1   
     5    3   14 1   
     6    4   11 1   
     7    4   15 1   
     8    5   16 1   
     9    6   17 1   
    10    7    8 1   
    11    7    9 1   
    12    7   18 1   
    13    8   19 1   
    14    9   10 1   
    15    9   11 1   
    16    9   20 1   
    17   10   21 1   
    18   11   12 1   
    19   11   22 1   
    20   12   13 1   
    21   12   23 1   
    22   12   24 1   
    23   13   25 1   
@<TRIPOS>SUBSTRUCTURE
     1 GOX         1 TEMP              0 ****  ****    0 ROOT
