@<TRIPOS>MOLECULE
GOX
   25    25     1     0     0
SMALL
bcc


@<TRIPOS>ATOM
      1 C1         -0.0090   -0.0390    0.0290 c2        1 GOX      0.499200
      2 N1         -0.5890    0.6660   -0.9280 n2        1 GOX     -0.516200
      3 C2          1.5260    0.0100    0.0350 c3        1 GOX      0.088800
      4 N5         -0.6110   -0.9370    0.9360 nh        1 GOX     -0.784200
      5 O7         -1.9050    0.6500   -0.9800 oh        1 GOX     -0.358500
      6 O2          2.0500   -1.1310   -0.6290 oh        1 GOX     -0.597800
      7 C3          2.1190   -0.0150    1.4540 c3        1 GOX      0.105100
      8 O3          1.9620    1.2440    2.0850 oh        1 GOX     -0.593800
      9 C4          1.4520   -1.0650    2.3550 c3        1 GOX      0.157100
     10 O4          1.9290   -2.3530    2.0340 oh        1 GOX     -0.589800
     11 C5         -0.0880   -1.0190    2.2870 c3        1 GOX      0.163500
     12 C6         -0.5850    0.0920    3.2370 c3        1 GOX      0.095400
     13 O6         -2.0020    0.0250    3.2490 oh        1 GOX     -0.609800
     14 HC2         1.8820    0.9420   -0.4940 h1        1 GOX      0.061700
     15 HN5        -1.6150   -0.8730    0.9510 hn        1 GOX      0.421800
     16 HO7        -2.1200    1.2150   -1.7490 ho        1 GOX      0.438000
     17 HO2         1.5970   -1.2010   -1.4790 ho        1 GOX      0.425000
     18 HC3         3.2150   -0.2710    1.3650 h1        1 GOX      0.073700
     19 HO3         2.4800    1.8800    1.5750 ho        1 GOX      0.410000
     20 HC4         1.7790   -0.8990    3.4220 h1        1 GOX      0.093700
     21 HO4         1.7430   -2.5140    1.0970 ho        1 GOX      0.428000
     22 HC5        -0.4740   -2.0070    2.6880 h1        1 GOX      0.092700
     23 HC61       -0.1920   -0.1010    4.2710 h1        1 GOX      0.044700
     24 HC62       -0.2340    1.0990    2.8880 h1        1 GOX      0.044700
     25 HO6        -2.3120    0.8060    3.7200 ho        1 GOX      0.408000
@<TRIPOS>BOND
     1    1    2 2   
     2    1    3 1   
     3    1    4 1   
     4    2    5 1   
     5    3    6 1   
     6    3    7 1   
     7    3   14 1   
     8    4   11 1   
     9    4   15 1   
    10    5   16 1   
    11    6   17 1   
    12    7    8 1   
    13    7    9 1   
    14    7   18 1   
    15    8   19 1   
    16    9   10 1   
    17    9   11 1   
    18    9   20 1   
    19   10   21 1   
    20   11   12 1   
    21   11   22 1   
    22   12   13 1   
    23   12   23 1   
    24   12   24 1   
    25   13   25 1   
@<TRIPOS>SUBSTRUCTURE
     1 GOX         1 TEMP              0 ****  ****    0 ROOT
