@<TRIPOS>MOLECULE
GOX
   25    25     1     0     0
SMALL
bcc


@<TRIPOS>ATOM
      1 C1         -0.4000    1.1330   -0.0330 c2        1 GOX      0.499200
      2 N1         -1.2160    2.1290    0.2690 n2        1 GOX     -0.516200
      3 C2          0.9670    1.1750    0.6680 c3        1 GOX      0.088800
      4 N5         -0.5680    0.1380   -1.0190 nh        1 GOX     -0.784200
      5 O7         -2.3970    2.1420   -0.3120 oh        1 GOX     -0.358500
      6 O2          1.9350    1.7550   -0.1930 oh        1 GOX     -0.597800
      7 C3          1.4980   -0.2240    1.0230 c3        1 GOX      0.105100
      8 O3          0.8100   -0.7520    2.1440 oh        1 GOX     -0.593800
      9 C4          1.3360   -1.2290   -0.1280 c3        1 GOX      0.157100
     10 O4          2.3220   -1.0030   -1.1110 oh        1 GOX     -0.589800
     11 C5         -0.0750   -1.2000   -0.7510 c3        1 GOX      0.163500
     12 C6         -1.0100   -2.0680    0.1190 c3        1 GOX      0.095400
     13 O6         -2.2610   -2.1250   -0.5460 oh        1 GOX     -0.609800
     14 HC2         0.8940    1.7890    1.6120 h1        1 GOX      0.061700
     15 HN5        -1.5030    0.0990   -1.3900 hn        1 GOX      0.421800
     16 HO7        -2.8260    2.9500    0.0360 ho        1 GOX      0.438000
     17 HO2         1.5650    2.5830   -0.5240 ho        1 GOX      0.425000
     18 HC3         2.5990   -0.1260    1.2540 h1        1 GOX      0.073700
     19 HO3         1.0100   -0.1770    2.8930 ho        1 GOX      0.410000
     20 HC4         1.5490   -2.2680    0.2540 h1        1 GOX      0.093700
     21 HO4         2.2320   -0.0880   -1.4170 ho        1 GOX      0.428000
     22 HC5        -0.0050   -1.6940   -1.7700 h1        1 GOX      0.092700
     23 HC61       -0.5820   -3.1030    0.2040 h1        1 GOX      0.044700
     24 HC62       -1.1200   -1.6260    1.1450 h1        1 GOX      0.044700
     25 HO6        -2.8810   -2.5380    0.0660 ho        1 GOX      0.408000
@<TRIPOS>BOND
     1    1    2 2   
     2    1    3 1   
     3    1    4 1   
     4    2    5 1   
     5    3    6 1   
     6    3    7 1   
     7    3   14 1   
     8    4   11 1   
     9    4   15 1   
    10    5   16 1   
    11    6   17 1   
    12    7    8 1   
    13    7    9 1   
    14    7   18 1   
    15    8   19 1   
    16    9   10 1   
    17    9   11 1   
    18    9   20 1   
    19   10   21 1   
    20   11   12 1   
    21   11   22 1   
    22   12   13 1   
    23   12   23 1   
    24   12   24 1   
    25   13   25 1   
@<TRIPOS>SUBSTRUCTURE
     1 GOX         1 TEMP              0 ****  ****    0 ROOT
