@<TRIPOS>MOLECULE
GP0
   37    37     1     0     0
SMALL
bcc


@<TRIPOS>ATOM
      1 C1          0.1570   -1.3000    0.4680 cc        1 GP0     -0.001400
      2 F1         -1.0870   -2.5780    2.0360 f         1 GP0     -0.128500
      3 N1          0.8410   -0.1410    0.1040 n         1 GP0     -0.343000
      4 C2         -0.3690   -1.4810    1.7180 cd        1 GP0     -0.014700
      5 C3         -0.1650   -0.4640    2.7800 c         1 GP0      0.702700
      6 O3         -0.5780   -0.5550    3.9440 o         1 GP0     -0.569500
      7 N4          0.5630    0.6670    2.3830 ns        1 GP0     -0.580500
      8 C5          1.0780    0.8540    1.0920 c         1 GP0      0.817500
      9 O5          1.6740    1.9240    0.8320 o         1 GP0     -0.657500
     10 C1'         1.6030   -0.2130   -1.1370 c3        1 GP0      0.277500
     11 C2'         2.2910    1.0910   -1.6370 c3        1 GP0      0.193300
     12 O2'         1.3020    2.0520   -1.9460 oh        1 GP0     -0.596800
     13 C3'         3.0630    0.7670   -2.8850 c2        1 GP0     -0.237400
     14 O3'         6.8320    2.8200   -4.5380 oh        1 GP0     -0.799000
     15 C4'         3.5110   -0.4900   -3.0890 c2        1 GP0      0.081900
     16 O4'         4.2580   -0.9140   -4.1570 oh        1 GP0     -0.517100
     17 C5'         3.2080   -1.6440   -2.1670 c3        1 GP0      0.149300
     18 O5'         2.6330   -1.2060   -0.9360 os        1 GP0     -0.434600
     19 C6'         4.4740   -2.4270   -1.7780 c3        1 GP0      0.146400
     20 O6'         4.7720   -3.3960   -2.7560 oh        1 GP0     -0.592800
     21 C7'         3.2790    1.9130   -3.8120 c3        1 GP0      0.187600
     22 H1          0.0480   -2.0670   -0.3230 h4        1 GP0      0.185000
     23 HN4         0.7350    1.3950    3.0460 hn        1 GP0      0.361500
     24 H1'         3.0100    1.4740   -0.8580 h1        1 GP0      0.093700
     25 H2'         0.8820   -0.5720   -1.9350 h2        1 GP0      0.079700
     26 HO2'        1.1440    2.5640   -1.1390 ho        1 GP0      0.434000
     27 HO3'        6.5520    2.8620   -3.6190 ho        1 GP0      0.401500
     28 H4'         6.9090    1.8750   -4.7040 ho        1 GP0      0.401500
     29 HO4'        4.4360   -0.1640   -4.7470 ho        1 GP0      0.455000
     30 H5'         4.9920   -2.9270   -3.5730 ho        1 GP0      0.418000
     31 H6'         2.4800   -2.3330   -2.6870 h1        1 GP0      0.075700
     32 H6'A        5.3310   -1.7200   -1.6340 h1        1 GP0      0.065700
     33 HO6'        4.2880   -3.0050   -0.8340 h1        1 GP0      0.065700
     34 H7'         2.5260    1.8690   -4.6480 h1        1 GP0      0.048700
     35 O7'         4.5950    1.8370   -4.3520 oh        1 GP0     -0.651800
     36 H14         3.1520    2.8860   -3.2630 h1        1 GP0      0.048700
     37 H15         4.6920    2.5830   -4.9620 ho        1 GP0      0.434000
@<TRIPOS>BOND
     1    1    3 1   
     2    1    4 2   
     3    1   22 1   
     4    2    4 1   
     5    3    8 1   
     6    3   10 1   
     7    4    5 1   
     8    5    6 2   
     9    5    7 1   
    10    7    8 1   
    11    7   23 1   
    12    8    9 2   
    13   10   11 1   
    14   10   18 1   
    15   10   25 1   
    16   11   12 1   
    17   11   13 1   
    18   11   24 1   
    19   12   26 1   
    20   13   15 2   
    21   13   21 1   
    22   14   27 1   
    23   14   28 1   
    24   15   16 1   
    25   15   17 1   
    26   16   29 1   
    27   17   18 1   
    28   17   19 1   
    29   17   31 1   
    30   19   20 1   
    31   19   32 1   
    32   19   33 1   
    33   20   30 1   
    34   21   34 1   
    35   21   35 1   
    36   21   36 1   
    37   35   37 1   
@<TRIPOS>SUBSTRUCTURE
     1 GP0         1 TEMP              0 ****  ****    0 ROOT
