@<TRIPOS>MOLECULE
GP0
   37    37     1     0     0
SMALL
bcc


@<TRIPOS>ATOM
      1 C1         -1.8110    1.3990    0.2280 c1        1 GP0     -0.007000
      2 F1         -3.8690    1.5830    1.5150 f         1 GP0     -0.070000
      3 N1         -0.3910    1.3990    0.2280 n2        1 GP0     -0.284000
      4 C2         -2.5430    1.3990    1.5040 c2        1 GP0     -0.076000
      5 C3         -1.8080    1.3990    2.7600 c2        1 GP0      0.343000
      6 O3         -2.4070    1.4000    3.8140 o         1 GP0     -0.297000
      7 N4         -0.3920    1.3990    2.7610 n         1 GP0     -0.357000
      8 C5          0.3390    1.3990    1.4970 c2        1 GP0      0.402000
      9 O5          1.5440    1.5500    1.5020 o         1 GP0     -0.372000
     10 C1'         0.3010    1.3990   -0.9810 c3        1 GP0      0.148000
     11 C2'         1.6260    0.6930   -0.7880 c3        1 GP0     -0.030000
     12 O2'         2.4350    0.8920   -1.9640 oh        1 GP0     -0.338000
     13 C3'         1.4590   -0.7660   -0.5610 c3        1 GP0      0.020000
     14 O3'         2.7240   -1.3750   -0.5630 oh        1 GP0     -0.325000
     15 C4'         0.6100   -1.4080   -1.6090 c3        1 GP0     -0.010000
     16 O4'         1.3260   -1.4010   -2.8530 oh        1 GP0     -0.315000
     17 C5'        -0.7130   -0.6880   -1.8000 c3        1 GP0     -0.008000
     18 O5'        -0.5440    0.7510   -2.0200 os        1 GP0     -0.264000
     19 C6'        -1.5570   -0.8960   -0.5840 c3        1 GP0     -0.047000
     20 O6'        -1.9560   -2.2420   -0.5140 oh        1 GP0     -0.323000
     21 C7'         0.7930   -0.9870    0.8320 c3        1 GP0     -0.002000
     22 H1         -2.3010    1.4000   -0.6170 ha        1 GP0      0.190000
     23 HN4         0.0640    1.3990    3.5510 hn        1 GP0      0.276000
     24 H1'         0.4730    2.3230   -1.2460 h2        1 GP0      0.140000
     25 H2'         2.0830    1.0830   -0.0190 h1        1 GP0      0.151000
     26 HO2'        2.9520    1.6050   -1.8510 ho        1 GP0      0.231000
     27 HO3'        3.3040   -0.8530   -0.1410 ho        1 GP0      0.238000
     28 H4'         0.4330   -2.3320   -1.3500 h1        1 GP0      0.164000
     29 HO4'        1.2800   -2.2060   -3.2240 ho        1 GP0      0.218000
     30 H5'        -1.1720   -1.0720   -2.5720 h1        1 GP0      0.148000
     31 H6'        -1.0400   -0.6680    0.2130 h1        1 GP0      0.074500
     32 H6'A       -2.3460   -0.3240   -0.6340 h1        1 GP0      0.074500
     33 HO6'       -2.8410   -2.2850   -0.4570 ho        1 GP0      0.214000
     34 H7'         0.2100   -0.2320    1.0380 h1        1 GP0      0.096500
     35 O7'         1.7890   -1.0900    1.8160 oh        1 GP0     -0.324000
     36 H14         0.2670   -1.8090    0.8150 h1        1 GP0      0.096500
     37 H15         1.6770   -1.8430    2.2730 ho        1 GP0      0.224000
@<TRIPOS>BOND
     1    1    4 1   
     2    1   22 1   
     3    2    4 1   
     4    3    8 1   
     5    3   10 1   
     6    4    5 1   
     7    5    6 1   
     8    5    7 1   
     9    7    8 1   
    10    7   23 1   
    11    8    9 1   
    12   10   11 1   
    13   10   18 1   
    14   10   24 1   
    15   11   12 1   
    16   11   13 1   
    17   11   25 1   
    18   12   26 1   
    19   13   14 1   
    20   13   15 1   
    21   13   21 1   
    22   14   27 1   
    23   15   16 1   
    24   15   17 1   
    25   15   28 1   
    26   16   29 1   
    27   17   18 1   
    28   17   19 1   
    29   17   30 1   
    30   19   20 1   
    31   19   31 1   
    32   19   32 1   
    33   20   33 1   
    34   21   34 1   
    35   21   35 1   
    36   21   36 1   
    37   35   37 1   
@<TRIPOS>SUBSTRUCTURE
     1 GP0         1 TEMP              0 ****  ****    0 ROOT
