@<TRIPOS>MOLECULE
GP0
   37    38     1     0     0
SMALL
bcc


@<TRIPOS>ATOM
      1 C1          2.2540   -0.0800   -1.2060 cc        1 GP0      0.006600
      2 F1          4.4340    0.0550   -2.1350 f         1 GP0     -0.130500
      3 N1          1.3940    0.0010   -0.1200 n         1 GP0     -0.352000
      4 C2          3.5960    0.1690   -1.0840 cd        1 GP0     -0.024700
      5 C3          4.1790    0.5710    0.2210 c         1 GP0      0.704700
      6 O3          5.3770    0.8230    0.4140 o         1 GP0     -0.576500
      7 N4          3.2650    0.6630    1.2780 n         1 GP0     -0.583500
      8 C5          1.8910    0.4020    1.1520 c         1 GP0      0.820500
      9 O5          1.1470    0.5050    2.1480 o         1 GP0     -0.623500
     10 C1'        -0.0370   -0.1300   -0.3390 c3        1 GP0      0.333500
     11 C2'        -0.7310   -1.1580    0.5950 c3        1 GP0      0.116100
     12 O2'        -0.1580   -2.4220    0.3210 oh        1 GP0     -0.595800
     13 C3'        -2.2510   -1.1830    0.3080 c3        1 GP0      0.085800
     14 O3'        -2.7940   -1.9840    1.3470 oh        1 GP0     -0.596800
     15 C4'        -2.7990    0.2550    0.4440 c3        1 GP0      0.088100
     16 O4'        -4.1510    0.2160    0.0130 oh        1 GP0     -0.611800
     17 C5'        -1.9970    1.2440   -0.4140 c3        1 GP0      0.075100
     18 O5'        -0.6030    1.1740   -0.1170 os        1 GP0     -0.429600
     19 C6'        -2.3890    2.6950   -0.1000 c3        1 GP0      0.136400
     20 O6'        -1.7460    3.5920   -0.9750 oh        1 GP0     -0.588800
     21 C7'        -2.5720   -1.8100   -1.0620 c3        1 GP0      0.112400
     22 H1          1.8100   -0.3800   -2.1740 h4        1 GP0      0.180000
     23 HN4         3.5910    0.9260    2.1850 hn        1 GP0      0.359500
     24 H1'        -0.2110   -0.4360   -1.4150 h2        1 GP0      0.071700
     25 H2'        -0.5730   -0.8760    1.6760 h1        1 GP0      0.108700
     26 HO2'       -0.5780   -3.0440    0.9320 ho        1 GP0      0.434000
     27 HO3'       -3.6950   -2.2250    1.0830 ho        1 GP0      0.435000
     28 H4'        -2.7400    0.5550    1.5280 h1        1 GP0      0.077700
     29 HO4'       -4.5760    1.0210    0.3320 ho        1 GP0      0.419000
     30 H5'        -2.1580    1.0340   -1.5080 h1        1 GP0      0.066700
     31 H6'        -3.4860    2.8340   -0.2910 h1        1 GP0      0.058700
     32 H6'A       -2.1430    2.9340    0.9680 h1        1 GP0      0.058700
     33 HO6'       -0.7960    3.5110   -0.8170 ho        1 GP0      0.417000
     34 H7'        -1.9150   -2.7080   -1.2260 h1        1 GP0      0.062700
     35 O7'        -3.8870   -2.3170   -1.0860 oh        1 GP0     -0.596800
     36 H14        -2.4130   -1.0590   -1.8780 h1        1 GP0      0.062700
     37 H15        -4.4950   -1.5650   -1.1210 ho        1 GP0      0.421000
@<TRIPOS>BOND
     1    1    3 1   
     2    1    4 2   
     3    1   22 1   
     4    2    4 1   
     5    3    8 1   
     6    3   10 1   
     7    4    5 1   
     8    5    6 2   
     9    5    7 1   
    10    7    8 1   
    11    7   23 1   
    12    8    9 2   
    13   10   11 1   
    14   10   18 1   
    15   10   24 1   
    16   11   12 1   
    17   11   13 1   
    18   11   25 1   
    19   12   26 1   
    20   13   14 1   
    21   13   15 1   
    22   13   21 1   
    23   14   27 1   
    24   15   16 1   
    25   15   17 1   
    26   15   28 1   
    27   16   29 1   
    28   17   18 1   
    29   17   19 1   
    30   17   30 1   
    31   19   20 1   
    32   19   31 1   
    33   19   32 1   
    34   20   33 1   
    35   21   34 1   
    36   21   35 1   
    37   21   36 1   
    38   35   37 1   
@<TRIPOS>SUBSTRUCTURE
     1 GP0         1 TEMP              0 ****  ****    0 ROOT
