@<TRIPOS>MOLECULE
GP0
   37    35     1     0     0
SMALL
bcc


@<TRIPOS>ATOM
      1 C1         -0.1330   -0.4150    0.3370 cc        1 GP0      0.011600
      2 F1         -1.9780   -1.5690    1.2910 f         1 GP0     -0.133500
      3 N1          1.1610    0.0730    0.4230 n         1 GP0     -0.390000
      4 C2         -0.7120   -1.1100    1.3670 cd        1 GP0     -0.034700
      5 C3          0.0450   -1.3860    2.6140 c         1 GP0      0.703700
      6 O3         -0.3990   -1.9970    3.5950 o         1 GP0     -0.580500
      7 N4          1.3610   -0.8990    2.6350 n         1 GP0     -0.580500
      8 C5          1.9480   -0.2010    1.5690 c         1 GP0      0.809500
      9 O5          3.1370    0.1820    1.6460 o         1 GP0     -0.646500
     10 C1'         1.7360    0.7930   -0.7050 c3        1 GP0      0.285800
     11 C2'         2.9550    3.8330   -2.9240 c         1 GP0      0.551900
     12 O2'         2.5230    3.3010   -1.9010 o         1 GP0     -0.536100
     13 C3'         3.7240    3.0690   -3.9770 c3        1 GP0     -0.024900
     14 O3'         4.0700    3.9260   -5.0550 oh        1 GP0     -0.596800
     15 C4'         3.7670   -1.1500   -1.2770 c2        1 GP0     -0.040900
     16 O4'         4.7540   -2.0570   -1.5630 oh        1 GP0     -0.513100
     17 C5'         2.7490   -0.8810   -2.1130 c2        1 GP0     -0.116900
     18 O5'         1.7260    0.0250   -1.9020 os        1 GP0     -0.337900
     19 C6'         5.9070   -4.7660   -2.1340 c         1 GP0      0.569700
     20 O6'         5.2210   -4.3990   -3.0870 o         1 GP0     -0.542100
     21 C7'         2.8600    1.9510   -4.5820 c3        1 GP0      0.140400
     22 H1         -0.6650   -0.2100   -0.6120 h4        1 GP0      0.188000
     23 HN4         1.9300   -1.0600    3.4400 hn        1 GP0      0.358500
     24 H1'         2.7720    1.1470   -0.4390 h2        1 GP0      0.107200
     25 H2'         1.0630    1.6670   -0.9610 h2        1 GP0      0.107200
     26 HO2'        2.8040    4.9150   -3.1400 h4        1 GP0      0.011200
     27 HO3'        4.8060    4.4740   -4.7600 ho        1 GP0      0.410000
     28 H4'         4.6500    2.6190   -3.5190 h1        1 GP0      0.080700
     29 HO4'        3.9430   -0.7050   -0.2820 h4        1 GP0      0.189000
     30 H5'         4.5960   -2.4370   -2.4440 ho        1 GP0      0.432000
     31 H6'         2.5960   -1.3450   -3.1020 h4        1 GP0      0.176000
     32 H6'A        6.0580   -4.1230   -1.2400 h4        1 GP0     -0.010800
     33 HO6'        6.4070   -5.7570   -2.1190 h4        1 GP0     -0.010800
     34 H7'         2.5470    1.2350   -3.7720 h1        1 GP0      0.069700
     35 O7'         3.6090    1.1860   -5.4970 oh        1 GP0     -0.590800
     36 H14         1.9610    2.3980   -5.0830 h1        1 GP0      0.069700
     37 H15         3.8950    1.7850   -6.2000 ho        1 GP0      0.414000
@<TRIPOS>BOND
     1    1    3 1   
     2    1    4 2   
     3    1   22 1   
     4    2    4 1   
     5    3    8 1   
     6    3   10 1   
     7    4    5 1   
     8    5    6 2   
     9    5    7 1   
    10    7    8 1   
    11    7   23 1   
    12    8    9 2   
    13   10   18 1   
    14   10   24 1   
    15   10   25 1   
    16   11   12 2   
    17   11   13 1   
    18   11   26 1   
    19   13   14 1   
    20   13   21 1   
    21   13   28 1   
    22   14   27 1   
    23   15   16 1   
    24   15   17 2   
    25   15   29 1   
    26   16   30 1   
    27   17   18 1   
    28   17   31 1   
    29   19   20 2   
    30   19   32 1   
    31   19   33 1   
    32   21   34 1   
    33   21   35 1   
    34   21   36 1   
    35   35   37 1   
@<TRIPOS>SUBSTRUCTURE
     1 GP0         1 TEMP              0 ****  ****    0 ROOT
