@<TRIPOS>MOLECULE
GP0
   37    35     1     0     0
SMALL
bcc


@<TRIPOS>ATOM
      1 C1          0.8070    0.9850   -0.0770 c2        1 GP0     -0.086000
      2 F1         -1.4160    1.1670    0.6980 f         1 GP0     -0.051000
      3 N1          2.0250    0.2320   -0.3070 n4        1 GP0      0.059000
      4 C2         -0.2890    0.4530    0.5200 c2        1 GP0      0.030000
      5 C3         -0.3060   -0.9530    1.0390 c2        1 GP0      0.330000
      6 O3         -1.3180   -1.5150    1.4710 o         1 GP0     -0.264000
      7 N4          0.9280   -1.6120    1.0270 n         1 GP0     -0.362000
      8 C5          2.0980   -1.0360    0.5280 c2        1 GP0      0.249000
      9 O5          3.1910   -1.6030    0.6950 o         1 GP0     -0.319000
     10 C1'         2.1880    0.0940   -1.7860 c2        1 GP0     -0.320000
     11 C2'         3.5470    2.8110   -1.7630 c2        1 GP0      0.192000
     12 O2'         3.0110    2.9610   -0.6590 o         1 GP0     -0.355000
     13 C3'         3.0850    3.5600   -2.9890 c3        1 GP0     -0.074000
     14 O3'         2.2440    4.6520   -2.6740 oh        1 GP0     -0.305000
     15 C4'         4.0630   -1.7890   -3.7050 c2        1 GP0      0.001000
     16 O4'         4.5660   -3.0040   -4.0690 oh        1 GP0     -0.258000
     17 C5'         3.9090   -1.3900   -2.4280 c2        1 GP0     -0.247000
     18 O5'         3.4910   -0.0770   -2.1690 os        1 GP0     -0.180000
     19 C6'         5.5000   -3.8620   -0.0230 c2        1 GP0      0.148000
     20 O6'         5.3250   -4.1030   -1.2170 o         1 GP0     -0.314000
     21 C7'         2.3660    2.5880   -3.9420 c3        1 GP0     -0.040000
     22 H1          0.8500    2.0220   -0.4700 hx        1 GP0      0.219000
     23 HN4         0.9880   -2.5270    1.4270 hn        1 GP0      0.270000
     24 H1'         2.8250    0.8180    0.0020 hn        1 GP0      0.276000
     25 H2'         1.4660   -0.6350   -2.2090 hx        1 GP0      0.090000
     26 HO2'        4.3770    2.0890   -1.9250 h4        1 GP0      0.126000
     27 HO3'        1.6060    4.3450   -2.0160 ho        1 GP0      0.205000
     28 H4'         3.9720    4.0200   -3.5120 h1        1 GP0      0.148000
     29 HO4'        3.8180   -1.1880   -4.5960 h4        1 GP0      0.172000
     30 H5'         4.7980   -3.5110   -3.2710 ho        1 GP0      0.238000
     31 H6'         4.1550   -1.9810   -1.5360 h4        1 GP0      0.153000
     32 H6'A        5.0510   -2.9730    0.4710 h4        1 GP0      0.084500
     33 HO6'        6.1140   -4.5250    0.6230 h4        1 GP0      0.084500
     34 H7'         1.6190    1.9740   -3.3700 h1        1 GP0      0.105000
     35 O7'         3.2940    1.7630   -4.6080 oh        1 GP0     -0.329000
     36 H14         1.8530    3.1780   -4.7480 h1        1 GP0      0.105000
     37 H15         3.5580    1.0690   -3.9860 ho        1 GP0      0.217000
@<TRIPOS>BOND
     1    1    3 1   
     2    1    4 1   
     3    1   22 1   
     4    2    4 1   
     5    3    8 1   
     6    3   10 1   
     7    3   24 1   
     8    4    5 1   
     9    5    6 1   
    10    5    7 1   
    11    7    8 1   
    12    7   23 1   
    13    8    9 1   
    14   10   18 1   
    15   10   25 1   
    16   11   12 1   
    17   11   13 1   
    18   11   26 1   
    19   13   14 1   
    20   13   21 1   
    21   13   28 1   
    22   14   27 1   
    23   15   16 1   
    24   15   17 1   
    25   15   29 1   
    26   16   30 1   
    27   17   18 1   
    28   17   31 1   
    29   19   20 1   
    30   19   32 1   
    31   19   33 1   
    32   21   34 1   
    33   21   35 1   
    34   21   36 1   
    35   35   37 1   
@<TRIPOS>SUBSTRUCTURE
     1 GP0         1 TEMP              0 ****  ****    0 ROOT
