@<TRIPOS>MOLECULE
GP1
   28    28     1     0     0
SMALL
bcc


@<TRIPOS>ATOM
      1 C1B        -0.5110   -0.2840   -1.2060 c3        1 GP1      0.394900
      2 C2B         1.0040   -0.2840   -1.2060 c3        1 GP1      0.084500
      3 C3B         1.5680   -0.2840    0.1660 c3        1 GP1      0.113100
      4 C4B         0.9910    0.8020    1.0140 c3        1 GP1      0.118100
      5 C5B        -0.5300    0.7990    1.0030 c3        1 GP1      0.117100
      6 C6B        -1.0240    2.0200    1.7230 c3        1 GP1      0.150400
      7 N2B         1.4750   -1.4720   -1.9090 n3        1 GP1     -0.922800
      8 O1B        -0.9580   -1.5050   -0.7410 os        1 GP1     -0.552200
      9 O3B         3.0080   -0.1020    0.0830 oh        1 GP1     -0.664800
     10 O4B         1.4440    0.6280    2.3620 oh        1 GP1     -0.627800
     11 O5B        -2.4350    2.0610    1.6680 oh        1 GP1     -0.643800
     12 O6B        -1.0810    0.7950   -0.3530 os        1 GP1     -0.483600
     13 O7B        -1.9510   -2.5950   -2.8010 o         1 GP1     -0.921500
     14 P4B        -2.2650   -2.1340   -1.3960 p5        1 GP1      1.314900
     15 O8B        -2.7250   -3.3130   -0.5700 o         1 GP1     -0.921500
     16 O9B        -3.3580   -1.0920   -1.4400 o         1 GP1     -0.921500
     17 H1         -0.8260   -0.1610   -2.1220 h2        1 GP1      0.089700
     18 H2          1.3200    0.5090   -1.6780 h1        1 GP1      0.021700
     19 H3          1.3810   -1.1460    0.5850 h1        1 GP1      0.078700
     20 H4          1.3080    1.6640    0.6830 h1        1 GP1      0.026700
     21 H5         -0.8470    0.0050    1.4740 h1        1 GP1      0.093700
     22 H61        -0.7360    1.9860    2.6560 h1        1 GP1      0.019700
     23 H62        -0.6580    2.8190    1.2990 h1        1 GP1      0.019700
     24 HN21        1.3100   -1.3820   -2.8020 hn        1 GP1      0.377800
     25 HN22        2.3720   -1.5690   -1.7740 hn        1 GP1      0.377800
     26 HO3         3.4150   -0.7400    0.5480 ho        1 GP1      0.419000
     27 HO4         2.0430    1.2540    2.5560 ho        1 GP1      0.402000
     28 HO5        -2.7320    2.7220    2.1800 ho        1 GP1      0.443000
@<TRIPOS>BOND
     1    1    2 1   
     2    1    8 1   
     3    1   12 1   
     4    1   17 1   
     5    2    3 1   
     6    2    7 1   
     7    2   18 1   
     8    3    4 1   
     9    3    9 1   
    10    3   19 1   
    11    4    5 1   
    12    4   10 1   
    13    4   20 1   
    14    5    6 1   
    15    5   12 1   
    16    5   21 1   
    17    6   11 1   
    18    6   22 1   
    19    6   23 1   
    20    7   24 1   
    21    7   25 1   
    22    8   14 1   
    23    9   26 1   
    24   10   27 1   
    25   11   28 1   
    26   13   14 1   
    27   14   15 1   
    28   14   16 1   
@<TRIPOS>SUBSTRUCTURE
     1 GP1         1 TEMP              0 ****  ****    0 ROOT
