@<TRIPOS>MOLECULE
GP1
   28    28     1     0     0
SMALL
bcc


@<TRIPOS>ATOM
      1 C1B         0.3020   -0.8870    0.1400 c3        1 GP1      0.392900
      2 C2B         1.4380   -0.8230   -0.9500 c3        1 GP1      0.131500
      3 C3B         1.0960    0.3660   -1.8720 c3        1 GP1      0.114100
      4 C4B        -0.3160    0.2110   -2.4720 c3        1 GP1      0.078100
      5 C5B        -1.3500   -0.0540   -1.3690 c3        1 GP1      0.097100
      6 C6B        -2.7050   -0.4430   -1.9630 c3        1 GP1      0.145400
      7 N2B         2.7770   -0.7610   -0.3910 n3        1 GP1     -0.903800
      8 O1B         0.1480    0.2720    0.8080 os        1 GP1     -0.558200
      9 O3B         2.0400    0.4340   -2.9370 oh        1 GP1     -0.605800
     10 O4B        -0.6410    1.3850   -3.2150 oh        1 GP1     -0.640800
     11 O5B        -3.6940   -0.6110   -0.9670 oh        1 GP1     -0.641800
     12 O6B        -0.9370   -1.1450   -0.5720 os        1 GP1     -0.483600
     13 O7B         0.5940    1.6080    2.9280 o         1 GP1     -0.921500
     14 P4B         0.5800    0.1670    2.5240 p5        1 GP1      1.315900
     15 O8B         1.9100   -0.5150    2.3200 o         1 GP1     -0.921500
     16 O9B        -0.5100   -0.7070    3.0660 o         1 GP1     -0.921500
     17 H1          0.4240   -1.7870    0.8080 h2        1 GP1      0.085700
     18 H2          1.3810   -1.7680   -1.5630 h1        1 GP1      0.026700
     19 H3          1.1360    1.3180   -1.2690 h1        1 GP1      0.066700
     20 H4         -0.3210   -0.6110   -3.2380 h1        1 GP1      0.063700
     21 H5         -1.4550    0.8640   -0.7220 h1        1 GP1      0.085700
     22 H61        -3.0750    0.3730   -2.6390 h1        1 GP1      0.018700
     23 H62        -2.6140   -1.4000   -2.5430 h1        1 GP1      0.018700
     24 HN21        2.9740    0.1890   -0.1290 hn        1 GP1      0.369800
     25 HN22        2.7830   -1.2870    0.4750 hn        1 GP1      0.369800
     26 HO3         1.7290    1.1440   -3.5120 ho        1 GP1      0.374000
     27 HO4        -0.7340    2.0980   -2.5720 ho        1 GP1      0.400000
     28 HO5        -3.2390   -0.8930   -0.1580 ho        1 GP1      0.445000
@<TRIPOS>BOND
     1    1    2 1   
     2    1    8 1   
     3    1   12 1   
     4    1   17 1   
     5    2    3 1   
     6    2    7 1   
     7    2   18 1   
     8    3    4 1   
     9    3    9 1   
    10    3   19 1   
    11    4    5 1   
    12    4   10 1   
    13    4   20 1   
    14    5    6 1   
    15    5   12 1   
    16    5   21 1   
    17    6   11 1   
    18    6   22 1   
    19    6   23 1   
    20    7   24 1   
    21    7   25 1   
    22    8   14 1   
    23    9   26 1   
    24   10   27 1   
    25   11   28 1   
    26   13   14 1   
    27   14   15 1   
    28   14   16 1   
@<TRIPOS>SUBSTRUCTURE
     1 GP1         1 TEMP              0 ****  ****    0 ROOT
