@<TRIPOS>MOLECULE
GP2
   43    45     1     0     0
SMALL
bcc


@<TRIPOS>ATOM
      1 O6          0.0000    0.0000    0.0000 o         1 GP2     -0.780500
      2 C6          1.2190    0.0000    0.0000 c         1 GP2      0.594000
      3 C5          1.9440    0.0000    1.2150 cc        1 GP2     -0.001200
      4 N7          1.5930   -0.0000    2.5240 nc        1 GP2     -0.522000
      5 C4          3.3430    0.0010    1.1610 cd        1 GP2     -0.032200
      6 N3          3.9590    0.0000   -0.0260 nd        1 GP2     -0.638100
      7 C2          3.2750    0.0010   -1.1480 cc        1 GP2     -0.364200
      8 N1          1.9120    0.0060   -1.1600 ns        1 GP2     -0.016400
      9 N2          3.9510    0.0010   -2.3420 nz        1 GP2      0.351400
     10 N9          3.7730   -0.0000    2.4590 na        1 GP2      0.194100
     11 C8          2.6660   -0.0000    3.2590 cd        1 GP2      0.152400
     12 C1'         5.1660   -0.0000    2.9110 c3        1 GP2      0.158800
     13 C2'         5.6670    1.4460    3.1140 c3        1 GP2      0.114100
     14 O2'         6.4140    1.8880    1.9790 oh        1 GP2     -0.555800
     15 C3'         6.5760    1.3560    4.3610 c3        1 GP2      0.125100
     16 O3'         7.9140    1.7360    4.0340 oh        1 GP2     -0.565800
     17 O4'         5.2730   -0.6160    4.2140 os        1 GP2     -0.367600
     18 C4'         6.5200   -0.1350    4.7600 c3        1 GP2      0.148100
     19 C5'         6.5250   -0.2820    6.2830 c3        1 GP2      0.248400
     20 O5'         6.3980   -1.6630    6.6280 os        1 GP2     -0.464200
     21 PA          6.4120   -1.7430    8.2360 p5        1 GP2      0.659600
     22 O1A         5.1790   -0.8920    8.8250 o         1 GP2     -0.595000
     23 O2A         7.6840   -1.1870    8.7480 o         1 GP2     -0.595000
     24 C3A         6.2550   -3.4810    8.7600 c3        1 GP2      0.122200
     25 PB          6.2700   -3.5720   10.5800 p5        1 GP2      0.561700
     26 O1B         6.1310   -5.1080   11.0420 o         1 GP2     -0.425500
     27 O3B         7.6530   -2.9680   11.1360 o         1 GP2     -0.425500
     28 O2B         5.1360   -2.7910   11.1220 o         1 GP2     -0.425500
     29 HN1         1.4220    0.0070   -2.0330 hn        1 GP2      0.114500
     30 HN21        3.6400   -0.7680   -2.9020 hn        1 GP2      0.085467
     31 HN22        4.9330   -0.0880   -2.1690 hn        1 GP2      0.085467
     32 H8          2.6800   -0.0010    4.3420 h5        1 GP2      0.025100
     33 H1'         5.7980   -0.5180    2.2000 h2        1 GP2      0.044700
     34 H1          4.8320    2.1100    3.3060 h1        1 GP2      0.019700
     35 H2'         6.2000    2.7860    1.7920 ho        1 GP2      0.371000
     36 H3'         6.1840    1.9740    5.1590 h1        1 GP2      0.015700
     37 H2          8.1460    2.5150    4.5130 ho        1 GP2      0.372000
     38 H4'         7.3520   -0.6710    4.3220 h1        1 GP2      0.027700
     39 H5'1        5.6950    0.2730    6.7020 h1        1 GP2      0.013700
     40 H5'2        7.4560    0.1060    6.6800 h1        1 GP2      0.013700
     41 H3A1        5.3230   -3.8880    8.3850 hc        1 GP2      0.034700
     42 H3A2        7.0840   -4.0540    8.3630 hc        1 GP2      0.034700
     43 H23         3.7740    0.8590   -2.8260 hn        1 GP2      0.085467
@<TRIPOS>BOND
     1    1    2 2   
     2    2    3 1   
     3    2    8 1   
     4    3    4 1   
     5    3    5 2   
     6    4   11 2   
     7    5    6 1   
     8    5   10 1   
     9    6    7 2   
    10    7    8 1   
    11    7    9 1   
    12    8   29 1   
    13    9   30 1   
    14    9   31 1   
    15    9   43 1   
    16   10   11 1   
    17   10   12 1   
    18   11   32 1   
    19   12   13 1   
    20   12   17 1   
    21   12   33 1   
    22   13   14 1   
    23   13   15 1   
    24   13   34 1   
    25   14   35 1   
    26   15   16 1   
    27   15   18 1   
    28   15   36 1   
    29   16   37 1   
    30   17   18 1   
    31   18   19 1   
    32   18   38 1   
    33   19   20 1   
    34   19   39 1   
    35   19   40 1   
    36   20   21 1   
    37   21   22 1   
    38   21   23 1   
    39   21   24 1   
    40   24   25 1   
    41   24   41 1   
    42   24   42 1   
    43   25   26 1   
    44   25   27 1   
    45   25   28 1   
@<TRIPOS>SUBSTRUCTURE
     1 GP2         1 TEMP              0 ****  ****    0 ROOT
