@<TRIPOS>MOLECULE
GP4
   28    28     1     0     0
SMALL
bcc


@<TRIPOS>ATOM
      1 C1A        -1.0220    0.6900   -1.4910 c3        1 GP4      0.340900
      2 C2A         0.4980    0.6880   -1.5150 c3        1 GP4      0.128500
      3 C3A         1.0780    0.7030   -0.1620 c3        1 GP4      0.050100
      4 C4A         0.5070   -0.3780    0.7150 c3        1 GP4      0.196100
      5 C5A        -1.0130   -0.3700    0.7260 c3        1 GP4      0.089100
      6 C6A        -1.4970    0.8660    1.4570 c3        1 GP4      0.094400
      7 N2A         0.9650   -0.5210   -2.2230 n3        1 GP4     -0.908800
      8 O3A         0.8110    1.9900    0.4460 oh        1 GP4     -0.651800
      9 O4A         0.9610   -1.6450    0.2450 os        1 GP4     -0.553200
     10 O5A        -2.8320    0.6220    1.9950 oh        1 GP4     -0.645800
     11 O6A        -1.5820   -0.3800   -0.6160 os        1 GP4     -0.481600
     12 O7A         0.7330   -2.9850    2.3650 o         1 GP4     -0.923500
     13 P4A         1.6900   -2.5980    1.2570 p5        1 GP4      1.306900
     14 O8A         2.8850   -1.8850    1.8500 o         1 GP4     -0.923500
     15 O9A         2.1530   -3.8390    0.5360 o         1 GP4     -0.923500
     16 O1A        -1.4950    0.5050   -2.7900 oh        1 GP4     -0.627800
     17 H1         -1.3290    1.5550   -1.1650 h2        1 GP4      0.064700
     18 H2          0.8090    1.4810   -2.0030 h1        1 GP4      0.038700
     19 H3          2.0540    0.5770   -0.2320 h1        1 GP4      0.106700
     20 H4          0.8290   -0.2470    1.6230 h1        1 GP4      0.063700
     21 H5         -1.3300   -1.1680    1.2090 h1        1 GP4      0.096700
     22 H61        -0.8780    1.0740    2.1950 h1        1 GP4      0.047700
     23 H62        -1.5290    1.6140    0.8410 h1        1 GP4      0.047700
     24 HN21        0.4240   -0.6820   -2.9380 hn        1 GP4      0.369300
     25 HN22        1.8340   -0.3890   -2.5170 hn        1 GP4      0.369300
     26 HO3         1.5890    2.4330    0.5690 ho        1 GP4      0.406000
     27 HO5        -3.0700    1.3050    2.5310 ho        1 GP4      0.406000
     28 HO1        -2.2430    0.9850   -2.9070 ho        1 GP4      0.415000
@<TRIPOS>BOND
     1    1    2 1   
     2    1   11 1   
     3    1   16 1   
     4    1   17 1   
     5    2    3 1   
     6    2    7 1   
     7    2   18 1   
     8    3    4 1   
     9    3    8 1   
    10    3   19 1   
    11    4    5 1   
    12    4    9 1   
    13    4   20 1   
    14    5    6 1   
    15    5   11 1   
    16    5   21 1   
    17    6   10 1   
    18    6   22 1   
    19    6   23 1   
    20    7   24 1   
    21    7   25 1   
    22    8   26 1   
    23    9   13 1   
    24   10   27 1   
    25   12   13 1   
    26   13   14 1   
    27   13   15 1   
    28   16   28 1   
@<TRIPOS>SUBSTRUCTURE
     1 GP4         1 TEMP              0 ****  ****    0 ROOT
