@<TRIPOS>MOLECULE
GP4
   28    28     1     0     0
SMALL
bcc


@<TRIPOS>ATOM
      1 C1A         0.2100    0.4900    3.0300 c3        1 GP4      0.346900
      2 C2A        -1.1360    0.6810    2.3000 c3        1 GP4      0.078500
      3 C3A        -1.1820   -0.2840    1.0900 c3        1 GP4      0.104100
      4 C4A         0.0280   -0.0260    0.1580 c3        1 GP4      0.185100
      5 C5A         1.3460   -0.0640    0.9650 c3        1 GP4      0.070100
      6 C6A         2.4990    0.5680    0.1640 c3        1 GP4      0.176400
      7 N2A        -2.2640    0.5690    3.2120 n3        1 GP4     -0.897800
      8 O3A        -2.4160   -0.1030    0.4360 oh        1 GP4     -0.687800
      9 O4A         0.0630   -1.0040   -0.8070 os        1 GP4     -0.559200
     10 O5A         3.0290   -0.3500   -0.7550 oh        1 GP4     -0.667800
     11 O6A         1.3180    0.6850    2.1930 os        1 GP4     -0.464600
     12 O7A        -0.2960   -1.6390   -3.2610 o         1 GP4     -0.912500
     13 P4A        -0.2030   -0.4080   -2.4200 p5        1 GP4      1.322900
     14 O8A         1.0480    0.4240   -2.5440 o         1 GP4     -0.912500
     15 O9A        -1.4760    0.3650   -2.1770 o         1 GP4     -0.912500
     16 O1A         0.3510   -0.7820    3.6280 oh        1 GP4     -0.654800
     17 H1          0.3370    1.2280    3.8740 h2        1 GP4      0.069700
     18 H2         -1.1470    1.7340    1.8910 h1        1 GP4      0.075700
     19 H3         -1.1520   -1.3500    1.4570 h1        1 GP4      0.008700
     20 H4         -0.0960    0.9980   -0.3060 h1        1 GP4      0.062700
     21 H5          1.5990   -1.1320    1.2100 h1        1 GP4      0.034700
     22 H61         2.1310    1.4890   -0.3610 h1        1 GP4      0.025200
     23 H62         3.3390    0.8320    0.8620 h1        1 GP4      0.025200
     24 HN21       -3.1040    0.5960    2.6590 hn        1 GP4      0.337300
     25 HN22       -2.2260   -0.3290    3.6610 hn        1 GP4      0.337300
     26 HO3        -2.2300    0.0060   -0.5360 ho        1 GP4      0.505000
     27 HO5         2.3630   -0.4200   -1.4860 ho        1 GP4      0.491000
     28 HO1         0.3350   -1.4410    2.9220 ho        1 GP4      0.415000
@<TRIPOS>BOND
     1    1    2 1   
     2    1   11 1   
     3    1   16 1   
     4    1   17 1   
     5    2    3 1   
     6    2    7 1   
     7    2   18 1   
     8    3    4 1   
     9    3    8 1   
    10    3   19 1   
    11    4    5 1   
    12    4    9 1   
    13    4   20 1   
    14    5    6 1   
    15    5   11 1   
    16    5   21 1   
    17    6   10 1   
    18    6   22 1   
    19    6   23 1   
    20    7   24 1   
    21    7   25 1   
    22    8   26 1   
    23    9   13 1   
    24   10   27 1   
    25   12   13 1   
    26   13   14 1   
    27   13   15 1   
    28   16   28 1   
@<TRIPOS>SUBSTRUCTURE
     1 GP4         1 TEMP              0 ****  ****    0 ROOT
