@<TRIPOS>MOLECULE
GP6
   33    34     1     0     0
SMALL
bcc


@<TRIPOS>ATOM
      1 N1          1.4960    1.0370    6.7660 n2        1 GP6     -0.834100
      2 N2          0.4610   -1.0840    6.9690 nh        1 GP6     -0.892800
      3 C1          0.8060    0.0720    6.2330 ce        1 GP6      0.640800
      4 C2          0.2510    0.1040    4.8440 ca        1 GP6     -0.221900
      5 C3          1.0870    0.4380    3.7740 ca        1 GP6     -0.081000
      6 C4          0.5930    0.4960    2.4750 ca        1 GP6     -0.165000
      7 C5         -0.7660    0.2170    2.2220 ca        1 GP6      0.078600
      8 C6         -1.6060   -0.1220    3.3110 ca        1 GP6     -0.165000
      9 C7         -1.0960   -0.1740    4.6030 ca        1 GP6     -0.081000
     10 N3         -1.3380    0.3260    0.9400 n         1 GP6     -0.467100
     11 C8         -0.6280    0.0620   -0.2530 c         1 GP6      0.772100
     12 O1          0.6080   -0.1230   -0.2570 o         1 GP6     -0.604100
     13 N4         -1.3930    0.0140   -1.4410 n         1 GP6     -0.463100
     14 C9         -0.8170   -0.0170   -2.7260 ca        1 GP6      0.062600
     15 C10         0.4030   -0.6730   -2.9970 ca        1 GP6     -0.150500
     16 C11         0.8940   -0.7320   -4.2970 ca        1 GP6     -0.101500
     17 C12         0.1820   -0.1490   -5.3470 ca        1 GP6     -0.004600
     18 C13        -1.0280    0.5040   -5.0970 ca        1 GP6     -0.101500
     19 C14        -1.5240    0.5760   -3.8010 ca        1 GP6     -0.150500
     20 CL          0.7870   -0.2300   -6.9330 cl        1 GP6     -0.092400
     21 HN1         1.5890    1.8410    6.1850 hn        1 GP6      0.395400
     22 HN21        0.9480   -1.1990    7.8320 hn        1 GP6      0.397300
     23 HN22        0.4480   -1.9090    6.4120 hn        1 GP6      0.397300
     24 H3          2.1510    0.6580    3.9530 ha        1 GP6      0.147000
     25 H4          1.2760    0.7530    1.6480 ha        1 GP6      0.153500
     26 H6         -2.6720   -0.3430    3.1500 ha        1 GP6      0.153500
     27 H7         -1.7640   -0.4330    5.4400 ha        1 GP6      0.147000
     28 HN3        -2.3300    0.2340    0.9210 hn        1 GP6      0.311500
     29 HN4        -2.3160    0.3910   -1.4140 hn        1 GP6      0.310500
     30 H10         0.9830   -1.1340   -2.1800 ha        1 GP6      0.154500
     31 H11         1.8490   -1.2450   -4.4900 ha        1 GP6      0.150000
     32 H13        -1.5910    0.9670   -5.9220 ha        1 GP6      0.150000
     33 H14        -2.4770    1.0970   -3.6260 ha        1 GP6      0.154500
@<TRIPOS>BOND
     1    1    3 2   
     2    1   21 1   
     3    2    3 1   
     4    2   22 1   
     5    2   23 1   
     6    3    4 1   
     7    4    5 ar  
     8    4    9 ar  
     9    5    6 ar  
    10    5   24 1   
    11    6    7 ar  
    12    6   25 1   
    13    7    8 ar  
    14    7   10 1   
    15    8    9 ar  
    16    8   26 1   
    17    9   27 1   
    18   10   11 1   
    19   10   28 1   
    20   11   12 2   
    21   11   13 1   
    22   13   14 1   
    23   13   29 1   
    24   14   15 ar  
    25   14   19 ar  
    26   15   16 ar  
    27   15   30 1   
    28   16   17 ar  
    29   16   31 1   
    30   17   18 ar  
    31   17   20 1   
    32   18   19 ar  
    33   18   32 1   
    34   19   33 1   
@<TRIPOS>SUBSTRUCTURE
     1 GP6         1 TEMP              0 ****  ****    0 ROOT
