@<TRIPOS>MOLECULE
GP6
   34    35     1     0     0
SMALL
bcc


@<TRIPOS>ATOM
      1 N1          0.3400    1.1750   -0.4480 n2        1 GP6     -0.678100
      2 N2          2.0160   -0.4870   -1.2450 n4        1 GP6     -0.897600
      3 C1          1.3270    0.4230   -0.2070 ce        1 GP6      0.650800
      4 C2          1.9910    0.2560    1.0980 ca        1 GP6     -0.282900
      5 C3          1.2710   -0.2750    2.1760 ca        1 GP6     -0.047500
      6 C4          1.8720   -0.4220    3.4170 ca        1 GP6     -0.178500
      7 C5          3.2190   -0.0260    3.6180 ca        1 GP6      0.164600
      8 C6          3.9250    0.5370    2.5150 ca        1 GP6     -0.178500
      9 C7          3.3160    0.6750    1.2810 ca        1 GP6     -0.047500
     10 N3          3.8650   -0.1160    4.8430 n         1 GP6     -0.479100
     11 C8          3.4370   -0.9420    5.9260 c         1 GP6      0.783100
     12 O1          2.5000   -1.7500    5.7660 o         1 GP6     -0.596100
     13 N4          4.1570   -0.8250    7.1190 n         1 GP6     -0.451100
     14 C9          3.7620   -1.4610    8.3190 ca        1 GP6      0.040600
     15 C10         3.1480   -2.7290    8.3340 ca        1 GP6     -0.139500
     16 C11         2.8330   -3.3390    9.5450 ca        1 GP6     -0.101500
     17 C12         3.1280   -2.7020   10.7530 ca        1 GP6      0.009400
     18 C13         3.7400   -1.4440   10.7510 ca        1 GP6     -0.101500
     19 C14         4.0510   -0.8230    9.5480 ca        1 GP6     -0.139500
     20 CL          2.7450   -3.4530   12.2230 cl        1 GP6     -0.068400
     21 HN1        -0.1110    1.2500   -1.3320 hn        1 GP6      0.461400
     22 HN21        3.0260   -0.3260   -1.1940 hn        1 GP6      0.453467
     23 HN22        1.6960   -0.3240   -2.2000 hn        1 GP6      0.453467
     24 H3          0.2160   -0.5700    2.0500 ha        1 GP6      0.144500
     25 H4          1.2830   -0.8520    4.2480 ha        1 GP6      0.178000
     26 H6          4.9660    0.8790    2.6380 ha        1 GP6      0.178000
     27 H7          3.8770    1.1410    0.4560 ha        1 GP6      0.144500
     28 HN3         4.7660    0.3090    4.8950 hn        1 GP6      0.329500
     29 HN4         4.7630   -0.0430    7.2400 hn        1 GP6      0.321500
     30 H10         2.9010   -3.2460    7.3920 ha        1 GP6      0.152500
     31 H11         2.3510   -4.3300    9.5420 ha        1 GP6      0.158000
     32 H13         3.9730   -0.9390   11.7020 ha        1 GP6      0.158000
     33 H14         4.5310    0.1680    9.5700 ha        1 GP6      0.152500
     34 H23         1.8320   -1.4620   -0.9900 hn        1 GP6      0.453467
@<TRIPOS>BOND
     1    1    3 2   
     2    1   21 1   
     3    2    3 1   
     4    2   22 1   
     5    2   23 1   
     6    2   34 1   
     7    3    4 1   
     8    4    5 ar  
     9    4    9 ar  
    10    5    6 ar  
    11    5   24 1   
    12    6    7 ar  
    13    6   25 1   
    14    7    8 ar  
    15    7   10 1   
    16    8    9 ar  
    17    8   26 1   
    18    9   27 1   
    19   10   11 1   
    20   10   28 1   
    21   11   12 2   
    22   11   13 1   
    23   13   14 1   
    24   13   29 1   
    25   14   15 ar  
    26   14   19 ar  
    27   15   16 ar  
    28   15   30 1   
    29   16   17 ar  
    30   16   31 1   
    31   17   18 ar  
    32   17   20 1   
    33   18   19 ar  
    34   18   32 1   
    35   19   33 1   
@<TRIPOS>SUBSTRUCTURE
     1 GP6         1 TEMP              0 ****  ****    0 ROOT
