@<TRIPOS>MOLECULE
GP6
   34    35     1     0     0
SMALL
bcc


@<TRIPOS>ATOM
      1 N1          0.3460    1.1570   -0.4570 n2        1 GP6     -0.678100
      2 N2          2.0380   -0.4900   -1.2490 nz        1 GP6     -0.897600
      3 C1          1.3380    0.4140   -0.2130 ce        1 GP6      0.650800
      4 C2          1.9980    0.2510    1.0940 ca        1 GP6     -0.282900
      5 C3          1.2780   -0.2870    2.1700 ca        1 GP6     -0.047500
      6 C4          1.8740   -0.4300    3.4130 ca        1 GP6     -0.178500
      7 C5          3.2180   -0.0240    3.6200 ca        1 GP6      0.164600
      8 C6          3.9250    0.5460    2.5200 ca        1 GP6     -0.178500
      9 C7          3.3190    0.6800    1.2830 ca        1 GP6     -0.047500
     10 N3          3.8590   -0.1100    4.8470 ns        1 GP6     -0.479100
     11 C8          3.4330   -0.9390    5.9280 c         1 GP6      0.783100
     12 O1          2.5020   -1.7540    5.7650 o         1 GP6     -0.596100
     13 N4          4.1480   -0.8170    7.1240 ns        1 GP6     -0.451100
     14 C9          3.7530   -1.4560    8.3230 ca        1 GP6      0.040600
     15 C10         3.1460   -2.7280    8.3350 ca        1 GP6     -0.139500
     16 C11         2.8310   -3.3400    9.5450 ca        1 GP6     -0.101500
     17 C12         3.1180   -2.7010   10.7540 ca        1 GP6      0.009400
     18 C13         3.7210   -1.4390   10.7540 ca        1 GP6     -0.101500
     19 C14         4.0330   -0.8160    9.5520 ca        1 GP6     -0.139500
     20 Cl          2.7340   -3.4540   12.2230 cl        1 GP6     -0.068400
     21 HN1        -0.1030    1.2300   -1.3430 hn        1 GP6      0.461400
     22 HN21        1.7220   -0.3280   -2.2050 hn        1 GP6      0.453467
     23 HN22        3.0470   -0.3210   -1.1940 hn        1 GP6      0.453467
     24 H3          0.2260   -0.5890    2.0390 ha        1 GP6      0.144500
     25 H4          1.2860   -0.8650    4.2420 ha        1 GP6      0.178000
     26 H6          4.9620    0.8950    2.6470 ha        1 GP6      0.178000
     27 H7          3.8800    1.1510    0.4610 ha        1 GP6      0.144500
     28 HN3         4.7570    0.3220    4.9030 hn        1 GP6      0.329500
     29 HN4         4.7490   -0.0310    7.2470 hn        1 GP6      0.321500
     30 H10         2.9060   -3.2460    7.3920 ha        1 GP6      0.152500
     31 H11         2.3550   -4.3340    9.5400 ha        1 GP6      0.158000
     32 H13         3.9480   -0.9320   11.7060 ha        1 GP6      0.158000
     33 H14         4.5070    0.1780    9.5760 ha        1 GP6      0.152500
     34 H23         1.8620   -1.4660   -0.9960 hn        1 GP6      0.453467
@<TRIPOS>BOND
     1    1    3 2   
     2    1   21 1   
     3    2    3 1   
     4    2   22 1   
     5    2   23 1   
     6    2   34 1   
     7    3    4 1   
     8    4    5 ar  
     9    4    9 ar  
    10    5    6 ar  
    11    5   24 1   
    12    6    7 ar  
    13    6   25 1   
    14    7    8 ar  
    15    7   10 1   
    16    8    9 ar  
    17    8   26 1   
    18    9   27 1   
    19   10   11 1   
    20   10   28 1   
    21   11   12 2   
    22   11   13 1   
    23   13   14 1   
    24   13   29 1   
    25   14   15 ar  
    26   14   19 ar  
    27   15   16 ar  
    28   15   30 1   
    29   16   17 ar  
    30   16   31 1   
    31   17   18 ar  
    32   17   20 1   
    33   18   19 ar  
    34   18   32 1   
    35   19   33 1   
@<TRIPOS>SUBSTRUCTURE
     1 GP6         1 TEMP              0 ****  ****    0 ROOT
