@<TRIPOS>MOLECULE
GP6
   36    37     1     0     0
SMALL
bcc


@<TRIPOS>ATOM
      1 N1          1.4600   -1.3280   -0.6520 n2        1 GP6     -0.629100
      2 N2          1.2270    1.1480   -0.6030 n4        1 GP6     -0.873600
      3 C1          1.5540   -0.2220   -0.0420 ce        1 GP6      0.579800
      4 C2          2.0230   -0.1720    1.3790 ca        1 GP6     -0.115900
      5 C3          1.2820   -0.8520    2.3560 ca        1 GP6     -0.058000
      6 C4          1.7570   -0.9380    3.6660 ca        1 GP6     -0.078000
      7 C5          2.9850   -0.3320    3.9910 ca        1 GP6     -0.047400
      8 C6          3.7280    0.3610    3.0160 ca        1 GP6     -0.078000
      9 C7          3.2390    0.4340    1.7100 ca        1 GP6     -0.058000
     10 N3          3.4780   -0.3920    5.3820 n4        1 GP6     -0.504200
     11 C8          4.7050   -1.2530    5.5180 c         1 GP6      0.475100
     12 O1          5.6330   -1.1430    4.7360 o         1 GP6     -0.292100
     13 N4          4.7740   -2.2180    6.6670 n4        1 GP6     -0.475200
     14 C9          4.0510   -1.7820    7.8560 ca        1 GP6     -0.195400
     15 C10         2.7440   -2.2690    8.0960 ca        1 GP6     -0.085500
     16 C11         2.1160   -1.9660    9.2920 ca        1 GP6     -0.103500
     17 C12         2.7700   -1.1880   10.2740 ca        1 GP6      0.105400
     18 C13         4.0710   -0.7100   10.0230 ca        1 GP6     -0.103500
     19 C14         4.7170   -1.0050    8.8310 ca        1 GP6     -0.085500
     20 CL          2.0130   -0.8550   11.7200 cl        1 GP6      0.100600
     21 HN1         1.1630   -1.4480   -1.6000 hn        1 GP6      0.504400
     22 HN21        1.9620    1.8170   -0.3490 hn        1 GP6      0.476800
     23 HN22        1.1440    1.1310   -1.6290 hn        1 GP6      0.476800
     24 H3          0.3260   -1.3480    2.0990 ha        1 GP6      0.198500
     25 H4          1.1480   -1.4790    4.4120 ha        1 GP6      0.189000
     26 H6          4.7020    0.8310    3.2480 ha        1 GP6      0.189000
     27 H7          3.8520    0.9510    0.9480 ha        1 GP6      0.198500
     28 HN3         2.7200   -0.7220    6.0080 hn        1 GP6      0.504800
     29 HN4         4.4060   -3.1350    6.3480 hn        1 GP6      0.518300
     30 H10         2.2300   -2.9290    7.3770 ha        1 GP6      0.168500
     31 H11         1.1000   -2.3610    9.4940 ha        1 GP6      0.214000
     32 H13         4.5980   -0.1110   10.7940 ha        1 GP6      0.214000
     33 H14         5.7520   -0.6460    8.6830 ha        1 GP6      0.168500
     34 H23         0.3330    1.4750   -0.2130 hn        1 GP6      0.476800
     35 H32         3.7450    0.5690    5.6730 hn        1 GP6      0.504800
     36 H42         5.7850   -2.3390    6.9000 hn        1 GP6      0.518300
@<TRIPOS>BOND
     1    1    3 2   
     2    1   21 1   
     3    2    3 1   
     4    2   22 1   
     5    2   23 1   
     6    2   34 1   
     7    3    4 1   
     8    4    5 ar  
     9    4    9 ar  
    10    5    6 ar  
    11    5   24 1   
    12    6    7 ar  
    13    6   25 1   
    14    7    8 ar  
    15    7   10 1   
    16    8    9 ar  
    17    8   26 1   
    18    9   27 1   
    19   10   11 1   
    20   10   28 1   
    21   10   35 1   
    22   11   12 2   
    23   11   13 1   
    24   13   14 1   
    25   13   29 1   
    26   13   36 1   
    27   14   15 ar  
    28   14   19 ar  
    29   15   16 ar  
    30   15   30 1   
    31   16   17 ar  
    32   16   31 1   
    33   17   18 ar  
    34   17   20 1   
    35   18   19 ar  
    36   18   32 1   
    37   19   33 1   
@<TRIPOS>SUBSTRUCTURE
     1 GP6         1 TEMP              0 ****  ****    0 ROOT
