@<TRIPOS>MOLECULE
GP7
  113   112     1     0     0
SMALL
bcc


@<TRIPOS>ATOM
      1 P           0.4620   -4.2110   -0.2980 p5        1 GP7      1.443800
      2 C1         -0.1990   -5.2680    1.9800 c3        1 GP7      0.174400
      3 C2         -0.5700   -4.4340    3.2190 c3        1 GP7      0.114100
      4 O2         -1.2800   -3.2490    2.8350 os        1 GP7     -0.419900
      5 C3          0.6340   -3.9810    4.0430 c3        1 GP7      0.154400
      6 O3          1.2150   -2.8250    3.4390 os        1 GP7     -0.407900
      7 C11         2.5730   -2.7990    3.2800 c         1 GP7      0.658100
      8 O11         3.2620   -3.6080    3.9100 o         1 GP7     -0.579000
      9 C12         3.0060   -1.7170    2.3440 c3        1 GP7     -0.146400
     10 C13         4.4660   -1.3720    2.5340 c3        1 GP7     -0.073400
     11 C14         4.9250   -0.3830    1.4840 c3        1 GP7     -0.080400
     12 C15         6.3820   -0.0190    1.6740 c3        1 GP7     -0.077400
     13 C16         6.8450    0.9630    0.6200 c3        1 GP7     -0.079400
     14 C17         8.3010    1.3290    0.8110 c3        1 GP7     -0.078400
     15 C18         8.7640    2.3100   -0.2450 c3        1 GP7     -0.079400
     16 C19        10.2200    2.6770   -0.0540 c3        1 GP7     -0.078400
     17 O1P         1.0790   -5.1350   -1.2690 o         1 GP7     -0.841000
     18 C20        10.6830    3.6580   -1.1100 c3        1 GP7     -0.079400
     19 C21        12.1390    4.0260   -0.9190 c3        1 GP7     -0.078400
     20 C22        12.6020    5.0060   -1.9750 c3        1 GP7     -0.079400
     21 C23        14.0570    5.3740   -1.7840 c3        1 GP7     -0.079400
     22 C24        14.5210    6.3550   -2.8400 c3        1 GP7     -0.080400
     23 C25        15.9710    6.7240   -2.6540 c3        1 GP7     -0.092100
     24 O2P        -0.9520   -3.7860   -0.3110 o         1 GP7     -0.841000
     25 C31        -2.5630   -3.4130    2.3790 c         1 GP7      0.669100
     26 O31        -3.1910   -4.4150    2.7370 o         1 GP7     -0.587000
     27 C32        -2.9950   -2.2920    1.4920 c3        1 GP7     -0.154400
     28 C33        -4.4990   -2.1540    1.4500 c3        1 GP7     -0.070400
     29 C34        -4.9140   -1.1470    0.3990 c3        1 GP7     -0.079400
     30 C35        -6.4200   -0.9990    0.3460 c3        1 GP7     -0.078400
     31 C36        -6.8370    0.0020   -0.7100 c3        1 GP7     -0.080400
     32 C37        -8.3420    0.1470   -0.7660 c3        1 GP7     -0.075400
     33 C38        -8.7560    1.1470   -1.8280 c3        1 GP7     -0.051200
     34 C39       -10.2300    1.2810   -1.9090 c2        1 GP7     -0.159200
     35 O3P         0.8310   -4.7120    1.2320 os        1 GP7     -0.559200
     36 C40       -10.8610    2.4530   -2.0220 c2        1 GP7     -0.182200
     37 C41       -12.3350    2.5790   -2.1510 c3        1 GP7     -0.016000
     38 C42       -12.8770    3.6450   -1.2700 c2        1 GP7     -0.161200
     39 C43       -13.8060    4.5220   -1.6610 c2        1 GP7     -0.179200
     40 C44       -14.3830    5.5570   -0.7700 c3        1 GP7     -0.046200
     41 C45       -14.4600    6.9060   -1.4590 c3        1 GP7     -0.077400
     42 C46       -15.0610    7.9510   -0.5540 c3        1 GP7     -0.093100
     43 O4P         1.4510   -2.8810   -0.3160 os        1 GP7     -0.575200
     44 C351        1.8090   -2.4260   -1.5840 c3        1 GP7      0.158400
     45 C361        3.2960   -2.6870   -1.8880 c3        1 GP7      0.134800
     46 N1          3.7010   -4.0570   -2.0850 n3        1 GP7     -0.908800
     47 H1          0.1500   -6.2740    2.3530 h1        1 GP7      0.038700
     48 H1A        -1.1280   -5.3900    1.3530 h1        1 GP7      0.038700
     49 H2         -1.2330   -5.0660    3.8770 h1        1 GP7      0.054700
     50 H3          0.3070   -3.6630    5.0680 h1        1 GP7      0.054200
     51 H3A         1.3710   -4.8230    4.1080 h1        1 GP7      0.054200
     52 H12         2.8100   -2.0920    1.2950 hc        1 GP7      0.104200
     53 H12A        2.3580   -0.8140    2.4960 hc        1 GP7      0.104200
     54 H13         4.6250   -0.9420    3.5580 hc        1 GP7      0.046700
     55 H13A        5.0810   -2.3090    2.4720 hc        1 GP7      0.046700
     56 H14         4.7760   -0.8260    0.4630 hc        1 GP7      0.044200
     57 H14A        4.2950    0.5430    1.5370 hc        1 GP7      0.044200
     58 H15         6.5290    0.4250    2.6940 hc        1 GP7      0.037700
     59 H15A        7.0090   -0.9480    1.6250 hc        1 GP7      0.037700
     60 H16         6.7000    0.5150   -0.3990 hc        1 GP7      0.040700
     61 H16A        6.2140    1.8890    0.6660 hc        1 GP7      0.040700
     62 H17         8.4460    1.7760    1.8290 hc        1 GP7      0.037200
     63 H17A        8.9310    0.4020    0.7640 hc        1 GP7      0.037200
     64 H18         8.6200    1.8620   -1.2630 hc        1 GP7      0.039700
     65 H18A        8.1330    3.2370   -0.2000 hc        1 GP7      0.039700
     66 H19        10.3650    3.1250    0.9640 hc        1 GP7      0.038200
     67 H19A       10.8500    1.7500   -0.1000 hc        1 GP7      0.038200
     68 H20        10.5390    3.2100   -2.1280 hc        1 GP7      0.039700
     69 H20A       10.0520    4.5850   -1.0650 hc        1 GP7      0.039700
     70 H21        12.2830    4.4740    0.0990 hc        1 GP7      0.038700
     71 H21A       12.7700    3.0990   -0.9650 hc        1 GP7      0.038700
     72 H22        12.4570    4.5580   -2.9930 hc        1 GP7      0.039200
     73 H22A       11.9710    5.9330   -1.9300 hc        1 GP7      0.039200
     74 H23        14.2020    5.8220   -0.7660 hc        1 GP7      0.039200
     75 H23A       14.6880    4.4470   -1.8300 hc        1 GP7      0.039200
     76 H24        14.3740    5.9050   -3.8580 hc        1 GP7      0.038200
     77 H24A       13.8880    7.2800   -2.7940 hc        1 GP7      0.038200
     78 H25        16.2920    7.4470   -3.4420 hc        1 GP7      0.031033
     79 H25A       16.1320    7.1960   -1.6550 hc        1 GP7      0.031033
     80 H25B       16.6200    5.8180   -2.7210 hc        1 GP7      0.031033
     81 H32        -2.5120   -1.3380    1.8260 hc        1 GP7      0.115200
     82 H32A       -2.5740   -2.5480    0.4690 hc        1 GP7      0.115200
     83 H33        -4.9580   -3.1540    1.2250 hc        1 GP7      0.044200
     84 H33A       -4.8830   -1.8340    2.4540 hc        1 GP7      0.044200
     85 H34        -4.4450   -0.1530    0.6230 hc        1 GP7      0.044200
     86 H34A       -4.5310   -1.4760   -0.6040 hc        1 GP7      0.044200
     87 H35        -6.8870   -1.9950    0.1260 hc        1 GP7      0.037200
     88 H35A       -6.8020   -0.6700    1.3490 hc        1 GP7      0.037200
     89 H36        -6.3700    0.9980   -0.4880 hc        1 GP7      0.040200
     90 H36A       -6.4520   -0.3270   -1.7110 hc        1 GP7      0.040200
     91 H37        -8.8080   -0.8500   -0.9840 hc        1 GP7      0.039700
     92 H37A       -8.7270    0.4800    0.2340 hc        1 GP7      0.039700
     93 H38        -8.2770    2.1400   -1.6140 hc        1 GP7      0.047700
     94 H38A       -8.3710    0.8050   -2.8290 hc        1 GP7      0.047700
     95 H39       -10.7900    0.3310   -1.8790 ha        1 GP7      0.119000
     96 H40       -10.3060    3.4040   -2.0420 ha        1 GP7      0.123000
     97 H41       -12.5850    2.7930   -3.2280 hc        1 GP7      0.049700
     98 H41A      -12.8390    1.6070   -1.8850 hc        1 GP7      0.049700
     99 H42       -12.4670    3.6610   -0.2470 ha        1 GP7      0.125000
    100 H43       -14.2060    4.5110   -2.6890 ha        1 GP7      0.118000
    101 H44       -15.4170    5.2360   -0.4670 hc        1 GP7      0.044700
    102 H44A      -13.7790    5.6530    0.1710 hc        1 GP7      0.044700
    103 H45       -13.4310    7.2240   -1.7720 hc        1 GP7      0.040200
    104 H45A      -15.0760    6.8150   -2.3920 hc        1 GP7      0.040200
    105 H46       -15.1110    8.9350   -1.0790 hc        1 GP7      0.031700
    106 H46A      -16.0950    7.6600   -0.2480 hc        1 GP7      0.031700
    107 H46B      -14.4450    8.0740    0.3690 hc        1 GP7      0.031700
    108 H63         1.1640   -2.9090   -2.3700 h1        1 GP7      0.017700
    109 H64         1.6400   -1.3110   -1.6070 h1        1 GP7      0.017700
    110 H65         3.5450   -2.1230   -2.8320 h1        1 GP7      0.026700
    111 H66         3.9050   -2.2480   -1.0480 h1        1 GP7      0.026700
    112 H67         3.7330   -4.5350   -1.2030 hn        1 GP7      0.360800
    113 H68         3.0210   -4.5390   -2.6490 hn        1 GP7      0.360800
@<TRIPOS>BOND
     1    1   17 1   
     2    1   24 1   
     3    1   35 1   
     4    1   43 1   
     5    2    3 1   
     6    2   35 1   
     7    2   47 1   
     8    2   48 1   
     9    3    4 1   
    10    3    5 1   
    11    3   49 1   
    12    4   25 1   
    13    5    6 1   
    14    5   50 1   
    15    5   51 1   
    16    6    7 1   
    17    7    8 2   
    18    7    9 1   
    19    9   10 1   
    20    9   52 1   
    21    9   53 1   
    22   10   11 1   
    23   10   54 1   
    24   10   55 1   
    25   11   12 1   
    26   11   56 1   
    27   11   57 1   
    28   12   13 1   
    29   12   58 1   
    30   12   59 1   
    31   13   14 1   
    32   13   60 1   
    33   13   61 1   
    34   14   15 1   
    35   14   62 1   
    36   14   63 1   
    37   15   16 1   
    38   15   64 1   
    39   15   65 1   
    40   16   18 1   
    41   16   66 1   
    42   16   67 1   
    43   18   19 1   
    44   18   68 1   
    45   18   69 1   
    46   19   20 1   
    47   19   70 1   
    48   19   71 1   
    49   20   21 1   
    50   20   72 1   
    51   20   73 1   
    52   21   22 1   
    53   21   74 1   
    54   21   75 1   
    55   22   23 1   
    56   22   76 1   
    57   22   77 1   
    58   23   78 1   
    59   23   79 1   
    60   23   80 1   
    61   25   26 2   
    62   25   27 1   
    63   27   28 1   
    64   27   81 1   
    65   27   82 1   
    66   28   29 1   
    67   28   83 1   
    68   28   84 1   
    69   29   30 1   
    70   29   85 1   
    71   29   86 1   
    72   30   31 1   
    73   30   87 1   
    74   30   88 1   
    75   31   32 1   
    76   31   89 1   
    77   31   90 1   
    78   32   33 1   
    79   32   91 1   
    80   32   92 1   
    81   33   34 1   
    82   33   93 1   
    83   33   94 1   
    84   34   36 2   
    85   34   95 1   
    86   36   37 1   
    87   36   96 1   
    88   37   38 1   
    89   37   97 1   
    90   37   98 1   
    91   38   39 2   
    92   38   99 1   
    93   39   40 1   
    94   39  100 1   
    95   40   41 1   
    96   40  101 1   
    97   40  102 1   
    98   41   42 1   
    99   41  103 1   
   100   41  104 1   
   101   42  105 1   
   102   42  106 1   
   103   42  107 1   
   104   43   44 1   
   105   44   45 1   
   106   44  108 1   
   107   44  109 1   
   108   45   46 1   
   109   45  110 1   
   110   45  111 1   
   111   46  112 1   
   112   46  113 1   
@<TRIPOS>SUBSTRUCTURE
     1 GP7         1 TEMP              0 ****  ****    0 ROOT
