@<TRIPOS>MOLECULE
GP8
   44    46     1     0     0
SMALL
bcc


@<TRIPOS>ATOM
      1 N1         -0.6990   -0.9490    8.3990 nh        1 GP8     -0.895800
      2 N2         -2.4780    0.3790    7.5800 n2        1 GP8     -0.837100
      3 C1         -1.3110   -0.1670    7.3990 ce        1 GP8      0.643800
      4 C2         -0.5420   -0.0940    6.1170 ca        1 GP8     -0.210900
      5 C3         -1.1280   -0.5460    4.9320 ca        1 GP8     -0.086000
      6 C4         -0.4410   -0.4730    3.7250 ca        1 GP8     -0.161000
      7 C5          0.8610    0.0700    3.6820 ca        1 GP8      0.077600
      8 C6          1.4450    0.5320    4.8870 ca        1 GP8     -0.161000
      9 C7          0.7480    0.4400    6.0860 ca        1 GP8     -0.086000
     10 N3          1.6290    0.1110    2.5030 n         1 GP8     -0.466100
     11 C8          1.0670    0.2740    1.2150 c         1 GP8      0.768100
     12 O1         -0.1660    0.2110    1.0230 o         1 GP8     -0.605100
     13 N4          1.9740    0.5240    0.1600 n         1 GP8     -0.457100
     14 C9          1.5900    0.4520   -1.1970 ca        1 GP8      0.035600
     15 C10         0.3360    0.9160   -1.6450 ca        1 GP8     -0.131500
     16 C11         0.0240    0.8970   -3.0000 ca        1 GP8     -0.135500
     17 C12         0.9580    0.4160   -3.9230 ca        1 GP8      0.088100
     18 C13         2.2090   -0.0540   -3.4980 ca        1 GP8     -0.135500
     19 C14         2.5210   -0.0350   -2.1450 ca        1 GP8     -0.131500
     20 O2          0.7650    0.4630   -5.3000 os        1 GP8     -0.249200
     21 C15        -0.5200    0.1880   -5.7620 ca        1 GP8      0.104100
     22 C16        -0.8830    0.8410   -6.9500 ca        1 GP8     -0.158500
     23 C17        -2.1140    0.5440   -7.5300 ca        1 GP8     -0.107000
     24 C18        -2.9730   -0.3800   -6.9330 ca        1 GP8     -0.150000
     25 C19        -2.6010   -1.0190   -5.7500 ca        1 GP8     -0.107000
     26 C20        -1.3720   -0.7420   -5.1550 ca        1 GP8     -0.158500
     27 HN11        0.2950   -0.9170    8.3790 hn        1 GP8      0.399300
     28 HN12       -1.0890   -0.8670    9.3130 hn        1 GP8      0.399300
     29 HN2        -2.8510    0.8210    6.7680 hn        1 GP8      0.395400
     30 H3         -2.1430   -0.9740    4.9490 ha        1 GP8      0.140000
     31 H4         -0.9270   -0.8340    2.8030 ha        1 GP8      0.153500
     32 H6          2.4570    0.9650    4.8900 ha        1 GP8      0.153500
     33 H7          1.2190    0.8080    7.0110 ha        1 GP8      0.140000
     34 HN3         2.5740    0.4020    2.6370 hn        1 GP8      0.310500
     35 HN4         2.9380    0.3210    0.3220 hn        1 GP8      0.306500
     36 H10        -0.4110    1.2890   -0.9240 ha        1 GP8      0.152500
     37 H11        -0.9570    1.2570   -3.3460 ha        1 GP8      0.153500
     38 H13         2.9330   -0.4250   -4.2380 ha        1 GP8      0.153500
     39 H14         3.5070   -0.4040   -1.8250 ha        1 GP8      0.152500
     40 H16        -0.1940    1.5640   -7.4090 ha        1 GP8      0.149500
     41 H17        -2.4090    1.0450   -8.4640 ha        1 GP8      0.135500
     42 H18        -3.9440   -0.6050   -7.3970 ha        1 GP8      0.134000
     43 H19        -3.2790   -1.7480   -5.2810 ha        1 GP8      0.135500
     44 H20        -1.0710   -1.2410   -4.2230 ha        1 GP8      0.149500
@<TRIPOS>BOND
     1    1    3 1   
     2    1   27 1   
     3    1   28 1   
     4    2    3 2   
     5    2   29 1   
     6    3    4 1   
     7    4    5 ar  
     8    4    9 ar  
     9    5    6 ar  
    10    5   30 1   
    11    6    7 ar  
    12    6   31 1   
    13    7    8 ar  
    14    7   10 1   
    15    8    9 ar  
    16    8   32 1   
    17    9   33 1   
    18   10   11 1   
    19   10   34 1   
    20   11   12 2   
    21   11   13 1   
    22   13   14 1   
    23   13   35 1   
    24   14   15 ar  
    25   14   19 ar  
    26   15   16 ar  
    27   15   36 1   
    28   16   17 ar  
    29   16   37 1   
    30   17   18 ar  
    31   17   20 1   
    32   18   19 ar  
    33   18   38 1   
    34   19   39 1   
    35   20   21 1   
    36   21   22 ar  
    37   21   26 ar  
    38   22   23 ar  
    39   22   40 1   
    40   23   24 ar  
    41   23   41 1   
    42   24   25 ar  
    43   24   42 1   
    44   25   26 ar  
    45   25   43 1   
    46   26   44 1   
@<TRIPOS>SUBSTRUCTURE
     1 GP8         1 TEMP              0 ****  ****    0 ROOT
