@<TRIPOS>MOLECULE
GP8
   45    47     1     0     0
SMALL
bcc


@<TRIPOS>ATOM
      1 N1         -0.3680   -0.1370   -0.0380 n4        1 GP8     -0.897600
      2 N2          1.3850   -1.4270   -1.2500 n2        1 GP8     -0.679100
      3 C1          1.0100   -0.8080   -0.2140 ce        1 GP8      0.651800
      4 C2          1.8100   -0.5930    1.0040 ca        1 GP8     -0.284900
      5 C3          2.9940    0.1530    0.9300 ca        1 GP8     -0.047000
      6 C4          3.7710    0.3530    2.0600 ca        1 GP8     -0.180500
      7 C5          3.3880   -0.2050    3.3080 ca        1 GP8      0.166600
      8 C6          2.1940   -0.9850    3.3560 ca        1 GP8     -0.180500
      9 C7          1.4260   -1.1730    2.2210 ca        1 GP8     -0.047000
     10 N3          4.1380   -0.0710    4.4660 n         1 GP8     -0.479100
     11 C8          5.1480    0.9190    4.6730 c         1 GP8      0.778100
     12 O1          5.3270    1.8170    3.8250 o         1 GP8     -0.598100
     13 N4          5.8460    0.8540    5.8830 n         1 GP8     -0.441100
     14 C9          7.0000    1.6390    6.1290 ca        1 GP8     -0.000400
     15 C10         7.0860    2.9830    5.7190 ca        1 GP8     -0.113000
     16 C11         8.2070    3.7430    6.0400 ca        1 GP8     -0.149500
     17 C12         9.2490    3.1700    6.7750 ca        1 GP8      0.122100
     18 C13         9.1810    1.8270    7.1880 ca        1 GP8     -0.149500
     19 C14         8.0660    1.0690    6.8640 ca        1 GP8     -0.113000
     20 O2         10.3740    3.8550    7.2050 os        1 GP8     -0.243200
     21 C15        10.6860    5.0400    6.5360 ca        1 GP8      0.083100
     22 C16        10.9770    6.1490    7.3420 ca        1 GP8     -0.143500
     23 C17        11.4260    7.3200    6.7330 ca        1 GP8     -0.112500
     24 C18        11.5720    7.3840    5.3470 ca        1 GP8     -0.134000
     25 C19        11.2740    6.2730    4.5560 ca        1 GP8     -0.112500
     26 C20        10.8290    5.0910    5.1440 ca        1 GP8     -0.143500
     27 HN11       -1.0240   -0.3590   -0.7870 hn        1 GP8      0.453467
     28 HN12       -0.7620   -0.4400    0.8580 hn        1 GP8      0.453467
     29 HN2         0.8350   -1.5340   -2.0740 hn        1 GP8      0.460400
     30 H3          3.3240    0.5790   -0.0320 ha        1 GP8      0.144000
     31 H4          4.6960    0.9520    1.9750 ha        1 GP8      0.177500
     32 H6          1.8750   -1.4550    4.3000 ha        1 GP8      0.177500
     33 H7          0.5250   -1.8050    2.2830 ha        1 GP8      0.144000
     34 HN3         3.8280   -0.6030    5.2510 hn        1 GP8      0.328500
     35 HN4         5.7940    0.0150    6.4190 hn        1 GP8      0.317500
     36 H10         6.2740    3.4440    5.1330 ha        1 GP8      0.149500
     37 H11         8.2690    4.7940    5.7180 ha        1 GP8      0.160500
     38 H13        10.0100    1.3940    7.7670 ha        1 GP8      0.160500
     39 H14         8.0240    0.0200    7.1950 ha        1 GP8      0.149500
     40 H16        10.8650    6.0800    8.4330 ha        1 GP8      0.149000
     41 H17        11.6660    8.1970    7.3530 ha        1 GP8      0.140000
     42 H18        11.9260    8.3130    4.8750 ha        1 GP8      0.140000
     43 H19        11.3950    6.3260    3.4640 ha        1 GP8      0.140000
     44 H20        10.5960    4.2070    4.5340 ha        1 GP8      0.149000
     45 H131       -0.2290    0.8770   -0.0010 hn        1 GP8      0.453467
@<TRIPOS>BOND
     1    1    3 1   
     2    1   27 1   
     3    1   28 1   
     4    1   45 1   
     5    2    3 2   
     6    2   29 1   
     7    3    4 1   
     8    4    5 ar  
     9    4    9 ar  
    10    5    6 ar  
    11    5   30 1   
    12    6    7 ar  
    13    6   31 1   
    14    7    8 ar  
    15    7   10 1   
    16    8    9 ar  
    17    8   32 1   
    18    9   33 1   
    19   10   11 1   
    20   10   34 1   
    21   11   12 2   
    22   11   13 1   
    23   13   14 1   
    24   13   35 1   
    25   14   15 ar  
    26   14   19 ar  
    27   15   16 ar  
    28   15   36 1   
    29   16   17 ar  
    30   16   37 1   
    31   17   18 ar  
    32   17   20 1   
    33   18   19 ar  
    34   18   38 1   
    35   19   39 1   
    36   20   21 1   
    37   21   22 ar  
    38   21   26 ar  
    39   22   23 ar  
    40   22   40 1   
    41   23   24 ar  
    42   23   41 1   
    43   24   25 ar  
    44   24   42 1   
    45   25   26 ar  
    46   25   43 1   
    47   26   44 1   
@<TRIPOS>SUBSTRUCTURE
     1 GP8         1 TEMP              0 ****  ****    0 ROOT
