@<TRIPOS>MOLECULE
GP8
   45    47     1     0     0
SMALL
bcc


@<TRIPOS>ATOM
      1 N1         -0.3790   -0.1860    0.0040 nz        1 GP8     -0.897600
      2 N2          1.3780   -1.4480   -1.2320 n2        1 GP8     -0.679100
      3 C1          1.0060   -0.8400   -0.1880 ce        1 GP8      0.651800
      4 C2          1.8130   -0.6230    1.0240 ca        1 GP8     -0.284900
      5 C3          2.9880    0.1380    0.9450 ca        1 GP8     -0.047000
      6 C4          3.7720    0.3400    2.0690 ca        1 GP8     -0.180500
      7 C5          3.4070   -0.2310    3.3160 ca        1 GP8      0.166600
      8 C6          2.2230   -1.0240    3.3700 ca        1 GP8     -0.180500
      9 C7          1.4470   -1.2150    2.2400 ca        1 GP8     -0.047000
     10 N3          4.1650   -0.0950    4.4680 ns        1 GP8     -0.479100
     11 C8          5.1660    0.9050    4.6730 c         1 GP8      0.778100
     12 O1          5.3270    1.8100    3.8290 o         1 GP8     -0.598100
     13 N4          5.8750    0.8410    5.8760 ns        1 GP8     -0.441100
     14 C9          7.0220    1.6380    6.1170 ca        1 GP8     -0.000400
     15 C10         7.0890    2.9850    5.7150 ca        1 GP8     -0.113000
     16 C11         8.2040    3.7560    6.0320 ca        1 GP8     -0.149500
     17 C12         9.2580    3.1910    6.7540 ca        1 GP8      0.122100
     18 C13         9.2090    1.8450    7.1600 ca        1 GP8     -0.149500
     19 C14         8.1000    1.0760    6.8410 ca        1 GP8     -0.113000
     20 O2         10.3790    3.8860    7.1790 os        1 GP8     -0.243200
     21 C15        10.6730    5.0790    6.5140 ca        1 GP8      0.083100
     22 C16        10.9580    6.1870    7.3240 ca        1 GP8     -0.143500
     23 C17        11.3890    7.3650    6.7170 ca        1 GP8     -0.112500
     24 C18        11.5220    7.4390    5.3300 ca        1 GP8     -0.134000
     25 C19        11.2290    6.3290    4.5360 ca        1 GP8     -0.112500
     26 C20        10.8030    5.1380    5.1210 ca        1 GP8     -0.143500
     27 HN11       -0.2520    0.8300    0.0450 hn        1 GP8      0.453467
     28 HN12       -0.7620   -0.4990    0.9010 hn        1 GP8      0.453467
     29 HN2         0.8220   -1.5560   -2.0510 hn        1 GP8      0.460400
     30 H3          3.3040    0.5730   -0.0180 ha        1 GP8      0.144000
     31 H4          4.6890    0.9510    1.9790 ha        1 GP8      0.177500
     32 H6          1.9170   -1.5040    4.3140 ha        1 GP8      0.177500
     33 H7          0.5540   -1.8570    2.3060 ha        1 GP8      0.144000
     34 HN3         3.8690   -0.6350    5.2530 hn        1 GP8      0.328500
     35 HN4         5.8370   -0.0020    6.4090 hn        1 GP8      0.317500
     36 H10         6.2670    3.4400    5.1380 ha        1 GP8      0.149500
     37 H11         8.2520    4.8100    5.7150 ha        1 GP8      0.160500
     38 H13        10.0480    1.4180    7.7300 ha        1 GP8      0.160500
     39 H14         8.0730    0.0240    7.1660 ha        1 GP8      0.149500
     40 H16        10.8560    6.1100    8.4160 ha        1 GP8      0.149000
     41 H17        11.6240    8.2420    7.3400 ha        1 GP8      0.140000
     42 H18        11.8610    8.3740    4.8610 ha        1 GP8      0.140000
     43 H19        11.3400    6.3890    3.4430 ha        1 GP8      0.140000
     44 H20        10.5740    4.2550    4.5080 ha        1 GP8      0.149000
     45 H131       -1.0390   -0.4110   -0.7410 hn        1 GP8      0.453467
@<TRIPOS>BOND
     1    1    3 1   
     2    1   27 1   
     3    1   28 1   
     4    1   45 1   
     5    2    3 2   
     6    2   29 1   
     7    3    4 1   
     8    4    5 ar  
     9    4    9 ar  
    10    5    6 ar  
    11    5   30 1   
    12    6    7 ar  
    13    6   31 1   
    14    7    8 ar  
    15    7   10 1   
    16    8    9 ar  
    17    8   32 1   
    18    9   33 1   
    19   10   11 1   
    20   10   34 1   
    21   11   12 2   
    22   11   13 1   
    23   13   14 1   
    24   13   35 1   
    25   14   15 ar  
    26   14   19 ar  
    27   15   16 ar  
    28   15   36 1   
    29   16   17 ar  
    30   16   37 1   
    31   17   18 ar  
    32   17   20 1   
    33   18   19 ar  
    34   18   38 1   
    35   19   39 1   
    36   20   21 1   
    37   21   22 ar  
    38   21   26 ar  
    39   22   23 ar  
    40   22   40 1   
    41   23   24 ar  
    42   23   41 1   
    43   24   25 ar  
    44   24   42 1   
    45   25   26 ar  
    46   25   43 1   
    47   26   44 1   
@<TRIPOS>SUBSTRUCTURE
     1 GP8         1 TEMP              0 ****  ****    0 ROOT
