@<TRIPOS>MOLECULE
GP8
   47    49     1     0     0
SMALL
bcc


@<TRIPOS>ATOM
      1 N1          1.1670   -2.1040   -0.4300 n4        1 GP8     -0.874600
      2 N2          0.4590   -2.7370    1.8700 n2        1 GP8     -0.630100
      3 C1          1.1490   -2.0220    1.0850 ce        1 GP8      0.581800
      4 C2          2.0710   -0.9710    1.6180 ca        1 GP8     -0.120900
      5 C3          1.8270    0.3840    1.3730 ca        1 GP8     -0.059000
      6 C4          2.6190    1.3610    1.9800 ca        1 GP8     -0.079500
      7 C5          3.6590    0.9670    2.8420 ca        1 GP8     -0.041400
      8 C6          3.9140   -0.3950    3.0860 ca        1 GP8     -0.079500
      9 C7          3.1150   -1.3590    2.4690 ca        1 GP8     -0.059000
     10 N3          4.5170    1.9900    3.4710 n4        1 GP8     -0.508200
     11 C8          3.7730    2.8170    4.4880 c         1 GP8      0.463100
     12 O1          2.6970    3.3170    4.2070 o         1 GP8     -0.308100
     13 N4          4.4190    3.0440    5.8300 n4        1 GP8     -0.447200
     14 C9          5.8630    2.9790    5.8130 ca        1 GP8     -0.274400
     15 C10         6.6210    4.1670    5.6390 ca        1 GP8     -0.053000
     16 C11         7.9910    4.1340    5.7790 ca        1 GP8     -0.169000
     17 C12         8.6480    2.9200    6.1020 ca        1 GP8      0.274100
     18 C13         7.8820    1.7220    6.2670 ca        1 GP8     -0.169000
     19 C14         6.5170    1.7560    6.1350 ca        1 GP8     -0.053000
     20 O2          9.9720    2.7770    6.2770 os        1 GP8     -0.166200
     21 C15        10.7880    3.9320    6.2180 ca        1 GP8     -0.008900
     22 C16        10.8760    4.7670    7.3380 ca        1 GP8     -0.114500
     23 C17        11.8250    5.7880    7.3220 ca        1 GP8     -0.104500
     24 C18        12.6600    5.9580    6.2140 ca        1 GP8     -0.079000
     25 C19        12.5550    5.1090    5.1100 ca        1 GP8     -0.104500
     26 C20        11.6130    4.0800    5.0980 ca        1 GP8     -0.114500
     27 HN11        0.3720   -2.6490   -0.7930 hn        1 GP8      0.475800
     28 HN12        2.0370   -2.5560   -0.7390 hn        1 GP8      0.475800
     29 HN2        -0.1830   -3.4530    1.5930 hn        1 GP8      0.502400
     30 H3          0.9910    0.7120    0.7270 ha        1 GP8      0.196500
     31 H4          2.3940    2.4280    1.7860 ha        1 GP8      0.189000
     32 H6          4.7310   -0.7330    3.7490 ha        1 GP8      0.189000
     33 H7          3.3050   -2.4290    2.6810 ha        1 GP8      0.196500
     34 HN3         4.8480    2.6390    2.7320 hn        1 GP8      0.503800
     35 HN4         4.0400    2.3360    6.4870 hn        1 GP8      0.512800
     36 H10         6.1290    5.1310    5.4140 ha        1 GP8      0.159500
     37 H11         8.5920    5.0570    5.6630 ha        1 GP8      0.212000
     38 H13         8.4150    0.7900    6.5340 ha        1 GP8      0.212000
     39 H14         5.9380    0.8370    6.3310 ha        1 GP8      0.159500
     40 H16        10.2370    4.6030    8.2170 ha        1 GP8      0.154000
     41 H17        11.9260    6.4520    8.1970 ha        1 GP8      0.171500
     42 H18        13.4160    6.7630    6.2170 ha        1 GP8      0.174000
     43 H19        13.2290    5.2410    4.2470 ha        1 GP8      0.171500
     44 H20        11.5430    3.3860    4.2480 ha        1 GP8      0.154000
     45 H131        1.1230   -1.1610   -0.8320 hn        1 GP8      0.475800
     46 H32         5.3460    1.5370    3.9000 hn        1 GP8      0.503800
     47 H42         4.1120    3.9870    6.1500 hn        1 GP8      0.512800
@<TRIPOS>BOND
     1    1    3 1   
     2    1   27 1   
     3    1   28 1   
     4    1   45 1   
     5    2    3 2   
     6    2   29 1   
     7    3    4 1   
     8    4    5 ar  
     9    4    9 ar  
    10    5    6 ar  
    11    5   30 1   
    12    6    7 ar  
    13    6   31 1   
    14    7    8 ar  
    15    7   10 1   
    16    8    9 ar  
    17    8   32 1   
    18    9   33 1   
    19   10   11 1   
    20   10   34 1   
    21   10   46 1   
    22   11   12 2   
    23   11   13 1   
    24   13   14 1   
    25   13   35 1   
    26   13   47 1   
    27   14   15 ar  
    28   14   19 ar  
    29   15   16 ar  
    30   15   36 1   
    31   16   17 ar  
    32   16   37 1   
    33   17   18 ar  
    34   17   20 1   
    35   18   19 ar  
    36   18   38 1   
    37   19   39 1   
    38   20   21 1   
    39   21   22 ar  
    40   21   26 ar  
    41   22   23 ar  
    42   22   40 1   
    43   23   24 ar  
    44   23   41 1   
    45   24   25 ar  
    46   24   42 1   
    47   25   26 ar  
    48   25   43 1   
    49   26   44 1   
@<TRIPOS>SUBSTRUCTURE
     1 GP8         1 TEMP              0 ****  ****    0 ROOT
