@<TRIPOS>MOLECULE
GP8
   44    39     1     0     0
SMALL
bcc


@<TRIPOS>ATOM
      1 N1         -4.7640   -3.8490   -5.4630 n3        1 GP8     -0.395000
      2 N2         -3.9060   -1.7200   -6.0100 n1        1 GP8     -0.293000
      3 C1         -4.0240   -2.6850   -5.1370 c2        1 GP8      0.129000
      4 C2         -3.3720   -2.5600   -3.7780 c2        1 GP8     -0.081000
      5 C3         -2.0110   -2.7820   -3.6410 c2        1 GP8     -0.068000
      6 C4         -1.4240   -2.7340   -2.3860 c1        1 GP8     -0.145000
      7 C5         -2.1990   -2.4650   -1.2680 c1        1 GP8      0.083000
      8 C6         -3.5600   -2.2440   -1.4060 c1        1 GP8     -0.188000
      9 C7         -4.1470   -2.2910   -2.6610 c1        1 GP8     -0.085000
     10 N3         -1.6230   -2.5480    0.0280 n         1 GP8     -0.321000
     11 C8         -0.7960   -1.4970    0.5070 c2        1 GP8      0.395000
     12 O1         -0.5800   -0.5270   -0.1930 o         1 GP8     -0.367000
     13 N4         -0.2600   -1.5590    1.8200 n         1 GP8     -0.312000
     14 C9          0.5260   -0.4890    2.3150 c2        1 GP8      0.046000
     15 C10         0.0860    0.2460    3.4050 c2        1 GP8     -0.158000
     16 C11         0.9030    1.2160    3.9630 c1        1 GP8     -0.119000
     17 C12         2.1620    1.4510    3.4320 c1        1 GP8      0.041000
     18 C13         2.6020    0.7170    2.3430 c1        1 GP8     -0.150000
     19 C14         1.7850   -0.2530    1.7840 c1        1 GP8     -0.109000
     20 O2          3.0140    2.3920    4.0360 os        1 GP8     -0.159000
     21 C15         3.4660    3.3030    3.0670 c2        1 GP8      0.060000
     22 C16         4.8120    3.3580    2.7430 c2        1 GP8     -0.144000
     23 C17         5.2650    4.2840    1.8170 c1        1 GP8     -0.109000
     24 C18         4.3710    5.1560    1.2150 c1        1 GP8     -0.128000
     25 C19         3.0250    5.1010    1.5390 c1        1 GP8     -0.128000
     26 C20         2.5720    4.1750    2.4650 c1        1 GP8     -0.175000
     27 HN11       -5.2800   -3.8650   -6.2170 hn        1 GP8      0.192000
     28 HN12       -4.7150   -4.5870   -4.9270 hn        1 GP8      0.192000
     29 HN2        -4.3000   -1.7960   -6.8310 DU        1 GP8      0.138000
     30 H3         -1.4650   -2.9710   -4.4280 ha        1 GP8      0.152000
     31 H4         -0.4660   -2.8900   -2.2890 ha        1 GP8      0.172000
     32 H6         -4.1060   -2.0540   -0.6190 ha        1 GP8      0.131000
     33 H7         -5.1060   -2.1350   -2.7580 ha        1 GP8      0.145000
     34 HN3        -1.7910   -3.2720    0.5560 hn        1 GP8      0.224000
     35 HN4        -0.4380   -2.2770    2.3510 hn        1 GP8      0.220000
     36 H10        -0.8000    0.0800    3.7790 ha        1 GP8      0.133000
     37 H11         0.5930    1.7330    4.7300 ha        1 GP8      0.152000
     38 H13         3.4880    0.8830    1.9690 ha        1 GP8      0.153000
     39 H14         2.0950   -0.7700    1.0170 ha        1 GP8      0.172000
     40 H16         5.4420    2.7440    3.1670 ha        1 GP8      0.150000
     41 H17         6.2140    4.3230    1.5890 ha        1 GP8      0.135000
     42 H18         4.6900    5.8090    0.5630 ha        1 GP8      0.135000
     43 H19         2.3960    5.7150    1.1150 ha        1 GP8      0.135000
     44 H20         1.6240    4.1360    2.6930 ha        1 GP8      0.149000
@<TRIPOS>BOND
     1    1    3 1   
     2    1   27 1   
     3    1   28 1   
     4    2    3 1   
     5    3    4 1   
     6    4    5 1   
     7    4    9 1   
     8    5    6 1   
     9    5   30 1   
    10    6   31 1   
    11    7    8 1   
    12    7   10 1   
    13    8   32 1   
    14    9   33 1   
    15   10   11 1   
    16   10   34 1   
    17   11   12 1   
    18   11   13 1   
    19   13   14 1   
    20   13   35 1   
    21   14   15 1   
    22   14   19 1   
    23   15   16 1   
    24   15   36 1   
    25   16   37 1   
    26   17   18 1   
    27   17   20 1   
    28   18   38 1   
    29   19   39 1   
    30   20   21 1   
    31   21   22 1   
    32   21   26 1   
    33   22   23 1   
    34   22   40 1   
    35   23   41 1   
    36   24   25 1   
    37   24   42 1   
    38   25   43 1   
    39   26   44 1   
@<TRIPOS>SUBSTRUCTURE
     1 GP8         1 TEMP              0 ****  ****    0 ROOT
