@<TRIPOS>MOLECULE
GP9
   17    16     1     0     0
SMALL
bcc


@<TRIPOS>ATOM
      1 C2         -1.8590   -0.0570   -0.8790 c3        1 GP9      0.072400
      2 C3         -0.3470   -0.0570   -0.8790 c3        1 GP9      0.080100
      3 C4          0.1570   -0.0570    0.5460 c3        1 GP9      0.210400
      4 O2         -2.3290   -0.1010   -2.2080 oh        1 GP9     -0.660800
      5 O3          0.1230    1.0930   -1.5430 oh        1 GP9     -0.667800
      6 O4          1.5630    0.0300    0.5470 os        1 GP9     -0.566200
      7 P1          2.3230   -0.0770    1.9290 p5        1 GP9      1.314900
      8 O8          1.8290    1.0040    2.8600 o         1 GP9     -0.928500
      9 O9          2.0610   -1.4300    2.5440 o         1 GP9     -0.928500
     10 O10         3.8070    0.0940    1.7010 o         1 GP9     -0.928500
     11 H21        -2.1840    0.7550   -0.4460 h1        1 GP9      0.084200
     12 H22        -2.1840   -0.8380   -0.3930 h1        1 GP9      0.084200
     13 H3         -0.0210   -0.8540   -1.3390 h1        1 GP9     -0.001300
     14 HA         -3.2130   -0.1830   -2.2070 ho        1 GP9      0.399000
     15 H41        -0.1180   -0.8820    0.9890 h1        1 GP9     -0.005300
     16 H42        -0.2160    0.7080    1.0240 h1        1 GP9     -0.005300
     17 HB          0.6070    0.8510   -2.2460 ho        1 GP9      0.447000
@<TRIPOS>BOND
     1    1    2 1   
     2    1    4 1   
     3    1   11 1   
     4    1   12 1   
     5    2    3 1   
     6    2    5 1   
     7    2   13 1   
     8    3    6 1   
     9    3   15 1   
    10    3   16 1   
    11    4   14 1   
    12    5   17 1   
    13    6    7 1   
    14    7    8 1   
    15    7    9 1   
    16    7   10 1   
@<TRIPOS>SUBSTRUCTURE
     1 GP9         1 TEMP              0 ****  ****    0 ROOT
