@<TRIPOS>MOLECULE
GP9
   17    16     1     0     0
SMALL
bcc


@<TRIPOS>ATOM
      1 C2          0.7940    0.8030   -0.1740 c3        1 GP9      0.145400
      2 C3          1.6710   -0.4290   -0.4240 c3        1 GP9      0.078100
      3 C4          2.2410   -1.0340    0.8800 c3        1 GP9      0.205400
      4 O2         -0.2890    0.5210    0.6800 oh        1 GP9     -0.685800
      5 O3          2.7290   -0.0560   -1.3010 oh        1 GP9     -0.665800
      6 O4          3.2550   -0.2530    1.3710 os        1 GP9     -0.574200
      7 P1          2.9600    0.3250    2.9930 p5        1 GP9      1.329900
      8 O8          1.5730    0.8960    2.7840 o         1 GP9     -0.931500
      9 O9          3.0020   -0.9420    3.7980 o         1 GP9     -0.931500
     10 O10         4.0710    1.3120    3.1900 o         1 GP9     -0.931500
     11 H21         0.3360    1.1400   -1.1450 h1        1 GP9      0.020700
     12 H22         1.4280    1.6270    0.2470 h1        1 GP9      0.020700
     13 H3          1.0840   -1.2070   -0.9850 h1        1 GP9      0.006700
     14 HA          0.0690    0.5550    1.5960 ho        1 GP9      0.490000
     15 H41         2.6420   -2.0570    0.6040 h1        1 GP9     -0.003300
     16 H42         1.4080   -1.1570    1.6260 h1        1 GP9     -0.003300
     17 HB          3.4390    0.2710   -0.7240 ho        1 GP9      0.433000
@<TRIPOS>BOND
     1    1    2 1   
     2    1    4 1   
     3    1   11 1   
     4    1   12 1   
     5    2    3 1   
     6    2    5 1   
     7    2   13 1   
     8    3    6 1   
     9    3   15 1   
    10    3   16 1   
    11    4   14 1   
    12    5   17 1   
    13    6    7 1   
    14    7    8 1   
    15    7    9 1   
    16    7   10 1   
@<TRIPOS>SUBSTRUCTURE
     1 GP9         1 TEMP              0 ****  ****    0 ROOT
