@<TRIPOS>MOLECULE
GP9
   17    16     1     0     0
SMALL
bcc


@<TRIPOS>ATOM
      1 C2          2.6910    0.1480   -0.7230 c3        1 GP9      0.145400
      2 C3          2.1330    0.2330    0.7020 c3        1 GP9      0.078100
      3 C4          0.7830   -0.5040    0.8630 c3        1 GP9      0.205400
      4 O2          2.8730   -1.1830   -1.1440 oh        1 GP9     -0.685800
      5 O3          1.9910    1.6070    1.0480 oh        1 GP9     -0.665800
      6 O4         -0.2310    0.2160    0.2860 os        1 GP9     -0.574200
      7 P1         -1.0830   -0.6640   -0.9600 p5        1 GP9      1.329900
      8 O8          0.1100   -1.1160   -1.7770 o         1 GP9     -0.931500
      9 O9         -1.7570   -1.7550   -0.1790 o         1 GP9     -0.931500
     10 O10        -1.9510    0.3970   -1.5670 o         1 GP9     -0.931500
     11 H21         2.0030    0.6960   -1.4200 h1        1 GP9      0.020700
     12 H22         3.7120    0.6190   -0.7540 h1        1 GP9      0.020700
     13 H3          2.8840   -0.1780    1.4310 h1        1 GP9      0.006700
     14 HA          1.9890   -1.4990   -1.4410 ho        1 GP9      0.490000
     15 H41         0.8690   -1.5350    0.4210 h1        1 GP9     -0.003300
     16 H42         0.6040   -0.5960    1.9780 h1        1 GP9     -0.003300
     17 HB          1.1050    1.8600    0.7400 ho        1 GP9      0.433000
@<TRIPOS>BOND
     1    1    2 1   
     2    1    4 1   
     3    1   11 1   
     4    1   12 1   
     5    2    3 1   
     6    2    5 1   
     7    2   13 1   
     8    3    6 1   
     9    3   15 1   
    10    3   16 1   
    11    4   14 1   
    12    5   17 1   
    13    6    7 1   
    14    7    8 1   
    15    7    9 1   
    16    7   10 1   
@<TRIPOS>SUBSTRUCTURE
     1 GP9         1 TEMP              0 ****  ****    0 ROOT
