@<TRIPOS>MOLECULE
GPA
   22    19     1     0     0
SMALL
bcc


@<TRIPOS>ATOM
      1 N        -122.7920 -314.3920  508.1540 n4        1 GPA     -0.715400
      2 CA       -123.6280 -315.5820  508.2040 c2        1 GPA     -0.144000
      3 C        -119.6030 -312.8440  506.3300 c1        1 GPA      0.925000
      4 OA1      -118.6690 -312.3750  505.7830 o         1 GPA     -0.461500
      5 OA2      -120.5530 -313.3210  506.8880 o         1 GPA     -0.461500
      6 CD       -123.1830 -316.7910  508.5580 c2        1 GPA     -0.099000
      7 NE        148.9960  381.1250 -611.1710 nh        1 GPA     -0.951800
      8 CZ        150.1090  380.3280 -611.5010 c2        1 GPA      0.702100
      9 NH1       150.4320  380.4020 -612.9940 n4        1 GPA     -0.823600
     10 NH2       150.8460  379.4970 -610.8520 n2        1 GPA     -0.747100
     11 HN1      -121.8200 -314.5940  508.4230 hn        1 GPA      0.468133
     12 HN2      -123.1690 -313.6770  508.7860 hn        1 GPA      0.468133
     13 HA       -124.6780 -315.3710  507.9140 hx        1 GPA      0.205000
     14 HCD1     -123.8790 -317.6500  508.5730 ha        1 GPA      0.173000
     15 HCD2     -122.1470 -317.0240  508.8490 ha        1 GPA      0.173000
     16 HNE1      149.1190  382.1130 -611.2310 hn        1 GPA      0.450800
     17 HN11      149.5870  380.1720 -613.5300 hn        1 GPA      0.477800
     18 HN12      151.1780  379.7320 -613.2270 hn        1 GPA      0.477800
     19 HN21      150.7220  379.3980 -609.8650 hn        1 GPA      0.486400
     20 HN3      -122.7760 -314.0140  507.1950 hn        1 GPA      0.468133
     21 HE3       148.4800  380.8140 -610.3740 hn        1 GPA      0.450800
     22 HH13      150.7400  381.3490 -613.2310 hn        1 GPA      0.477800
@<TRIPOS>BOND
     1    1    2 1   
     2    1   11 1   
     3    1   12 1   
     4    1   20 1   
     5    2    6 2   
     6    2   13 1   
     7    3    4 2   
     8    3    5 2   
     9    6   14 1   
    10    6   15 1   
    11    7    8 1   
    12    7   16 1   
    13    7   21 1   
    14    8    9 1   
    15    8   10 2   
    16    9   17 1   
    17    9   18 1   
    18    9   22 1   
    19   10   19 1   
@<TRIPOS>SUBSTRUCTURE
     1 GPA         1 TEMP              0 ****  ****    0 ROOT
