@<TRIPOS>MOLECULE
GPA
   19    17     1     0     0
SMALL
bcc


@<TRIPOS>ATOM
      1 N          -1.6590   -0.8330    1.7490 n3        1 GPA     -0.896800
      2 CA         -0.3960   -1.0120    1.1320 c3        1 GPA      0.004500
      3 C           0.6470   -1.3830    2.1960 c         1 GPA      0.893600
      4 OA1         1.4520   -2.3460    1.9900 o         1 GPA     -0.834800
      5 OA2         0.7400   -0.7070    3.2390 o         1 GPA     -0.834800
      6 CD          0.0160    0.2650    0.4500 c3        1 GPA      0.185800
      7 NE          0.1100    0.0430   -0.9830 nh        1 GPA     -0.774000
      8 CZ          0.6250    1.0670   -1.8290 c2        1 GPA      0.316000
      9 NH1        -0.2730    1.8080   -2.7020 nh        1 GPA     -0.814600
     10 NH2         1.9470    1.3500   -1.8210 n1        1 GPA     -0.386000
     11 HN1        -1.9070   -1.6190    2.1800 hn        1 GPA      0.336800
     12 HN2        -2.2850   -0.6240    1.1090 hn        1 GPA      0.336800
     13 HA         -0.4550   -1.7260    0.4740 h1        1 GPA      0.043700
     14 HCD1       -0.6460    0.9540    0.6280 h1        1 GPA      0.055700
     15 HCD2        0.8900    0.5540    0.7950 h1        1 GPA      0.055700
     16 HNE1       -0.2280   -0.7170   -1.3470 hn        1 GPA      0.408800
     17 HN11       -1.1570    1.5640   -2.7640 hn        1 GPA      0.373800
     18 HN12        0.0570    2.4880   -3.2340 hn        1 GPA      0.373800
     19 HN21        2.5220    0.8750   -1.2620 DU        1 GPA      0.154000
@<TRIPOS>BOND
     1    1    2 1   
     2    1   11 1   
     3    1   12 1   
     4    2    3 1   
     5    2    6 1   
     6    2   13 1   
     7    3    4 1   
     8    3    5 1   
     9    6    7 1   
    10    6   14 1   
    11    6   15 1   
    12    7    8 1   
    13    7   16 1   
    14    8    9 1   
    15    8   10 2   
    16    9   17 1   
    17    9   18 1   
@<TRIPOS>SUBSTRUCTURE
     1 GPA         1 TEMP              0 ****  ****    0 ROOT
