@<TRIPOS>MOLECULE
GPA
   22    19     1     0     0
SMALL
bcc


@<TRIPOS>ATOM
      1 N         -60.3140 -156.5770  239.4820 nz        1 GPA     -0.715400
      2 CA        -61.7650 -156.6970  239.4340 c2        1 GPA     -0.144000
      3 C         -57.1020 -156.0570  237.1800 c1        1 GPA      0.925000
      4 OA1       -56.1470 -155.9190  236.5020 o         1 GPA     -0.461500
      5 OA2       -58.0740 -156.1970  237.8700 o         1 GPA     -0.461500
      6 CD        -62.5770 -155.7300  238.9980 c2        1 GPA     -0.099000
      7 NE         76.4640  189.1790 -288.5790 nv        1 GPA     -0.951800
      8 CZ         75.4260  190.0900 -288.8550 c2        1 GPA      0.702100
      9 NH1        75.9650  191.4040 -289.4240 nz        1 GPA     -0.823600
     10 NH2        74.1550  190.0950 -288.6550 n2        1 GPA     -0.747100
     11 HN1       -59.8830 -157.2990  238.8880 hn        1 GPA      0.468133
     12 HN2       -59.9920 -155.6620  239.1410 hn        1 GPA      0.468133
     13 HA        -62.1180 -157.6830  239.7990 hx        1 GPA      0.205000
     14 HCD1      -63.6700 -155.8940  238.9900 ha        1 GPA      0.173000
     15 HCD2      -62.2500 -154.7450  238.6300 ha        1 GPA      0.173000
     16 HNE1       76.2660  188.5270 -287.8490 hn        1 GPA      0.450800
     17 HN11       76.3820  191.2330 -290.3430 hn        1 GPA      0.477800
     18 HN12       76.6800  191.7740 -288.7860 hn        1 GPA      0.477800
     19 HN21       73.7100  189.2720 -288.3050 hn        1 GPA      0.486400
     20 HN3       -59.9890 -156.7050  240.4470 hn        1 GPA      0.468133
     21 HE3        76.9440  188.7970 -289.3640 hn        1 GPA      0.450800
     22 HH13       75.2010  192.0880 -289.5170 hn        1 GPA      0.477800
@<TRIPOS>BOND
     1    1    2 1   
     2    1   11 1   
     3    1   12 1   
     4    1   20 1   
     5    2    6 2   
     6    2   13 1   
     7    3    4 2   
     8    3    5 2   
     9    6   14 1   
    10    6   15 1   
    11    7    8 1   
    12    7   16 1   
    13    7   21 1   
    14    8    9 1   
    15    8   10 2   
    16    9   17 1   
    17    9   18 1   
    18    9   22 1   
    19   10   19 1   
@<TRIPOS>SUBSTRUCTURE
     1 GPA         1 TEMP              0 ****  ****    0 ROOT
