@<TRIPOS>MOLECULE
GPA
   19    18     1     0     0
SMALL
bcc


@<TRIPOS>ATOM
      1 N           0.9430    1.9550   -0.0970 n3        1 GPA     -0.895800
      2 CA          0.9970    0.5730    0.3550 c3        1 GPA      0.007500
      3 C           2.2410   -0.2350   -0.1530 c         1 GPA      0.891600
      4 OA1         2.2400   -1.4830    0.0270 o         1 GPA     -0.836800
      5 OA2         3.1790    0.4170   -0.6920 o         1 GPA     -0.836800
      6 CD         -0.2570   -0.2340   -0.0360 c3        1 GPA      0.184800
      7 NE         -1.4780    0.2550    0.5730 nh        1 GPA     -0.808200
      8 CZ         -2.7270   -0.1940    0.0570 c2        1 GPA      0.754100
      9 NH1        -2.7820   -1.5070   -0.5380 nh        1 GPA     -0.932800
     10 NH2        -3.7830    0.5880    0.1640 n2        1 GPA     -0.908100
     11 HN1         1.8420    2.3660    0.0920 hn        1 GPA      0.336300
     12 HN2         0.8360    1.9590   -1.0970 hn        1 GPA      0.336300
     13 HA          1.0760    0.5990    1.4810 h1        1 GPA      0.052700
     14 HCD1       -0.3330   -0.2560   -1.1620 h1        1 GPA      0.050200
     15 HCD2       -0.0740   -1.2890    0.3240 h1        1 GPA      0.050200
     16 HNE1       -1.4610    1.2390    0.7600 hn        1 GPA      0.425800
     17 HN11       -3.5020   -2.0680   -0.1370 hn        1 GPA      0.380800
     18 HN12       -1.9120   -1.9970   -0.5550 hn        1 GPA      0.380800
     19 HN21       -4.6410    0.1650   -0.1150 hn        1 GPA      0.368400
@<TRIPOS>BOND
     1    1    2 1   
     2    1   11 1   
     3    1   12 1   
     4    2    3 1   
     5    2    6 1   
     6    2   13 1   
     7    3    4 1   
     8    3    5 1   
     9    6    7 1   
    10    6   14 1   
    11    6   15 1   
    12    7    8 1   
    13    7   16 1   
    14    8    9 1   
    15    8   10 2   
    16    9   17 1   
    17    9   18 1   
    18   10   19 1   
@<TRIPOS>SUBSTRUCTURE
     1 GPA         1 TEMP              0 ****  ****    0 ROOT
