@<TRIPOS>MOLECULE
GPB
   52    44     1     0     0
SMALL
bcc


@<TRIPOS>ATOM
      1 N1         -2.2330   -0.2820   -7.0850 n1        1 GPB     -0.245000
      2 C2         -1.5070    0.5430   -7.9180 c1        1 GPB      0.130000
      3 NA2        -1.9210    0.5540   -9.2790 n2        1 GPB     -0.305000
      4 N3         -0.4270    1.2180   -7.4360 n2        1 GPB     -0.247000
      5 C4         -0.0640    1.0810   -6.1390 c1        1 GPB      0.108000
      6 C5          0.8980    2.2880   -6.3880 c2        1 GPB     -0.185000
      7 C4A        -0.7880    0.2560   -5.3030 c1        1 GPB     -0.202000
      8 C6         -0.7160    0.0320   -3.9320 c1        1 GPB     -0.080000
      9 C7         -1.7690   -0.7930   -3.5800 c1        1 GPB     -0.101000
     10 N8         -2.4830   -1.0760   -4.7120 n2        1 GPB     -0.205000
     11 C8A        -1.8710   -0.4220   -5.7860 c1        1 GPB      0.077000
     12 C9          0.0030    0.4990   -2.6260 c2        1 GPB     -0.107000
     13 C10         0.9360   -0.5930   -2.1470 c3        1 GPB     -0.105000
     14 C11         1.5140   -0.4070    2.1760 c1        1 GPB     -0.107000
     15 C12         0.2290   -0.2950    1.6380 c1        1 GPB     -0.115000
     16 C13         0.0460   -0.3170    0.2590 c1        1 GPB     -0.115000
     17 C14         1.1560   -0.4540   -0.5990 c1        1 GPB     -0.104000
     18 C15         2.4350   -0.5660   -0.0670 c1        1 GPB     -0.161000
     19 C16         2.6180   -0.5430    1.3280 c1        1 GPB     -0.101000
     20 C           1.7120   -0.4100    3.7160 c2        1 GPB      0.332000
     21 O           2.8370   -0.5070    4.1850 o         1 GPB     -0.416000
     22 N           0.5920   -0.1290    4.5880 n         1 GPB     -0.295000
     23 CA          0.7440   -0.2620    6.0030 c3        1 GPB     -0.063000
     24 CB         -0.5230    0.2070    6.6980 c3        1 GPB     -0.153000
     25 CG         -0.2650    0.3380    8.1940 c3        1 GPB     -0.219000
     26 CD         -1.5530    0.1360    8.9420 c2        1 GPB      0.328000
     27 OE1        -1.8240   -0.9900    9.4310 o         1 GPB     -0.609500
     28 OE2        -2.3130    1.0830    9.1240 o         1 GPB     -0.609500
     29 CT          0.9990   -1.6980    6.3420 c2        1 GPB      0.337000
     30 O1          0.2770   -2.5950    5.8410 o         1 GPB     -0.586000
     31 O2          2.0080   -2.0100    7.0080 o         1 GPB     -0.586000
     32 HA22       -1.5060    1.0950   -9.8750 hn        1 GPB      0.195000
     33 HA21       -2.5930   -0.0120   -9.5610 hn        1 GPB      0.195000
     34 H53         1.4410    2.4360   -5.5980 ha        1 GPB      0.103333
     35 H52         0.3830    3.0750   -6.5720 ha        1 GPB      0.103333
     36 H51         1.4680    2.0950   -7.1370 ha        1 GPB      0.103333
     37 H7         -1.9530   -1.1290   -2.6970 DU        1 GPB      0.216000
     38 H8         -3.2410   -1.6100   -4.7590 DU        1 GPB      0.216000
     39 H91         0.5240    1.3220   -2.8130 ha        1 GPB      0.100500
     40 H92        -0.6520    0.6810   -1.9480 ha        1 GPB      0.100500
     41 H101        0.5430   -1.4630   -2.3410 hc        1 GPB      0.076000
     42 H102        1.8080   -0.5130   -2.6150 hc        1 GPB      0.076000
     43 H12        -0.5200   -0.1360    2.2190 ha        1 GPB      0.184500
     44 H13        -0.8660   -0.2380   -0.1220 ha        1 GPB      0.184500
     45 H15         3.1750   -0.7780   -0.6440 ha        1 GPB      0.103000
     46 H16         3.5280   -0.6230    1.7110 ha        1 GPB      0.132000
     47 H          -0.2290    0.0660    4.2300 hn        1 GPB      0.224000
     48 HA1         1.5130    0.2920    6.3070 h1        1 GPB      0.106000
     49 HB2        -1.2390   -0.4450    6.5460 hc        1 GPB      0.085000
     50 HB1        -0.7930    1.0810    6.3350 hc        1 GPB      0.085000
     51 HG2         0.0930    1.2390    8.3890 hc        1 GPB      0.063000
     52 HG1         0.3690   -0.3200    8.4670 hc        1 GPB      0.063000
@<TRIPOS>BOND
     1    1    2 1   
     2    2    4 1   
     3    3   32 1   
     4    3   33 1   
     5    4    5 1   
     6    5    7 1   
     7    6   34 1   
     8    6   35 1   
     9    6   36 1   
    10    7   11 1   
    11    8    9 1   
    12    9   10 1   
    13   10   11 1   
    14   12   13 1   
    15   12   39 1   
    16   12   40 1   
    17   13   17 1   
    18   13   41 1   
    19   13   42 1   
    20   14   19 1   
    21   14   20 1   
    22   15   16 1   
    23   15   43 1   
    24   16   44 1   
    25   17   18 1   
    26   18   45 1   
    27   19   46 1   
    28   20   21 1   
    29   20   22 1   
    30   22   23 1   
    31   22   47 1   
    32   23   24 1   
    33   23   29 1   
    34   23   48 1   
    35   24   25 1   
    36   24   49 1   
    37   24   50 1   
    38   25   26 1   
    39   25   51 1   
    40   25   52 1   
    41   26   27 1   
    42   26   28 1   
    43   29   30 1   
    44   29   31 1   
@<TRIPOS>SUBSTRUCTURE
     1 GPB         1 TEMP              0 ****  ****    0 ROOT
