@<TRIPOS>MOLECULE
GPB
   52    54     1     0     0
SMALL
bcc


@<TRIPOS>ATOM
      1 N1          0.3780    0.3920   -7.8460 nb        1 GPB     -0.776000
      2 C2          1.7040    0.6210   -7.5530 ca        1 GPB      0.857900
      3 NA2         2.5710    0.8570   -8.6450 nh        1 GPB     -0.911500
      4 N3          2.2720    0.7060   -6.2780 nb        1 GPB     -0.770000
      5 C4          1.4630    0.5950   -5.2110 ca        1 GPB      0.537600
      6 C5          2.0490    0.7010   -3.8390 c3        1 GPB     -0.164400
      7 C4A         0.0740    0.3840   -5.3650 ca        1 GPB     -0.349400
      8 C6         -1.0780    0.2140   -4.5090 cc        1 GPB     -0.069400
      9 C7         -2.1810    0.0360   -5.3450 cd        1 GPB     -0.138100
     10 N8         -1.7920    0.0730   -6.6910 na        1 GPB     -0.293100
     11 C8A        -0.4130    0.2910   -6.7380 ca        1 GPB      0.473800
     12 C9         -1.1210    0.2240   -3.0380 c3        1 GPB     -0.022200
     13 C10        -0.9570   -1.1730   -2.4550 c3        1 GPB     -0.022100
     14 C11        -1.0640   -1.0900    1.8330 ca        1 GPB     -0.104600
     15 C12        -2.1580   -1.5810    1.1130 ca        1 GPB     -0.094000
     16 C13        -2.1260   -1.6050   -0.2800 ca        1 GPB     -0.145000
     17 C14        -0.9980   -1.1450   -0.9680 ca        1 GPB     -0.105300
     18 C15         0.0990   -0.6670   -0.2430 ca        1 GPB     -0.145000
     19 C16         0.0680   -0.6360    1.1500 ca        1 GPB     -0.094000
     20 O          -1.5620   -2.1190    3.9180 o         1 GPB     -0.658100
     21 N          -0.6500    0.0180    3.9620 n         1 GPB     -0.479900
     22 CA         -0.7730    0.2840    5.3870 c3        1 GPB     -0.042300
     23 CB          0.5860    0.6130    6.0260 c3        1 GPB     -0.055400
     24 CG          1.5090   -0.5800    6.1150 c3        1 GPB     -0.182400
     25 CD          2.9480   -0.1900    6.4750 c         1 GPB      0.904600
     26 OE1         3.6090    0.5440    5.6800 o         1 GPB     -0.874800
     27 OE2         3.4520   -0.6540    7.5440 o         1 GPB     -0.874800
     28 CT         -1.7540    1.4810    5.6450 c         1 GPB      0.904600
     29 O1         -1.8970    2.3600    4.7450 o         1 GPB     -0.851800
     30 O2         -2.3700    1.4940    6.7460 o         1 GPB     -0.851800
     31 HA22        2.2700    0.4590   -9.5060 hn        1 GPB      0.404800
     32 HA21        3.5360    0.7080   -8.4440 hn        1 GPB      0.404800
     33 H53         1.7460    1.6800   -3.3900 hc        1 GPB      0.067033
     34 H52         1.6490   -0.1260   -3.1980 hc        1 GPB      0.067033
     35 H51         3.1640    0.6430   -3.8470 hc        1 GPB      0.067033
     36 H7         -3.2280   -0.1170   -5.0790 h4        1 GPB      0.170000
     37 H8         -2.3880   -0.0020   -7.4710 hn        1 GPB      0.301700
     38 H91        -0.3110    0.8910   -2.6350 hc        1 GPB      0.060200
     39 H92        -2.1020    0.6500   -2.6930 hc        1 GPB      0.060200
     40 H101       -1.7690   -1.8370   -2.8540 hc        1 GPB      0.039200
     41 H102        0.0220   -1.6060   -2.7960 hc        1 GPB      0.039200
     42 H12        -3.0350   -1.9540    1.6630 ha        1 GPB      0.157000
     43 H13        -2.9910   -1.9880   -0.8390 ha        1 GPB      0.114000
     44 H15         0.9920   -0.3110   -0.7780 ha        1 GPB      0.114000
     45 H16         0.9390   -0.2590    1.7140 ha        1 GPB      0.157000
     46 H          -0.5300    0.8470    3.4180 hn        1 GPB      0.316500
     47 HA1        -1.2000   -0.6320    5.8860 h1        1 GPB      0.069700
     48 HB2         1.0950    1.4330    5.4540 hc        1 GPB      0.050700
     49 HB1         0.3700    1.0020    7.0550 hc        1 GPB      0.050700
     50 HG2         1.1220   -1.3020    6.8780 hc        1 GPB      0.018700
     51 HG1         1.5460   -1.1140    5.1310 hc        1 GPB      0.018700
     52 C          -1.1290   -1.0930    3.3390 c         1 GPB      0.649700
@<TRIPOS>BOND
     1    1    2 ar  
     2    1   11 ar  
     3    2    3 1   
     4    2    4 ar  
     5    3   31 1   
     6    3   32 1   
     7    4    5 ar  
     8    5    6 1   
     9    5    7 ar  
    10    6   33 1   
    11    6   34 1   
    12    6   35 1   
    13    7    8 1   
    14    7   11 ar  
    15    8    9 2   
    16    8   12 1   
    17    9   10 1   
    18    9   36 1   
    19   10   11 1   
    20   10   37 1   
    21   12   13 1   
    22   12   38 1   
    23   12   39 1   
    24   13   17 1   
    25   13   40 1   
    26   13   41 1   
    27   14   15 ar  
    28   14   19 ar  
    29   14   52 1   
    30   15   16 ar  
    31   15   42 1   
    32   16   17 ar  
    33   16   43 1   
    34   17   18 ar  
    35   18   19 ar  
    36   18   44 1   
    37   19   45 1   
    38   20   52 2   
    39   21   22 1   
    40   21   46 1   
    41   21   52 1   
    42   22   23 1   
    43   22   28 1   
    44   22   47 1   
    45   23   24 1   
    46   23   48 1   
    47   23   49 1   
    48   24   25 1   
    49   24   50 1   
    50   24   51 1   
    51   25   26 1   
    52   25   27 1   
    53   28   29 1   
    54   28   30 1   
@<TRIPOS>SUBSTRUCTURE
     1 GPB         1 TEMP              0 ****  ****    0 ROOT
