@<TRIPOS>MOLECULE
GPB
   53    54     1     0     0
SMALL
bcc


@<TRIPOS>ATOM
      1 N1         -0.3200    1.6460    3.1820 n2        1 GPB     -0.225000
      2 C2          1.0230    2.0300    3.0510 c2        1 GPB      0.161000
      3 NA2         1.2670    3.3940    2.8270 nv        1 GPB     -0.312000
      4 N3          2.1130    1.1800    3.0570 n2        1 GPB     -0.234000
      5 C4          1.8800   -0.1530    3.1900 c2        1 GPB      0.100000
      6 C5          3.0470   -1.0870    3.2160 c3        1 GPB     -0.181000
      7 C4A         0.5810   -0.6470    3.3190 c2        1 GPB     -0.266000
      8 C6         -0.0250   -2.0120    3.4890 c3        1 GPB     -0.093000
      9 C7         -1.5400   -1.7150    3.5550 c1        1 GPB     -0.003000
     10 N8         -1.7320   -0.3970    3.4460 nu        1 GPB     -0.193000
     11 C8A        -0.4910    0.3210    3.3050 c2        1 GPB      0.087000
     12 C9          0.4560   -2.7260    4.6960 c2        1 GPB     -0.148000
     13 C10        -0.3410   -3.4100    5.5210 c2        1 GPB     -0.122000
     14 C11         1.1690   -2.3260    8.6920 c2        1 GPB     -0.134000
     15 C12        -0.1340   -3.0330    9.0240 c3        1 GPB     -0.207000
     16 C13        -0.6590   -3.7740    7.9020 c1        1 GPB     -0.010000
     17 C14         0.1550   -4.1490    6.7140 c3        1 GPB     -0.101000
     18 C15         1.6390   -4.0350    7.0230 c2        1 GPB     -0.144000
     19 C16         1.8990   -3.0280    7.8390 c1        1 GPB     -0.125000
     20 O           0.7010   -0.0100    9.1050 o         1 GPB     -0.241000
     21 N           2.6270   -0.9290   10.1100 ny        1 GPB     -0.103000
     22 CA          2.5570    0.0440   11.2510 c3        1 GPB     -0.169000
     23 CB          2.5800   -0.6640   12.6020 c3        1 GPB     -0.153000
     24 CG          1.3180   -1.4300   12.9220 c3        1 GPB     -0.227000
     25 CD          1.1150   -2.6950   12.0950 c2        1 GPB      0.307000
     26 OE1        -0.0600   -3.1330   11.9250 o         1 GPB     -0.588500
     27 OE2         2.1150   -3.2780   11.5550 o         1 GPB     -0.588500
     28 CT          3.7630    1.0660   11.1560 c2        1 GPB      0.342000
     29 O1          4.5420    0.9290   10.1690 o         1 GPB     -0.532500
     30 O2          3.8250    1.9340   12.0520 o         1 GPB     -0.532500
     31 HA22        2.1940    3.7000    3.0230 hn        1 GPB      0.217000
     32 HA21        0.5470    4.0140    3.1250 hn        1 GPB      0.217000
     33 H53         3.8720   -0.7380    2.5490 hc        1 GPB      0.101333
     34 H52         3.4410   -1.1510    4.2620 hc        1 GPB      0.101333
     35 H51         2.7190   -2.1050    2.8900 hc        1 GPB      0.101333
     36 H7          0.1650   -2.6470    2.5780 hc        1 GPB      0.137000
     37 H8         -2.6060    0.0730    3.4830 hn        1 GPB      0.267000
     38 H91        -4.6000    0.9850    3.3350 ha        1 GPB      0.001500
     39 H92        -4.5550    0.9780    4.0110 ha        1 GPB      0.001500
     40 H101        1.5440   -2.6500    4.8720 ha        1 GPB      0.132000
     41 H102       -1.4320   -3.4730    5.3560 ha        1 GPB      0.161000
     42 H12        -0.0050   -3.7270    9.9360 hc        1 GPB      0.226500
     43 H13        -0.8890   -2.2790    9.3920 hc        1 GPB      0.226500
     44 H15        -0.0390   -5.2540    6.5360 hc        1 GPB      0.149000
     45 H16         2.3210   -4.8330    6.7240 ha        1 GPB      0.155000
     46 H           2.8160   -1.8890   10.4970 hn        1 GPB      0.288500
     47 HA1         3.4350   -0.6260    9.5230 hn        1 GPB      0.288500
     48 HB2         1.6110    0.6460   11.1510 hx        1 GPB      0.133000
     49 HB1         2.7370    0.1470   13.3650 hc        1 GPB      0.110000
     50 HG2         3.4600   -1.3600   12.6590 hc        1 GPB      0.110000
     51 HG1         1.3510   -1.7450   13.9980 hc        1 GPB      0.084500
     52 H2          0.4210   -0.7710   12.7930 hc        1 GPB      0.084500
     53 C           1.4170   -0.9980    9.2540 c2        1 GPB      0.337000
@<TRIPOS>BOND
     1    1    2 1   
     2    1   11 1   
     3    2    3 1   
     4    2    4 1   
     5    3   31 1   
     6    3   32 1   
     7    4    5 1   
     8    5    6 1   
     9    5    7 1   
    10    6   33 1   
    11    6   34 1   
    12    6   35 1   
    13    7    8 1   
    14    7   11 1   
    15    8    9 1   
    16    8   12 1   
    17    8   36 1   
    18    9   10 1   
    19   10   11 1   
    20   10   37 1   
    21   12   13 1   
    22   12   40 1   
    23   13   17 1   
    24   13   41 1   
    25   14   15 1   
    26   14   19 1   
    27   14   53 1   
    28   15   16 1   
    29   15   42 1   
    30   15   43 1   
    31   16   17 1   
    32   17   18 1   
    33   17   44 1   
    34   18   19 1   
    35   18   45 1   
    36   20   53 1   
    37   21   22 1   
    38   21   46 1   
    39   21   47 1   
    40   21   53 1   
    41   22   23 1   
    42   22   28 1   
    43   22   48 1   
    44   23   24 1   
    45   23   49 1   
    46   23   50 1   
    47   24   25 1   
    48   24   51 1   
    49   24   52 1   
    50   25   26 1   
    51   25   27 1   
    52   28   29 1   
    53   28   30 1   
    54   38   39 1   
@<TRIPOS>SUBSTRUCTURE
     1 GPB         1 TEMP              0 ****  ****    0 ROOT
