@<TRIPOS>MOLECULE
GPB
   54    55     1     0     0
SMALL
bcc


@<TRIPOS>ATOM
      1 N1          0.7560    0.1660    0.9540 n1        1 GPB     -0.452800
      2 C2          1.8460    0.6520    1.6450 cc        1 GPB      0.169900
      3 NA2         2.8850    1.3270    0.8520 n4        1 GPB     -0.702600
      4 N3          2.1290    0.4610    2.9940 nc        1 GPB     -0.615000
      5 C4          1.1520   -0.0480    3.7220 cd        1 GPB      0.371600
      6 C5          1.4640   -0.4660    5.1240 c3        1 GPB     -0.116400
      7 C4A        -0.2040   -0.2780    3.1870 cd        1 GPB     -0.180200
      8 C6         -1.3550   -0.3120    3.8860 c2        1 GPB     -0.226200
      9 C7         -1.6270   -0.9930   -0.1200 c2        1 GPB      0.428100
     10 N8         -1.3100   -1.0670    1.1180 nf        1 GPB     -0.631000
     11 C8A        -0.2220   -0.3630    1.6940 cd        1 GPB      0.410300
     12 C9         -1.5570   -0.0710    5.3320 c3        1 GPB      0.005000
     13 C10        -1.7670   -1.3400    6.0880 c2        1 GPB     -0.158300
     14 C11        -0.0610   -1.5870    9.6990 ce        1 GPB     -0.209200
     15 C12        -1.4180   -1.5580    9.7480 cf        1 GPB      0.038000
     16 C13        -2.3260   -1.4590    8.6360 cf        1 GPB     -0.206100
     17 C14        -2.0060   -1.3930    7.3660 c1        1 GPB      0.016200
     18 C15         1.6460   -2.4160    8.1130 c2        1 GPB     -0.209000
     19 C16         0.7040   -1.5380    8.4620 ce        1 GPB     -0.151000
     20 O           0.2000   -2.0710   12.0460 o         1 GPB     -0.476100
     21 N           2.0720   -1.1760   10.9510 n4        1 GPB     -0.651800
     22 CA          2.7980   -1.1410   12.2560 c3        1 GPB     -0.069500
     23 CB          3.9570   -2.1200   12.3200 c3        1 GPB     -0.089400
     24 CG          3.5140   -3.5390   12.1590 cx        1 GPB      0.024100
     25 CD          4.2710   -4.4940   11.3680 c         1 GPB      0.716600
     26 OE1         3.1680   -3.9310   10.7610 os        1 GPB     -0.492900
     27 OE2         5.0800   -5.3000   10.9840 o         1 GPB     -0.479500
     28 CT          3.3860    0.3390   12.5080 c         1 GPB      0.939600
     29 O1          3.0850    1.1850   11.6280 o         1 GPB     -0.757300
     30 O2          4.0610    0.4560   13.5430 o         1 GPB     -0.757300
     31 HA22        3.8080    0.9900    1.1340 hn        1 GPB      0.434800
     32 HA21        2.8260    2.3320    1.0250 hn        1 GPB      0.434800
     33 H53         2.4950   -0.8920    5.2040 hc        1 GPB      0.043367
     34 H52         1.4010    0.4120    5.8150 hc        1 GPB      0.043367
     35 H51         0.7370   -1.2480    5.4550 hc        1 GPB      0.043367
     36 H7         -1.1410   -0.3950   -0.9120 h4        1 GPB     -0.016200
     37 H8         -2.4940   -1.5990   -0.4460 h4        1 GPB     -0.016200
     38 H91        -2.3030   -0.5140    3.3570 ha        1 GPB      0.138000
     39 H92        -2.4740    0.5740    5.4550 hc        1 GPB      0.058700
     40 H101       -0.7050    0.5040    5.7850 hc        1 GPB      0.058700
     41 H102       -1.7100   -2.2730    5.4950 ha        1 GPB      0.169000
     42 H12        -3.3990   -1.4340    8.9150 ha        1 GPB      0.152000
     43 H13        -1.9090   -1.6070   10.7420 ha        1 GPB      0.152000
     44 H15         1.9470   -3.2710    8.7380 ha        1 GPB      0.133500
     45 H16         2.1690   -2.3360    7.1480 ha        1 GPB      0.133500
     46 H           2.0630   -0.1790   10.6100 hn        1 GPB      0.476300
     47 HA1         2.5920   -1.7440   10.2730 hn        1 GPB      0.476300
     48 HB2         2.0660   -1.3410   13.0870 hx        1 GPB      0.114700
     49 HB1         4.4340   -1.9830   13.3330 hc        1 GPB      0.105200
     50 HG2         4.7330   -1.8560   11.5520 hc        1 GPB      0.105200
     51 HG1         2.7770   -3.9000   12.9070 h1        1 GPB      0.126700
     52 HA23        2.7350    1.1400   -0.1420 hn        1 GPB      0.434800
     53 H2          0.4130   -0.7190    7.7730 ha        1 GPB      0.151000
     54 C           0.6630   -1.6650   10.9820 c         1 GPB      0.562300
@<TRIPOS>BOND
     1    1    2 2   
     2    1   11 2   
     3    2    3 1   
     4    2    4 1   
     5    3   31 1   
     6    3   32 1   
     7    3   52 1   
     8    4    5 2   
     9    5    6 1   
    10    5    7 1   
    11    6   33 1   
    12    6   34 1   
    13    6   35 1   
    14    7    8 2   
    15    7   11 1   
    16    8   12 1   
    17    8   38 1   
    18    9   10 2   
    19    9   36 1   
    20    9   37 1   
    21   10   11 1   
    22   12   13 1   
    23   12   39 1   
    24   12   40 1   
    25   13   17 2   
    26   13   41 1   
    27   14   15 2   
    28   14   19 1   
    29   14   54 1   
    30   15   16 1   
    31   15   43 1   
    32   16   17 2   
    33   16   42 1   
    34   18   19 2   
    35   18   44 1   
    36   18   45 1   
    37   19   53 1   
    38   20   54 2   
    39   21   22 1   
    40   21   46 1   
    41   21   47 1   
    42   21   54 1   
    43   22   23 1   
    44   22   28 1   
    45   22   48 1   
    46   23   24 1   
    47   23   49 1   
    48   23   50 1   
    49   24   25 1   
    50   24   26 1   
    51   24   51 1   
    52   25   26 1   
    53   25   27 2   
    54   28   29 1   
    55   28   30 1   
@<TRIPOS>SUBSTRUCTURE
     1 GPB         1 TEMP              0 ****  ****    0 ROOT
