@<TRIPOS>MOLECULE
GPE
   26    25     1     0     0
SMALL
bcc


@<TRIPOS>ATOM
      1 P          -1.1990    1.5600    0.9610 p5        1 GPE      1.419800
      2 O11        -0.5660    1.7160   -0.5600 os        1 GPE     -0.568200
      3 O12        -0.2250    0.2940    1.4080 os        1 GPE     -0.579200
      4 O14        -2.5630    1.0160    0.8210 o         1 GPE     -0.823000
      5 O13        -0.7990    2.7330    1.7540 o         1 GPE     -0.823000
      6 C1         -0.9830    0.7830   -1.5070 c3        1 GPE      0.154400
      7 C2          0.2330   -0.0260   -1.9830 c3        1 GPE      0.078100
      8 C3         -0.1260   -0.8640   -3.2090 c3        1 GPE      0.133400
      9 O31         0.9780   -1.6100   -3.6860 oh        1 GPE     -0.619800
     10 O21         1.3030    0.8280   -2.3730 oh        1 GPE     -0.643800
     11 C11        -0.4030   -0.0210    2.7570 c3        1 GPE      0.125400
     12 C12         0.5750   -1.1320    3.1590 c3        1 GPE      0.147800
     13 N           1.9670   -0.8880    2.8610 n3        1 GPE     -0.899800
     14 H11        -1.7650    0.0970   -1.0790 h1        1 GPE      0.043700
     15 H12        -1.4110    1.3440   -2.3860 h1        1 GPE      0.043700
     16 H2          0.6030   -0.6900   -1.1510 h1        1 GPE      0.061700
     17 H31        -0.9060   -1.6250   -2.9420 h1        1 GPE      0.039200
     18 H32        -0.5060   -0.2010   -4.0320 h1        1 GPE      0.039200
     19 HO1         1.7400   -1.0160   -3.6800 ho        1 GPE      0.414000
     20 HO2         1.2930    1.5760   -1.7580 ho        1 GPE      0.439000
     21 H111       -1.4620   -0.3660    2.9130 h1        1 GPE      0.029200
     22 H112       -0.2280    0.9070    3.3720 h1        1 GPE      0.029200
     23 H121        0.2730   -2.0800    2.6340 h1        1 GPE      0.036200
     24 H122        0.4760   -1.2970    4.2690 h1        1 GPE      0.036200
     25 HN1         2.0770   -0.8100    1.8650 hn        1 GPE      0.343300
     26 HN2         2.2460   -0.0090    3.2590 hn        1 GPE      0.343300
@<TRIPOS>BOND
     1    1    2 1   
     2    1    3 1   
     3    1    4 1   
     4    1    5 1   
     5    2    6 1   
     6    3   11 1   
     7    6    7 1   
     8    6   14 1   
     9    6   15 1   
    10    7    8 1   
    11    7   10 1   
    12    7   16 1   
    13    8    9 1   
    14    8   17 1   
    15    8   18 1   
    16    9   19 1   
    17   10   20 1   
    18   11   12 1   
    19   11   21 1   
    20   11   22 1   
    21   12   13 1   
    22   12   23 1   
    23   12   24 1   
    24   13   25 1   
    25   13   26 1   
@<TRIPOS>SUBSTRUCTURE
     1 GPE         1 TEMP              0 ****  ****    0 ROOT
