@<TRIPOS>MOLECULE
GPE
   26    24     1     0     0
SMALL
bcc


@<TRIPOS>ATOM
      1 P          -0.9260    0.0200   -0.2670 p3        1 GPE      2.528000
      2 O11         0.6540    0.0200   -0.2670 o         1 GPE     -0.743000
      3 O12        -1.4530    0.0200    1.2230 os        1 GPE     -0.736000
      4 O14        -1.4300   -1.2130   -0.9790 o         1 GPE     -1.135000
      5 O13        -1.4300    1.2530   -0.9790 o         1 GPE     -1.135000
      6 C1          1.3250    0.0670   -1.5040 c3        1 GPE      0.007000
      7 C2          2.8150   -0.0560   -1.2750 c3        1 GPE     -0.034000
      8 C3          3.5290   -0.0900   -2.6070 c3        1 GPE     -0.018000
      9 O31         4.9130   -0.2580   -2.3940 oh        1 GPE     -0.347000
     10 O21         3.2670    1.0480   -0.5280 oh        1 GPE     -0.372000
     11 C11        -2.8420   -0.0550    1.4440 c3        1 GPE     -0.001000
     12 C12        -3.1210    0.0030    2.9300 c3        1 GPE     -0.118000
     13 N          -4.5220   -0.1310    3.1570 n3        1 GPE     -0.339000
     14 H11         1.1330    0.9160   -1.9460 h1        1 GPE      0.082500
     15 H12         1.0210   -0.6690   -2.0680 h1        1 GPE      0.082500
     16 H2          3.0010   -0.8790   -0.7840 h1        1 GPE      0.098000
     17 H31         3.3720    0.7480   -3.0820 h1        1 GPE      0.079500
     18 H32         3.1890   -0.8340   -3.1390 h1        1 GPE      0.079500
     19 HO1         5.3220   -0.3590   -3.1750 ho        1 GPE      0.212000
     20 HO2         3.6240    0.7630    0.2340 ho        1 GPE      0.237000
     21 H111       -3.2830    0.6950    1.0010 h1        1 GPE      0.065500
     22 H112       -3.1850   -0.8940    1.0810 h1        1 GPE      0.065500
     23 H121       -2.6470   -0.7240    3.3780 h1        1 GPE      0.093500
     24 H122       -2.8140    0.8590    3.2860 h1        1 GPE      0.093500
     25 HN1        -4.6770   -0.8640    3.6770 hn        1 GPE      0.126500
     26 HN2        -4.8340    0.6140    3.5800 hn        1 GPE      0.126500
@<TRIPOS>BOND
     1    1    3 1   
     2    1    4 1   
     3    1    5 1   
     4    2    6 1   
     5    3   11 1   
     6    6    7 1   
     7    6   14 1   
     8    6   15 1   
     9    7    8 1   
    10    7   10 1   
    11    7   16 1   
    12    8    9 1   
    13    8   17 1   
    14    8   18 1   
    15    9   19 1   
    16   10   20 1   
    17   11   12 1   
    18   11   21 1   
    19   11   22 1   
    20   12   13 1   
    21   12   23 1   
    22   12   24 1   
    23   13   25 1   
    24   13   26 1   
@<TRIPOS>SUBSTRUCTURE
     1 GPE         1 TEMP              0 ****  ****    0 ROOT
