@<TRIPOS>MOLECULE
GPE
   27    26     1     0     0
SMALL
bcc


@<TRIPOS>ATOM
      1 P           0.0020    1.1040    0.2060 p5        1 GPE      1.637500
      2 O11         1.5710    1.2170   -0.0920 os        1 GPE     -0.572200
      3 O12        -0.0320    0.0890    1.4490 os        1 GPE     -0.586200
      4 O14        -0.8120    0.7150   -0.9350 o         1 GPE     -0.813300
      5 O13        -0.3000    2.4710    0.9490 oh        1 GPE     -0.748400
      6 C1          2.0150    0.9840   -1.4130 c3        1 GPE      0.125400
      7 C2          3.0850   -0.1120   -1.3730 c3        1 GPE      0.087100
      8 C3          3.6190   -0.3830   -2.7840 c3        1 GPE      0.136400
      9 O31         4.5520   -1.4410   -2.7770 oh        1 GPE     -0.596800
     10 O21         4.2000    0.2930   -0.5950 oh        1 GPE     -0.611800
     11 C11        -1.1320   -0.7840    1.5680 c3        1 GPE      0.165400
     12 C12        -2.0040   -0.3830    2.7700 c3        1 GPE      0.126800
     13 N          -2.6830    0.8750    2.5780 n3        1 GPE     -0.940800
     14 H11         1.1550    0.6810   -2.0700 h1        1 GPE      0.073700
     15 H12         2.4800    1.9400   -1.7850 h1        1 GPE      0.073700
     16 H2          2.6600   -1.0580   -0.9350 h1        1 GPE      0.052700
     17 H31         4.0900    0.5480   -3.1980 h1        1 GPE      0.053200
     18 H32         2.7870   -0.7280   -3.4520 h1        1 GPE      0.053200
     19 HO1         5.2440   -1.2030   -2.1450 ho        1 GPE      0.418000
     20 HO2         3.8500    0.6270    0.2410 ho        1 GPE      0.427000
     21 H111       -1.7170   -0.7930    0.6070 h1        1 GPE      0.064200
     22 H112       -0.7120   -1.8090    1.7690 h1        1 GPE      0.064200
     23 H121       -2.7100   -1.2440    2.9600 h1        1 GPE      0.044700
     24 H122       -1.3310   -0.2830    3.6680 h1        1 GPE      0.044700
     25 HN1        -0.5360    2.4190    1.8750 ho        1 GPE      0.498000
     26 HN2        -3.1060    1.1830    3.4290 hn        1 GPE      0.361300
     27 HN3        -3.3830    0.8060    1.8650 hn        1 GPE      0.361300
@<TRIPOS>BOND
     1    1    2 1   
     2    1    3 1   
     3    1    4 2   
     4    1    5 1   
     5    2    6 1   
     6    3   11 1   
     7    5   25 1   
     8    6    7 1   
     9    6   14 1   
    10    6   15 1   
    11    7    8 1   
    12    7   10 1   
    13    7   16 1   
    14    8    9 1   
    15    8   17 1   
    16    8   18 1   
    17    9   19 1   
    18   10   20 1   
    19   11   12 1   
    20   11   21 1   
    21   11   22 1   
    22   12   13 1   
    23   12   23 1   
    24   12   24 1   
    25   13   26 1   
    26   13   27 1   
@<TRIPOS>SUBSTRUCTURE
     1 GPE         1 TEMP              0 ****  ****    0 ROOT
