@<TRIPOS>MOLECULE
GPE
   27    26     1     0     0
SMALL
bcc


@<TRIPOS>ATOM
      1 P          -0.0780    1.0360    0.1100 p5        1 GPE      1.637500
      2 O11         1.4690    1.2520   -0.2460 os        1 GPE     -0.572200
      3 O12         0.0050    0.2000    1.4770 os        1 GPE     -0.586200
      4 O14        -0.8680    0.4210   -0.9460 o         1 GPE     -0.813300
      5 O13        -0.4980    2.4560    0.6710 oh        1 GPE     -0.748400
      6 C1          1.9120    0.8870   -1.5370 c3        1 GPE      0.125400
      7 C2          3.0820   -0.0900   -1.3840 c3        1 GPE      0.087100
      8 C3          3.6170   -0.4960   -2.7610 c3        1 GPE      0.136400
      9 O31         4.6470   -1.4520   -2.6420 oh        1 GPE     -0.596800
     10 O21         4.1660    0.5160   -0.6970 oh        1 GPE     -0.611800
     11 C11        -1.0040   -0.7480    1.7430 c3        1 GPE      0.165400
     12 C12        -1.8910   -0.2710    2.9040 c3        1 GPE      0.126800
     13 N          -2.6920    0.8800    2.5650 n8        1 GPE     -0.940800
     14 H11         1.0740    0.4200   -2.1230 h1        1 GPE      0.073700
     15 H12         2.2760    1.8240   -2.0440 h1        1 GPE      0.073700
     16 H2          2.7560   -1.0050   -0.8140 h1        1 GPE      0.052700
     17 H31         3.9900    0.4110   -3.3070 h1        1 GPE      0.053200
     18 H32         2.8110   -1.0020   -3.3550 h1        1 GPE      0.053200
     19 HO1         5.3230   -1.0690   -2.0660 ho        1 GPE      0.418000
     20 HO2         3.7980    0.9250    0.0980 ho        1 GPE      0.427000
     21 H111       -1.6000   -0.9420    0.8080 h1        1 GPE      0.064200
     22 H112       -0.4840   -1.6930    2.0670 h1        1 GPE      0.064200
     23 H121       -2.5080   -1.1600    3.2280 h1        1 GPE      0.044700
     24 H122       -1.2180    0.0130    3.7620 h1        1 GPE      0.044700
     25 HN1        -0.7130    2.5090    1.6020 ho        1 GPE      0.498000
     26 HN2        -3.1290    1.2610    3.3790 hn        1 GPE      0.361300
     27 HN3        -3.3920    0.6500    1.8880 hn        1 GPE      0.361300
@<TRIPOS>BOND
     1    1    2 1   
     2    1    3 1   
     3    1    4 2   
     4    1    5 1   
     5    2    6 1   
     6    3   11 1   
     7    5   25 1   
     8    6    7 1   
     9    6   14 1   
    10    6   15 1   
    11    7    8 1   
    12    7   10 1   
    13    7   16 1   
    14    8    9 1   
    15    8   17 1   
    16    8   18 1   
    17    9   19 1   
    18   10   20 1   
    19   11   12 1   
    20   11   21 1   
    21   11   22 1   
    22   12   13 1   
    23   12   23 1   
    24   12   24 1   
    25   13   26 1   
    26   13   27 1   
@<TRIPOS>SUBSTRUCTURE
     1 GPE         1 TEMP              0 ****  ****    0 ROOT
