@<TRIPOS>MOLECULE
GPE
   27    26     1     0     0
SMALL
bcc


@<TRIPOS>ATOM
      1 P          -0.0620    1.0500    0.1400 p5        1 GPE      1.637500
      2 O11         1.4900    1.2520   -0.1990 os        1 GPE     -0.572200
      3 O12        -0.0020    0.1560    1.4720 os        1 GPE     -0.586200
      4 O14        -0.8590    0.4960   -0.9440 o         1 GPE     -0.813300
      5 O13        -0.4580    2.4540    0.7600 oh        1 GPE     -0.748400
      6 C1          1.9320    0.9320   -1.5020 c3        1 GPE      0.125400
      7 C2          3.0830   -0.0720   -1.3860 c3        1 GPE      0.087100
      8 C3          3.6170   -0.4310   -2.7760 c3        1 GPE      0.136400
      9 O31         4.6280   -1.4110   -2.6920 oh        1 GPE     -0.596800
     10 O21         4.1750    0.4850   -0.6700 oh        1 GPE     -0.611800
     11 C11        -1.0300   -0.7830    1.6930 c3        1 GPE      0.165400
     12 C12        -1.9130   -0.3370    2.8700 c3        1 GPE      0.126800
     13 N          -2.6900    0.8420    2.5770 n3        1 GPE     -0.940800
     14 H11         1.0890    0.5070   -2.1110 h1        1 GPE      0.073700
     15 H12         2.3170    1.8830   -1.9690 h1        1 GPE      0.073700
     16 H2          2.7370   -1.0030   -0.8550 h1        1 GPE      0.052700
     17 H31         4.0090    0.4900   -3.2830 h1        1 GPE      0.053200
     18 H32         2.8040   -0.8970   -3.3930 h1        1 GPE      0.053200
     19 HO1         5.3090   -1.0650   -2.0990 ho        1 GPE      0.418000
     20 HO2         3.8120    0.8680    0.1400 ho        1 GPE      0.427000
     21 H111       -1.6250   -0.9250    0.7490 h1        1 GPE      0.064200
     22 H112       -0.5300   -1.7500    1.9800 h1        1 GPE      0.064200
     23 H121       -2.5490   -1.2270    3.1540 h1        1 GPE      0.044700
     24 H122       -1.2390   -0.1030    3.7420 h1        1 GPE      0.044700
     25 HN1        -3.1240    1.1970    3.4050 hn        1 GPE      0.361300
     26 HN2        -0.6770    2.4710    1.6920 ho        1 GPE      0.498000
     27 HN3        -3.3920    0.6550    1.8890 hn        1 GPE      0.361300
@<TRIPOS>BOND
     1    1    2 1   
     2    1    3 1   
     3    1    4 2   
     4    1    5 1   
     5    2    6 1   
     6    3   11 1   
     7    5   26 1   
     8    6    7 1   
     9    6   14 1   
    10    6   15 1   
    11    7    8 1   
    12    7   10 1   
    13    7   16 1   
    14    8    9 1   
    15    8   17 1   
    16    8   18 1   
    17    9   19 1   
    18   10   20 1   
    19   11   12 1   
    20   11   21 1   
    21   11   22 1   
    22   12   13 1   
    23   12   23 1   
    24   12   24 1   
    25   13   25 1   
    26   13   27 1   
@<TRIPOS>SUBSTRUCTURE
     1 GPE         1 TEMP              0 ****  ****    0 ROOT
