@<TRIPOS>MOLECULE
GPF
   15    14     1     0     0
SMALL
bcc


@<TRIPOS>ATOM
      1 C1          0.6470   -0.2730    0.7970 c3        1 GPF     -0.028400
      2 C2         -1.7420   -0.0420    0.7870 c3        1 GPF      0.086800
      3 C3         -3.0760    0.2210    0.0660 c         1 GPF      0.905600
      4 O1          2.7340   -0.7820   -0.7730 o         1 GPF     -0.970167
      5 O2          1.8160    1.6040   -0.6960 o         1 GPF     -0.970167
      6 O3          3.0180    0.6160    1.3070 o         1 GPF     -0.970167
      7 O4         -3.2970    1.3080   -0.5480 o         1 GPF     -0.901300
      8 P1          2.1710    0.3470    0.0700 p5        1 GPF      1.218700
      9 O5         -4.0040   -0.6470    0.2020 o         1 GPF     -0.901300
     10 N1         -0.5190    0.0020    0.0110 n3        1 GPF     -0.781200
     11 H1          0.7460   -1.3820    0.9110 h1        1 GPF     -0.010800
     12 H1A         0.5910    0.1550    1.8360 h1        1 GPF     -0.010800
     13 H2         -1.7260    0.6880    1.6580 h1        1 GPF     -0.024800
     14 H2A        -1.8080   -1.0710    1.2430 h1        1 GPF     -0.024800
     15 HN1        -0.4080    0.8920   -0.4470 hn        1 GPF      0.381800
@<TRIPOS>BOND
     1    1    8 1   
     2    1   10 1   
     3    1   11 1   
     4    1   12 1   
     5    2    3 1   
     6    2   10 1   
     7    2   13 1   
     8    2   14 1   
     9    3    7 1   
    10    3    9 1   
    11    4    8 1   
    12    5    8 1   
    13    6    8 1   
    14   10   15 1   
@<TRIPOS>SUBSTRUCTURE
     1 GPF         1 TEMP              0 ****  ****    0 ROOT
