@<TRIPOS>MOLECULE
GPF
   15    14     1     0     0
SMALL
bcc


@<TRIPOS>ATOM
      1 C1          0.4830    0.1390   -0.9600 c3        1 GPF     -0.028400
      2 C2         -1.3240    0.4630    0.4220 c3        1 GPF      0.086800
      3 C3         -1.8590    0.1910    1.8030 c         1 GPF      0.905600
      4 O1          2.3710   -1.1120   -2.5410 o         1 GPF     -0.970167
      5 O2          3.1770    0.0270   -0.3690 o         1 GPF     -0.970167
      6 O3          1.8210   -2.1710   -0.2590 o         1 GPF     -0.970167
      7 O4         -2.2550    1.1400    2.5170 o         1 GPF     -0.901300
      8 P1          2.0090   -0.8090   -1.0380 p5        1 GPF      1.218700
      9 O5         -2.0330   -0.9500    2.1660 o         1 GPF     -0.901300
     10 N1          0.0450    0.2150    0.3970 n3        1 GPF     -0.781200
     11 H1         -0.2230   -0.3140   -1.5140 h1        1 GPF     -0.010800
     12 H1A         0.6420    1.0670   -1.3120 h1        1 GPF     -0.010800
     13 H2         -1.4990    1.4440    0.1760 h1        1 GPF     -0.024800
     14 H2A        -1.8050   -0.1630   -0.2720 h1        1 GPF     -0.024800
     15 HN1         0.4480    0.8340    0.7840 hn        1 GPF      0.381800
@<TRIPOS>BOND
     1    1    8 1   
     2    1   10 1   
     3    1   11 1   
     4    1   12 1   
     5    2    3 1   
     6    2   10 1   
     7    2   13 1   
     8    2   14 1   
     9    3    7 1   
    10    3    9 1   
    11    4    8 1   
    12    5    8 1   
    13    6    8 1   
    14   10   15 1   
@<TRIPOS>SUBSTRUCTURE
     1 GPF         1 TEMP              0 ****  ****    0 ROOT
