@<TRIPOS>MOLECULE
GPF
   15    14     1     0     0
SMALL
bcc


@<TRIPOS>ATOM
      1 C1          0.5370    0.7750    0.2280 c3        1 GPF     -0.028400
      2 C2         -1.1230    1.1960    1.9090 c3        1 GPF      0.086800
      3 C3         -1.6370    1.1170    3.3580 c         1 GPF      0.905600
      4 O1          3.1270    0.2750   -0.1140 o         1 GPF     -0.970167
      5 O2          1.5750   -1.6710    0.4700 o         1 GPF     -0.970167
      6 O3          1.4400   -0.5460   -1.7980 o         1 GPF     -0.970167
      7 O4         -1.7920    0.0060    3.9490 o         1 GPF     -0.901300
      8 P1          1.7850   -0.3980   -0.3230 p5        1 GPF      1.218700
      9 O5         -2.0120    2.2050    3.9140 o         1 GPF     -0.901300
     10 N1          0.1730    0.6240    1.6070 n3        1 GPF     -0.781200
     11 H1         -0.3350    0.6690   -0.4730 h1        1 GPF     -0.010800
     12 H1A         0.9450    1.8070    0.0800 h1        1 GPF     -0.010800
     13 H2         -1.9520    0.7460    1.2760 h1        1 GPF     -0.024800
     14 H2A        -1.0770    2.2880    1.6320 h1        1 GPF     -0.024800
     15 HN1         0.2100   -0.3520    1.8530 hn        1 GPF      0.381800
@<TRIPOS>BOND
     1    1    8 1   
     2    1   10 1   
     3    1   11 1   
     4    1   12 1   
     5    2    3 1   
     6    2   10 1   
     7    2   13 1   
     8    2   14 1   
     9    3    7 1   
    10    3    9 1   
    11    4    8 1   
    12    5    8 1   
    13    6    8 1   
    14   10   15 1   
@<TRIPOS>SUBSTRUCTURE
     1 GPF         1 TEMP              0 ****  ****    0 ROOT
