@<TRIPOS>MOLECULE
GPH
   31    31     1     0     0
SMALL
bcc


@<TRIPOS>ATOM
      1 C1         -0.5890    0.4310   -1.9420 c3        1 GPH      0.335900
      2 C2          0.9130    0.4400   -1.9200 c3        1 GPH      0.081100
      3 C3          1.4510    0.4170   -0.5510 c3        1 GPH      0.107100
      4 C4          0.8630   -0.6920    0.2730 c3        1 GPH      0.177100
      5 C5         -0.6330   -0.6960    0.2380 c3        1 GPH      0.085100
      6 C6         -1.1420    0.5120    0.9820 c3        1 GPH      0.125100
      7 C7         -2.6180    0.3030    1.3390 c3        1 GPH      0.115400
      8 O2          1.3830    1.6320   -2.5850 oh        1 GPH     -0.623800
      9 O3          1.1560    1.6720    0.0820 oh        1 GPH     -0.671800
     10 O4          1.3530   -1.9640   -0.2310 os        1 GPH     -0.556200
     11 P1          2.3610   -2.8240    0.7020 p5        1 GPH      1.338900
     12 O8          3.3730   -1.8820    1.3690 o         1 GPH     -0.919500
     13 O9          3.0930   -3.8260   -0.1420 o         1 GPH     -0.919500
     14 O10         1.5500   -3.5610    1.7910 o         1 GPH     -0.919500
     15 O5         -1.1620   -0.6660   -1.1220 os        1 GPH     -0.472600
     16 O6         -0.4000    0.6910    2.1550 oh        1 GPH     -0.659800
     17 O7         -3.1350    1.4760    1.8960 oh        1 GPH     -0.660800
     18 O101       -1.0430    1.6310   -1.4530 oh        1 GPH     -0.634800
     19 H1         -0.9010    0.3280   -2.8880 h2        1 GPH      0.050700
     20 H2          1.2400   -0.3410   -2.4000 h1        1 GPH      0.023700
     21 H3          2.4450    0.3010   -0.5950 h1        1 GPH      0.031700
     22 H4          1.1540   -0.5870    1.1940 h1        1 GPH      0.052700
     23 H5         -0.9580   -1.5030    0.6860 h1        1 GPH      0.057700
     24 H6         -1.0520    1.3120    0.4100 h1        1 GPH      0.031700
     25 H7         -3.1270    0.0740    0.5170 h1        1 GPH      0.052200
     26 H7A        -2.6960   -0.4180    1.9780 h1        1 GPH      0.052200
     27 HO2         1.8100    1.4020   -3.3540 ho        1 GPH      0.441000
     28 HO3         1.8330    1.9270    0.5390 ho        1 GPH      0.496000
     29 HO6        -0.8700    1.1820    2.7320 ho        1 GPH      0.475000
     30 HO7        -3.9370    1.3030    2.2710 ho        1 GPH      0.465000
     31 H15        -1.7110    1.9280   -1.9670 ho        1 GPH      0.444000
@<TRIPOS>BOND
     1    1    2 1   
     2    1   15 1   
     3    1   18 1   
     4    1   19 1   
     5    2    3 1   
     6    2    8 1   
     7    2   20 1   
     8    3    4 1   
     9    3    9 1   
    10    3   21 1   
    11    4    5 1   
    12    4   10 1   
    13    4   22 1   
    14    5    6 1   
    15    5   15 1   
    16    5   23 1   
    17    6    7 1   
    18    6   16 1   
    19    6   24 1   
    20    7   17 1   
    21    7   25 1   
    22    7   26 1   
    23    8   27 1   
    24    9   28 1   
    25   10   11 1   
    26   11   12 1   
    27   11   13 1   
    28   11   14 1   
    29   16   29 1   
    30   17   30 1   
    31   18   31 1   
@<TRIPOS>SUBSTRUCTURE
     1 GPH         1 TEMP              0 ****  ****    0 ROOT
