@<TRIPOS>MOLECULE
GPH
   31    31     1     0     0
SMALL
bcc


@<TRIPOS>ATOM
      1 C1         -3.0140   -0.6310    0.6150 c3        1 GPH      0.330900
      2 C2         -2.2350   -1.9180    0.2970 c3        1 GPH      0.084100
      3 C3         -0.7870   -1.7960    0.7940 c3        1 GPH      0.103100
      4 C4         -0.1270   -0.4730    0.3180 c3        1 GPH      0.182100
      5 C5         -1.0430    0.7230    0.6670 c3        1 GPH      0.096100
      6 C6         -0.5250    2.0210    0.0170 c3        1 GPH      0.143100
      7 C7         -1.5950    3.1180    0.0500 c3        1 GPH      0.136400
      8 O2         -2.3250   -2.1740   -1.0960 oh        1 GPH     -0.634800
      9 O3         -0.0990   -2.9300    0.3160 oh        1 GPH     -0.679800
     10 O4          1.0910   -0.3390    0.9360 os        1 GPH     -0.556200
     11 P1          2.4430   -0.4080   -0.1630 p5        1 GPH      1.321900
     12 O8          2.0310   -1.6230   -0.9590 o         1 GPH     -0.910500
     13 O9          2.2020    0.9240   -0.8290 o         1 GPH     -0.910500
     14 O10         3.6430   -0.5350    0.7150 o         1 GPH     -0.910500
     15 O5         -2.3730    0.5420    0.1520 os        1 GPH     -0.469600
     16 O6          0.5750    2.5230    0.7440 oh        1 GPH     -0.673800
     17 O7         -1.0870    4.3730   -0.3730 oh        1 GPH     -0.650800
     18 O101       -4.2460   -0.5770   -0.0650 oh        1 GPH     -0.622800
     19 H1         -3.2490   -0.5570    1.7120 h2        1 GPH      0.043700
     20 H2         -2.7490   -2.7830    0.8020 h1        1 GPH      0.032700
     21 H3         -0.7850   -1.8310    1.9190 h1        1 GPH      0.028700
     22 H4         -0.0110   -0.5220   -0.8070 h1        1 GPH      0.059700
     23 H5         -1.0990    0.8500    1.7820 h1        1 GPH      0.034700
     24 H6         -0.2150    1.8060   -1.0450 h1        1 GPH      0.081700
     25 H7         -2.4320    2.8680   -0.6520 h1        1 GPH      0.026200
     26 H7A        -1.9980    3.2330    1.0910 h1        1 GPH      0.026200
     27 HO2        -1.4180   -2.2010   -1.4380 ho        1 GPH      0.441000
     28 HO3         0.7690   -2.6210   -0.0590 ho        1 GPH      0.500000
     29 HO6         1.3460    1.9480    0.4950 ho        1 GPH      0.502000
     30 HO7        -0.1410    4.3780   -0.1650 ho        1 GPH      0.425000
     31 H15        -4.0390   -0.6360   -1.0080 ho        1 GPH      0.421000
@<TRIPOS>BOND
     1    1    2 1   
     2    1   15 1   
     3    1   18 1   
     4    1   19 1   
     5    2    3 1   
     6    2    8 1   
     7    2   20 1   
     8    3    4 1   
     9    3    9 1   
    10    3   21 1   
    11    4    5 1   
    12    4   10 1   
    13    4   22 1   
    14    5    6 1   
    15    5   15 1   
    16    5   23 1   
    17    6    7 1   
    18    6   16 1   
    19    6   24 1   
    20    7   17 1   
    21    7   25 1   
    22    7   26 1   
    23    8   27 1   
    24    9   28 1   
    25   10   11 1   
    26   11   12 1   
    27   11   13 1   
    28   11   14 1   
    29   16   29 1   
    30   17   30 1   
    31   18   31 1   
@<TRIPOS>SUBSTRUCTURE
     1 GPH         1 TEMP              0 ****  ****    0 ROOT
