@<TRIPOS>MOLECULE
GPI
   54    53     1     0     0
SMALL
bcc


@<TRIPOS>ATOM
      1 C2         -1.1370    1.1880    2.1190 c3        1 GPI      0.045000
      2 N6          0.1780    1.2090    2.1190 n         1 GPI     -0.323000
      3 C5          0.6500    1.3850    3.6540 c3        1 GPI     -0.026000
      4 C3         -1.4880    2.0780    3.4640 c3        1 GPI     -0.159000
      5 C4         -0.1890    2.2300    4.2190 c3        1 GPI     -0.168000
      6 C1         -1.7750    1.7190    0.8280 c2        1 GPI      0.290000
      7 O1         -1.1470    2.4640    0.1030 o         1 GPI     -0.336000
      8 O2         -3.1030    1.3870    0.5130 os        1 GPI     -0.277000
      9 C14        -3.3480    1.2650   -0.8680 c3        1 GPI     -0.012000
     10 C15        -4.0030   -0.0710   -1.1480 c3        1 GPI     -0.161000
     11 C16        -4.0910   -0.2860   -2.6430 c3        1 GPI     -0.116000
     12 N19        -3.3810   -3.9730   -2.9280 n1        1 GPI     -0.137000
     13 C20        -2.2470   -3.9730   -3.6840 c1        1 GPI     -0.125000
     14 C21        -1.6950   -2.7730   -4.1050 c1        1 GPI     -0.125000
     15 C22        -2.2860   -1.5920   -3.7610 c1        1 GPI     -0.091000
     16 C17        -3.4210   -1.5940   -3.0040 c2        1 GPI     -0.126000
     17 C18        -3.9720   -2.7940   -2.5840 c2        1 GPI     -0.068000
     18 C7          1.0230    1.0970    0.9840 c2        1 GPI      0.282000
     19 O7          0.5400    0.9670   -0.1230 o         1 GPI     -0.343000
     20 C8          2.5270    1.1320    1.1530 c2        1 GPI      0.230000
     21 O8          3.0370    1.9620    1.8800 o         1 GPI     -0.251000
     22 C9          3.3990    0.1600    0.3870 c3        1 GPI     -0.078000
     23 C12         3.5970    0.6660   -1.0260 c3        1 GPI     -0.214000
     24 C13         2.7280   -1.1960    0.3470 c3        1 GPI     -0.214000
     25 C10         4.7430    0.0380    1.0720 c3        1 GPI     -0.153000
     26 C11         5.5460   -1.0630    0.4140 c3        1 GPI     -0.209000
     27 H2         -1.4980    0.2790    2.1660 h1        1 GPI      0.141000
     28 H51         1.5600    1.7470    3.6850 h1        1 GPI      0.097500
     29 H52         0.6180    0.5220    4.1160 h1        1 GPI      0.097500
     30 H31        -2.1450    1.6080    4.0150 hc        1 GPI      0.104000
     31 H32        -1.8320    2.9570    3.2050 hc        1 GPI      0.104000
     32 H41        -0.3170    1.9990    5.1630 hc        1 GPI      0.099500
     33 H42         0.1460    3.1470    4.1360 hc        1 GPI      0.099500
     34 H141       -2.5010    1.3210   -1.3570 h1        1 GPI      0.094000
     35 H142       -3.9420    1.9870   -1.1600 h1        1 GPI      0.094000
     36 H151       -3.4700   -0.7860   -0.7460 hc        1 GPI      0.098000
     37 H152       -4.9030   -0.0790   -0.7630 hc        1 GPI      0.098000
     38 H161       -5.0310   -0.3160   -2.9130 hc        1 GPI      0.092500
     39 H162       -3.6420    0.4490   -3.1050 hc        1 GPI      0.092500
     40 H20        -1.8240   -4.8170   -3.9300 ha        1 GPI      0.152000
     41 H21        -0.8830   -2.7730   -4.6470 ha        1 GPI      0.152000
     42 H22        -1.8970   -0.7470   -4.0570 ha        1 GPI      0.140000
     43 H18        -4.7840   -2.7960   -2.0430 h4        1 GPI      0.158000
     44 H121        3.0180    1.4420   -1.1790 hc        1 GPI      0.089833
     45 H122        4.5330    0.9270   -1.1510 hc        1 GPI      0.089833
     46 H123        3.3670   -0.0430   -1.6620 hc        1 GPI      0.089833
     47 H131        3.3190   -1.8400   -0.0950 hc        1 GPI      0.089833
     48 H132        1.8860   -1.1300   -0.1500 hc        1 GPI      0.089833
     49 H133        2.5440   -1.4960    1.2620 hc        1 GPI      0.089833
     50 H101        4.6090   -0.1760    2.0170 hc        1 GPI      0.091000
     51 H102        5.2260    0.8850    0.9940 hc        1 GPI      0.091000
     52 H111        5.2870   -1.1390   -0.5280 hc        1 GPI      0.076333
     53 H112        5.3710   -1.9120    0.8710 hc        1 GPI      0.076333
     54 H113        6.5010   -0.8510    0.4740 hc        1 GPI      0.076333
@<TRIPOS>BOND
     1    1    2 1   
     2    1    4 1   
     3    1    6 1   
     4    1   27 1   
     5    2    3 1   
     6    2   18 1   
     7    3    5 1   
     8    3   28 1   
     9    3   29 1   
    10    4    5 1   
    11    4   30 1   
    12    4   31 1   
    13    5   32 1   
    14    5   33 1   
    15    6    7 1   
    16    6    8 1   
    17    8    9 1   
    18    9   10 1   
    19    9   34 1   
    20    9   35 1   
    21   10   11 1   
    22   10   36 1   
    23   10   37 1   
    24   11   16 1   
    25   11   38 1   
    26   11   39 1   
    27   12   17 1   
    28   13   14 1   
    29   13   40 1   
    30   14   41 1   
    31   15   16 1   
    32   15   42 1   
    33   16   17 1   
    34   17   43 1   
    35   18   19 1   
    36   18   20 1   
    37   20   21 1   
    38   20   22 1   
    39   22   23 1   
    40   22   24 1   
    41   22   25 1   
    42   23   44 1   
    43   23   45 1   
    44   23   46 1   
    45   24   47 1   
    46   24   48 1   
    47   24   49 1   
    48   25   26 1   
    49   25   50 1   
    50   25   51 1   
    51   26   52 1   
    52   26   53 1   
    53   26   54 1   
@<TRIPOS>SUBSTRUCTURE
     1 GPI         1 TEMP              0 ****  ****    0 ROOT
