@<TRIPOS>MOLECULE
GPI
   54    55     1     0     0
SMALL
bcc


@<TRIPOS>ATOM
      1 C2          0.0620    0.0300    0.0060 c3        1 GPI      0.069700
      2 N6          1.4740   -0.2860   -0.1070 n         1 GPI     -0.466800
      3 C5          2.1710   -0.1090    1.1520 c3        1 GPI      0.089000
      4 C3         -0.2400    0.1900    1.5150 c3        1 GPI     -0.079400
      5 C4          1.1100    0.1840    2.2270 c3        1 GPI     -0.091400
      6 C1         -0.3180    1.3060   -0.7360 c         1 GPI      0.620100
      7 O1          0.3980    2.1460   -1.2820 o         1 GPI     -0.532000
      8 O2         -1.6740    1.4820   -0.7660 os        1 GPI     -0.442900
      9 C14        -2.1520    2.6320   -1.4860 c3        1 GPI      0.139400
     10 C15        -3.6650    2.5910   -1.3790 c3        1 GPI     -0.084400
     11 C16        -4.2680    3.7560   -2.1400 c3        1 GPI     -0.031100
     12 N19        -7.8370    2.7060   -2.7690 nb        1 GPI     -0.661000
     13 C20        -8.4980    3.6320   -2.0460 ca        1 GPI      0.391200
     14 C21        -7.8540    4.6440   -1.3130 ca        1 GPI     -0.244300
     15 C22        -6.4600    4.6960   -1.3300 ca        1 GPI     -0.091000
     16 C17        -5.7510    3.7440   -2.0730 ca        1 GPI     -0.195600
     17 C18        -6.4940    2.7700   -2.7760 ca        1 GPI      0.397200
     18 C7          2.0240   -0.8510   -1.2370 c         1 GPI      0.589100
     19 O7          1.3220   -1.1490   -2.2210 o         1 GPI     -0.583100
     20 C8          3.5320   -1.0850   -1.2460 c         1 GPI      0.526100
     21 O8          4.0190   -1.9860   -0.5660 o         1 GPI     -0.500100
     22 C9          4.3260   -0.1690   -2.1640 c3        1 GPI     -0.128000
     23 C12         3.8200    1.2580   -2.0080 c3        1 GPI     -0.097100
     24 C13         4.1110   -0.6440   -3.5950 c3        1 GPI     -0.097100
     25 C10         5.8040   -0.2620   -1.7750 c3        1 GPI     -0.073400
     26 C11         6.7280    0.4960   -2.6910 c3        1 GPI     -0.091100
     27 H2         -0.5520   -0.8020   -0.4530 h1        1 GPI      0.106700
     28 H51         2.7560   -1.0380    1.4000 h1        1 GPI      0.059200
     29 H52         2.8940    0.7500    1.0640 h1        1 GPI      0.059200
     30 H31        -0.8760   -0.6630    1.8560 hc        1 GPI      0.067700
     31 H32        -0.8020    1.1370    1.7060 hc        1 GPI      0.067700
     32 H41         1.1370   -0.6000    3.0220 hc        1 GPI      0.059200
     33 H42         1.3120    1.1720    2.7080 hc        1 GPI      0.059200
     34 H141       -1.8050    2.5630   -2.5500 h1        1 GPI      0.053700
     35 H142       -1.7240    3.5570   -1.0180 h1        1 GPI      0.053700
     36 H151       -4.0450    1.6210   -1.7940 hc        1 GPI      0.060200
     37 H152       -3.9660    2.6320   -0.3010 hc        1 GPI      0.060200
     38 H161       -3.8720    4.7200   -1.7200 hc        1 GPI      0.053700
     39 H162       -3.9450    3.7060   -3.2160 hc        1 GPI      0.053700
     40 H21        -8.4400    5.3750   -0.7410 ha        1 GPI      0.143000
     41 H22        -5.9240    5.4750   -0.7690 ha        1 GPI      0.138000
     42 H18        -5.9770    2.0000   -3.3770 h4        1 GPI      0.023100
     43 H121        3.9940    1.6230   -0.9680 hc        1 GPI      0.052700
     44 H122        4.3600    1.9310   -2.7170 hc        1 GPI      0.052700
     45 H123        2.7250    1.3210   -2.2320 hc        1 GPI      0.052700
     46 H131        3.0190   -0.7480   -3.8100 hc        1 GPI      0.052700
     47 H132        4.6080   -1.6310   -3.7550 hc        1 GPI      0.052700
     48 H133        4.5450    0.0980   -4.3070 hc        1 GPI      0.052700
     49 H101        6.1000   -1.3460   -1.7640 hc        1 GPI      0.050700
     50 H102        5.9190    0.1230   -0.7270 hc        1 GPI      0.050700
     51 H111        7.7800    0.4010   -2.3260 hc        1 GPI      0.037033
     52 H112        6.4660    1.5810   -2.7230 hc        1 GPI      0.037033
     53 H113        6.6810    0.0910   -3.7310 hc        1 GPI      0.037033
     54 H20        -9.6000    3.5540   -2.0600 h4        1 GPI      0.022100
@<TRIPOS>BOND
     1    1    2 1   
     2    1    4 1   
     3    1    6 1   
     4    1   27 1   
     5    2    3 1   
     6    2   18 1   
     7    3    5 1   
     8    3   28 1   
     9    3   29 1   
    10    4    5 1   
    11    4   30 1   
    12    4   31 1   
    13    5   32 1   
    14    5   33 1   
    15    6    7 2   
    16    6    8 1   
    17    8    9 1   
    18    9   10 1   
    19    9   34 1   
    20    9   35 1   
    21   10   11 1   
    22   10   36 1   
    23   10   37 1   
    24   11   16 1   
    25   11   38 1   
    26   11   39 1   
    27   12   13 ar  
    28   12   17 ar  
    29   13   14 ar  
    30   13   54 1   
    31   14   15 ar  
    32   14   40 1   
    33   15   16 ar  
    34   15   41 1   
    35   16   17 ar  
    36   17   42 1   
    37   18   19 2   
    38   18   20 1   
    39   20   21 2   
    40   20   22 1   
    41   22   23 1   
    42   22   24 1   
    43   22   25 1   
    44   23   43 1   
    45   23   44 1   
    46   23   45 1   
    47   24   46 1   
    48   24   47 1   
    49   24   48 1   
    50   25   26 1   
    51   25   49 1   
    52   25   50 1   
    53   26   51 1   
    54   26   52 1   
    55   26   53 1   
@<TRIPOS>SUBSTRUCTURE
     1 GPI         1 TEMP              0 ****  ****    0 ROOT
