@<TRIPOS>MOLECULE
GPI
   54    55     1     0     0
SMALL
bcc


@<TRIPOS>ATOM
      1 C2          0.0590    0.0290    0.0010 c3        1 GPI      0.069700
      2 N6          1.4720   -0.2860   -0.1110 n         1 GPI     -0.466800
      3 C5          2.1680   -0.1080    1.1490 c3        1 GPI      0.089000
      4 C3         -0.2440    0.1900    1.5100 c3        1 GPI     -0.079400
      5 C4          1.1050    0.1840    2.2220 c3        1 GPI     -0.091400
      6 C1         -0.3200    1.3050   -0.7420 c         1 GPI      0.620100
      7 O1          0.3960    2.1440   -1.2890 o         1 GPI     -0.532000
      8 O2         -1.6750    1.4820   -0.7720 os        1 GPI     -0.442900
      9 C14        -2.1540    2.6320   -1.4930 c3        1 GPI      0.139400
     10 C15        -3.6660    2.5930   -1.3820 c3        1 GPI     -0.084400
     11 C16        -4.2690    3.7580   -2.1440 c3        1 GPI     -0.031100
     12 N19        -7.8420    2.7130   -2.7580 nb        1 GPI     -0.661000
     13 C20        -8.4990    3.6430   -2.0360 ca        1 GPI      0.391200
     14 C21        -7.8500    4.6560   -1.3080 ca        1 GPI     -0.244300
     15 C22        -6.4560    4.7050   -1.3300 ca        1 GPI     -0.091000
     16 C17        -5.7510    3.7500   -2.0720 ca        1 GPI     -0.195600
     17 C18        -6.4990    2.7750   -2.7700 ca        1 GPI      0.397200
     18 C7          2.0230   -0.8520   -1.2400 c         1 GPI      0.589100
     19 O7          1.3220   -1.1510   -2.2240 o         1 GPI     -0.583100
     20 C8          3.5320   -1.0850   -1.2470 c         1 GPI      0.526100
     21 O8          4.0180   -1.9860   -0.5660 o         1 GPI     -0.500100
     22 C9          4.3260   -0.1700   -2.1650 c3        1 GPI     -0.128000
     23 C12         3.8180    1.2570   -2.0110 c3        1 GPI     -0.097100
     24 C13         4.1130   -0.6470   -3.5960 c3        1 GPI     -0.097100
     25 C10         5.8040   -0.2610   -1.7740 c3        1 GPI     -0.073400
     26 C11         6.7280    0.4970   -2.6900 c3        1 GPI     -0.091100
     27 H2         -0.5530   -0.8030   -0.4580 h1        1 GPI      0.106700
     28 H51         2.7520   -1.0380    1.3980 h1        1 GPI      0.059200
     29 H52         2.8900    0.7510    1.0620 h1        1 GPI      0.059200
     30 H31        -0.8800   -0.6630    1.8510 hc        1 GPI      0.067700
     31 H32        -0.8060    1.1370    1.7000 hc        1 GPI      0.067700
     32 H41         1.3070    1.1720    2.7040 hc        1 GPI      0.059200
     33 H42         1.1320   -0.6000    3.0180 hc        1 GPI      0.059200
     34 H141       -1.8090    2.5590   -2.5570 h1        1 GPI      0.053700
     35 H142       -1.7230    3.5560   -1.0280 h1        1 GPI      0.053700
     36 H151       -4.0490    1.6230   -1.7940 hc        1 GPI      0.060200
     37 H152       -3.9650    2.6380   -0.3030 hc        1 GPI      0.060200
     38 H161       -3.9500    3.7040   -3.2200 hc        1 GPI      0.053700
     39 H162       -3.8690    4.7220   -1.7280 hc        1 GPI      0.053700
     40 H21        -8.4330    5.3900   -0.7370 ha        1 GPI      0.143000
     41 H22        -5.9170    5.4850   -0.7730 ha        1 GPI      0.138000
     42 H18        -5.9860    2.0010   -3.3700 h4        1 GPI      0.023100
     43 H121        4.3590    1.9290   -2.7200 hc        1 GPI      0.052700
     44 H122        3.9900    1.6230   -0.9710 hc        1 GPI      0.052700
     45 H123        2.7240    1.3190   -2.2370 hc        1 GPI      0.052700
     46 H131        4.5480    0.0950   -4.3090 hc        1 GPI      0.052700
     47 H132        3.0210   -0.7520   -3.8120 hc        1 GPI      0.052700
     48 H133        4.6110   -1.6330   -3.7540 hc        1 GPI      0.052700
     49 H101        6.1000   -1.3450   -1.7620 hc        1 GPI      0.050700
     50 H102        5.9170    0.1240   -0.7260 hc        1 GPI      0.050700
     51 H111        6.6830    0.0900   -3.7290 hc        1 GPI      0.037033
     52 H112        6.4650    1.5810   -2.7230 hc        1 GPI      0.037033
     53 H113        7.7790    0.4030   -2.3230 hc        1 GPI      0.037033
     54 H20        -9.6010    3.5680   -2.0460 h4        1 GPI      0.022100
@<TRIPOS>BOND
     1    1    2 1   
     2    1    4 1   
     3    1    6 1   
     4    1   27 1   
     5    2    3 1   
     6    2   18 1   
     7    3    5 1   
     8    3   28 1   
     9    3   29 1   
    10    4    5 1   
    11    4   30 1   
    12    4   31 1   
    13    5   32 1   
    14    5   33 1   
    15    6    7 2   
    16    6    8 1   
    17    8    9 1   
    18    9   10 1   
    19    9   34 1   
    20    9   35 1   
    21   10   11 1   
    22   10   36 1   
    23   10   37 1   
    24   11   16 1   
    25   11   38 1   
    26   11   39 1   
    27   12   13 ar  
    28   12   17 ar  
    29   13   14 ar  
    30   13   54 1   
    31   14   15 ar  
    32   14   40 1   
    33   15   16 ar  
    34   15   41 1   
    35   16   17 ar  
    36   17   42 1   
    37   18   19 2   
    38   18   20 1   
    39   20   21 2   
    40   20   22 1   
    41   22   23 1   
    42   22   24 1   
    43   22   25 1   
    44   23   43 1   
    45   23   44 1   
    46   23   45 1   
    47   24   46 1   
    48   24   47 1   
    49   24   48 1   
    50   25   26 1   
    51   25   49 1   
    52   25   50 1   
    53   26   51 1   
    54   26   52 1   
    55   26   53 1   
@<TRIPOS>SUBSTRUCTURE
     1 GPI         1 TEMP              0 ****  ****    0 ROOT
