@<TRIPOS>MOLECULE
GPI
   54    55     1     0     0
SMALL
bcc


@<TRIPOS>ATOM
      1 C2          0.0550    0.0050   -0.0200 c3        1 GPI      0.069700
      2 N6          1.4690   -0.3040   -0.1270 n         1 GPI     -0.466800
      3 C5          2.1540   -0.1530    1.1420 c3        1 GPI      0.089000
      4 C3         -0.2610    0.1310    1.4900 c3        1 GPI     -0.079400
      5 C4          1.0830    0.1120    2.2130 c3        1 GPI     -0.091400
      6 C1         -0.3220    1.2970   -0.7370 c         1 GPI      0.620100
      7 O1          0.3950    2.1510   -1.2570 o         1 GPI     -0.532000
      8 O2         -1.6780    1.4700   -0.7750 os        1 GPI     -0.442900
      9 C14        -2.1540    2.6340   -1.4740 c3        1 GPI      0.139400
     10 C15        -3.6680    2.5830   -1.3840 c3        1 GPI     -0.084400
     11 C16        -4.2680    3.7640   -2.1230 c3        1 GPI     -0.031100
     12 N19        -7.8240    2.7110   -2.8180 nb        1 GPI     -0.661000
     13 C20        -8.4980    3.6170   -2.0810 ca        1 GPI      0.391200
     14 C21        -7.8680    4.6140   -1.3170 ca        1 GPI     -0.244300
     15 C22        -6.4730    4.6730   -1.3170 ca        1 GPI     -0.091000
     16 C17        -5.7510    3.7430   -2.0740 ca        1 GPI     -0.195600
     17 C18        -6.4820    2.7820   -2.8080 ca        1 GPI      0.397200
     18 C7          2.0300   -0.8430   -1.2650 c         1 GPI      0.589100
     19 O7          1.3380   -1.1210   -2.2610 o         1 GPI     -0.583100
     20 C8          3.5390   -1.0730   -1.2650 c         1 GPI      0.526100
     21 O8          4.0220   -1.9880   -0.6010 o         1 GPI     -0.500100
     22 C9          4.3390   -0.1360   -2.1550 c3        1 GPI     -0.128000
     23 C12         3.8280    1.2860   -1.9740 c3        1 GPI     -0.097100
     24 C13         4.1390   -0.5810   -3.5990 c3        1 GPI     -0.097100
     25 C10         5.8140   -0.2330   -1.7550 c3        1 GPI     -0.073400
     26 C11         6.7440    0.5460   -2.6460 c3        1 GPI     -0.091100
     27 H2         -0.5520   -0.8180   -0.5020 h1        1 GPI      0.106700
     28 H51         2.7390   -1.0860    1.3740 h1        1 GPI      0.059200
     29 H52         2.8750    0.7100    1.0790 h1        1 GPI      0.059200
     30 H31        -0.8980   -0.7310    1.8060 hc        1 GPI      0.067700
     31 H32        -0.8270    1.0720    1.6970 hc        1 GPI      0.067700
     32 H41         1.1050   -0.6890    2.9910 hc        1 GPI      0.059200
     33 H42         1.2780    1.0900    2.7180 hc        1 GPI      0.059200
     34 H141       -1.7360    3.5490   -0.9800 h1        1 GPI      0.053700
     35 H142       -1.7950    2.5900   -2.5350 h1        1 GPI      0.053700
     36 H151       -4.0390    1.6210   -1.8260 hc        1 GPI      0.060200
     37 H152       -3.9810    2.5980   -0.3080 hc        1 GPI      0.060200
     38 H161       -3.8820    4.7190   -1.6760 hc        1 GPI      0.053700
     39 H162       -3.9330    3.7400   -3.1960 hc        1 GPI      0.053700
     40 H21        -8.4640    5.3290   -0.7340 ha        1 GPI      0.143000
     41 H22        -5.9480    5.4420   -0.7310 ha        1 GPI      0.138000
     42 H18        -5.9540    2.0290   -3.4210 h4        1 GPI      0.023100
     43 H121        3.9910    1.6290   -0.9240 hc        1 GPI      0.052700
     44 H122        2.7350    1.3520   -2.2070 hc        1 GPI      0.052700
     45 H123        4.3720    1.9750   -2.6630 hc        1 GPI      0.052700
     46 H131        3.0480   -0.6830   -3.8260 hc        1 GPI      0.052700
     47 H132        4.5770    0.1780   -4.2910 hc        1 GPI      0.052700
     48 H133        4.6400   -1.5620   -3.7750 hc        1 GPI      0.052700
     49 H101        6.1120   -1.3170   -1.7650 hc        1 GPI      0.050700
     50 H102        5.9180    0.1280   -0.6980 hc        1 GPI      0.050700
     51 H111        6.4790    1.6310   -2.6570 hc        1 GPI      0.037033
     52 H112        6.7080    0.1640   -3.6950 hc        1 GPI      0.037033
     53 H113        7.7930    0.4460   -2.2730 hc        1 GPI      0.037033
     54 H20        -9.5990    3.5340   -2.1090 h4        1 GPI      0.022100
@<TRIPOS>BOND
     1    1    2 1   
     2    1    4 1   
     3    1    6 1   
     4    1   27 1   
     5    2    3 1   
     6    2   18 1   
     7    3    5 1   
     8    3   28 1   
     9    3   29 1   
    10    4    5 1   
    11    4   30 1   
    12    4   31 1   
    13    5   32 1   
    14    5   33 1   
    15    6    7 2   
    16    6    8 1   
    17    8    9 1   
    18    9   10 1   
    19    9   34 1   
    20    9   35 1   
    21   10   11 1   
    22   10   36 1   
    23   10   37 1   
    24   11   16 1   
    25   11   38 1   
    26   11   39 1   
    27   12   13 ar  
    28   12   17 ar  
    29   13   14 ar  
    30   13   54 1   
    31   14   15 ar  
    32   14   40 1   
    33   15   16 ar  
    34   15   41 1   
    35   16   17 ar  
    36   17   42 1   
    37   18   19 2   
    38   18   20 1   
    39   20   21 2   
    40   20   22 1   
    41   22   23 1   
    42   22   24 1   
    43   22   25 1   
    44   23   43 1   
    45   23   44 1   
    46   23   45 1   
    47   24   46 1   
    48   24   47 1   
    49   24   48 1   
    50   25   26 1   
    51   25   49 1   
    52   25   50 1   
    53   26   51 1   
    54   26   52 1   
    55   26   53 1   
@<TRIPOS>SUBSTRUCTURE
     1 GPI         1 TEMP              0 ****  ****    0 ROOT
