@<TRIPOS>MOLECULE
GPI
   54    55     1     0     0
SMALL
bcc


@<TRIPOS>ATOM
      1 C2         -1.4940   -0.6360    0.9460 c3        1 GPI      0.069700
      2 N6         -1.2860   -0.5410    2.3790 n         1 GPI     -0.466800
      3 C5         -2.3130    0.2540    3.0250 c3        1 GPI      0.089000
      4 C3         -2.9040   -0.0640    0.6610 c3        1 GPI     -0.079400
      5 C4         -3.3810    0.5710    1.9640 c3        1 GPI     -0.091400
      6 C1         -0.4510    0.1370    0.1460 c         1 GPI      0.620100
      7 O1          0.4280    0.9080    0.5300 o         1 GPI     -0.532000
      8 O2         -0.5620   -0.1130   -1.1940 os        1 GPI     -0.442900
      9 C14         0.4060    0.5250   -2.0450 c3        1 GPI      0.139400
     10 C15         0.0730    0.0840   -3.4580 c3        1 GPI     -0.084400
     11 C16         1.0670    0.6850   -4.4330 c3        1 GPI     -0.031100
     12 N19         0.8030   -1.5070   -7.4930 nb        1 GPI     -0.661000
     13 C20         0.3230   -0.6230   -8.3900 ca        1 GPI      0.391200
     14 C21         0.0510    0.7210   -8.0800 ca        1 GPI     -0.244300
     15 C22         0.2870    1.1670   -6.7780 ca        1 GPI     -0.091000
     16 C17         0.7840    0.2670   -5.8290 ca        1 GPI     -0.195600
     17 C18         1.0260   -1.0620   -6.2440 ca        1 GPI      0.397200
     18 C7         -0.3240   -1.2710    3.0430 c         1 GPI      0.589100
     19 O7          0.4060   -2.0810    2.4420 o         1 GPI     -0.583100
     20 C8         -0.1740   -1.0390    4.5440 c         1 GPI      0.526100
     21 O8         -1.0260   -1.4660    5.3210 o         1 GPI     -0.500100
     22 C9          1.0890   -0.3030    4.9650 c3        1 GPI     -0.128000
     23 C12         1.3190    0.8730    4.0270 c3        1 GPI     -0.097100
     24 C13         2.2520   -1.2820    4.8670 c3        1 GPI     -0.097100
     25 C10         0.9060    0.1830    6.4050 c3        1 GPI     -0.073400
     26 C11         2.1350    0.8170    6.9990 c3        1 GPI     -0.091100
     27 H2         -1.4130   -1.7150    0.6210 h1        1 GPI      0.106700
     28 H51        -2.7540   -0.3180    3.8880 h1        1 GPI      0.059200
     29 H52        -1.8580    1.2030    3.4250 h1        1 GPI      0.059200
     30 H31        -3.5830   -0.8950    0.3490 hc        1 GPI      0.067700
     31 H32        -2.8660    0.6810   -0.1700 hc        1 GPI      0.067700
     32 H41        -4.3700    0.1530    2.2730 hc        1 GPI      0.059200
     33 H42        -3.4940    1.6770    1.8510 hc        1 GPI      0.059200
     34 H141        0.3210    1.6360   -1.9210 h1        1 GPI      0.053700
     35 H142        1.4320    0.1960   -1.7340 h1        1 GPI      0.053700
     36 H151        0.1000   -1.0360   -3.5190 hc        1 GPI      0.060200
     37 H152       -0.9690    0.4060   -3.7160 hc        1 GPI      0.060200
     38 H161        1.0360    1.8050   -4.3540 hc        1 GPI      0.053700
     39 H162        2.1060    0.3610   -4.1530 hc        1 GPI      0.053700
     40 H21        -0.3390    1.4010   -8.8480 ha        1 GPI      0.143000
     41 H22         0.0860    2.2120   -6.5020 ha        1 GPI      0.138000
     42 H18         1.4210   -1.8070   -5.5290 h4        1 GPI      0.023100
     43 H121        0.4820    1.6070    4.1080 hc        1 GPI      0.052700
     44 H122        2.2720    1.3890    4.2940 hc        1 GPI      0.052700
     45 H123        1.3930    0.5310    2.9640 hc        1 GPI      0.052700
     46 H131        2.1630   -2.0700    5.6520 hc        1 GPI      0.052700
     47 H132        2.2650   -1.7710    3.8610 hc        1 GPI      0.052700
     48 H133        3.2160   -0.7370    5.0110 hc        1 GPI      0.052700
     49 H101        0.5970   -0.6930    7.0370 hc        1 GPI      0.050700
     50 H102        0.0590    0.9190    6.4250 hc        1 GPI      0.050700
     51 H111        1.9120    1.1670    8.0370 hc        1 GPI      0.037033
     52 H112        2.9770    0.0850    7.0510 hc        1 GPI      0.037033
     53 H113        2.4680    1.6960    6.3970 hc        1 GPI      0.037033
     54 H20         0.1510   -1.0170   -9.4070 h4        1 GPI      0.022100
@<TRIPOS>BOND
     1    1    2 1   
     2    1    4 1   
     3    1    6 1   
     4    1   27 1   
     5    2    3 1   
     6    2   18 1   
     7    3    5 1   
     8    3   28 1   
     9    3   29 1   
    10    4    5 1   
    11    4   30 1   
    12    4   31 1   
    13    5   32 1   
    14    5   33 1   
    15    6    7 2   
    16    6    8 1   
    17    8    9 1   
    18    9   10 1   
    19    9   34 1   
    20    9   35 1   
    21   10   11 1   
    22   10   36 1   
    23   10   37 1   
    24   11   16 1   
    25   11   38 1   
    26   11   39 1   
    27   12   13 ar  
    28   12   17 ar  
    29   13   14 ar  
    30   13   54 1   
    31   14   15 ar  
    32   14   40 1   
    33   15   16 ar  
    34   15   41 1   
    35   16   17 ar  
    36   17   42 1   
    37   18   19 2   
    38   18   20 1   
    39   20   21 2   
    40   20   22 1   
    41   22   23 1   
    42   22   24 1   
    43   22   25 1   
    44   23   43 1   
    45   23   44 1   
    46   23   45 1   
    47   24   46 1   
    48   24   47 1   
    49   24   48 1   
    50   25   26 1   
    51   25   49 1   
    52   25   50 1   
    53   26   51 1   
    54   26   52 1   
    55   26   53 1   
@<TRIPOS>SUBSTRUCTURE
     1 GPI         1 TEMP              0 ****  ****    0 ROOT
