@<TRIPOS>MOLECULE
GPJ
   16    15     1     0     0
SMALL
bcc


@<TRIPOS>ATOM
      1 P1         -2.0860   -0.0950    0.2490 p5        1 GPJ      1.184700
      2 O1         -1.4520    0.7640    1.3340 o         1 GPJ     -0.906167
      3 O2         -2.7670    0.6580   -0.8500 o         1 GPJ     -0.906167
      4 O3         -2.7030   -1.3790    0.7090 o         1 GPJ     -0.906167
      5 O4          4.1860   -0.7110    0.4270 o         1 GPJ     -0.839300
      6 O5          3.1880    0.8770   -0.7940 o         1 GPJ     -0.839300
      7 C1         -0.5050   -0.7120   -0.6170 c3        1 GPJ     -0.102400
      8 C2          1.7940   -0.7840    0.3000 c3        1 GPJ     -0.025200
      9 C3          3.1640   -0.1430   -0.0490 c         1 GPJ      0.904600
     10 N1          0.6240    0.0350   -0.0850 n4        1 GPJ     -0.721000
     11 H11        -0.6290   -0.5480   -1.7070 hx        1 GPJ      0.061700
     12 H12        -0.4420   -1.7960   -0.3850 hx        1 GPJ      0.061700
     13 H21         1.7510   -1.7740   -0.2290 hx        1 GPJ      0.060200
     14 H22         1.7520   -0.9750    1.4050 hx        1 GPJ      0.060200
     15 HN          0.9590    0.7280   -0.7640 hn        1 GPJ      0.456800
     16 HN11        0.2350    0.5580    0.7660 hn        1 GPJ      0.456800
@<TRIPOS>BOND
     1    1    2 1   
     2    1    3 1   
     3    1    4 1   
     4    1    7 1   
     5    5    9 1   
     6    6    9 1   
     7    7   10 1   
     8    7   11 1   
     9    7   12 1   
    10    8    9 1   
    11    8   10 1   
    12    8   13 1   
    13    8   14 1   
    14   10   15 1   
    15   10   16 1   
@<TRIPOS>SUBSTRUCTURE
     1 GPJ         1 TEMP              0 ****  ****    0 ROOT
