@<TRIPOS>MOLECULE
GPJ
   16    15     1     0     0
SMALL
bcc


@<TRIPOS>ATOM
      1 P1          0.0620   -0.0140    0.0600 p5        1 GPJ      1.184700
      2 O1          1.5150    0.3120   -0.1690 o         1 GPJ     -0.906167
      3 O2         -0.4710    0.4140    1.4030 o         1 GPJ     -0.906167
      4 O3         -0.5010   -1.2460   -0.5710 o         1 GPJ     -0.906167
      5 O4         -0.2470    6.2380   -0.7300 o         1 GPJ     -0.839300
      6 O5          0.8900    5.0330    0.7760 o         1 GPJ     -0.839300
      7 C1         -0.6710    1.4290   -0.9600 c3        1 GPJ     -0.102400
      8 C2         -0.4780    3.8720   -0.8700 c3        1 GPJ     -0.025200
      9 C3          0.1130    5.1440   -0.2070 c         1 GPJ      0.904600
     10 N1         -0.0800    2.5790   -0.2850 n4        1 GPJ     -0.721000
     11 H11        -1.7730    1.4230   -0.8740 hx        1 GPJ      0.061700
     12 H12        -0.3350    1.3500   -2.0100 hx        1 GPJ      0.061700
     13 H21        -1.5980    3.9470   -0.8200 hx        1 GPJ      0.060200
     14 H22        -0.1740    3.8740   -1.9510 hx        1 GPJ      0.060200
     15 HN         -0.3470    2.5080    0.7140 hn        1 GPJ      0.456800
     16 HN11        0.9480    2.4440   -0.3110 hn        1 GPJ      0.456800
@<TRIPOS>BOND
     1    1    2 1   
     2    1    3 1   
     3    1    4 1   
     4    1    7 1   
     5    5    9 1   
     6    6    9 1   
     7    7   10 1   
     8    7   11 1   
     9    7   12 1   
    10    8    9 1   
    11    8   10 1   
    12    8   13 1   
    13    8   14 1   
    14   10   15 1   
    15   10   16 1   
@<TRIPOS>SUBSTRUCTURE
     1 GPJ         1 TEMP              0 ****  ****    0 ROOT
