@<TRIPOS>MOLECULE
GPJ
   16    15     1     0     0
SMALL
bcc


@<TRIPOS>ATOM
      1 P1          0.1690   -0.0630   -0.2350 p5        1 GPJ      1.184700
      2 O1          1.5500    0.5740   -0.2890 o         1 GPJ     -0.906167
      3 O2         -0.2140   -0.6560    1.0850 o         1 GPJ     -0.906167
      4 O3         -0.2750   -0.7690   -1.4780 o         1 GPJ     -0.906167
      5 O4         -0.1010    6.1520   -1.2560 o         1 GPJ     -0.839300
      6 O5         -0.0540    5.2950    0.8100 o         1 GPJ     -0.839300
      7 C1         -0.8990    1.5150   -0.2820 c3        1 GPJ     -0.102400
      8 C2         -0.2380    3.7670   -1.0690 c3        1 GPJ     -0.025200
      9 C3         -0.1120    5.1840   -0.4470 c         1 GPJ      0.904600
     10 N1         -0.0200    2.6610   -0.1120 ny        1 GPJ     -0.721000
     11 H11        -1.3970    1.5080   -1.2740 hx        1 GPJ      0.061700
     12 H12        -1.6450    1.4450    0.5350 hx        1 GPJ      0.061700
     13 H21         0.5040    3.6700   -1.9060 hx        1 GPJ      0.060200
     14 H22        -1.2700    3.6900   -1.5050 hx        1 GPJ      0.060200
     15 HN         -0.1160    3.0620    0.8290 hn        1 GPJ      0.456800
     16 HN11        0.9730    2.2680   -0.2110 hn        1 GPJ      0.456800
@<TRIPOS>BOND
     1    1    2 1   
     2    1    3 1   
     3    1    4 1   
     4    1    7 1   
     5    5    9 1   
     6    6    9 1   
     7    7   10 1   
     8    7   11 1   
     9    7   12 1   
    10    8    9 1   
    11    8   10 1   
    12    8   13 1   
    13    8   14 1   
    14   10   15 1   
    15   10   16 1   
@<TRIPOS>SUBSTRUCTURE
     1 GPJ         1 TEMP              0 ****  ****    0 ROOT
