@<TRIPOS>MOLECULE
GPJ
   16    14     1     0     0
SMALL
bcc


@<TRIPOS>ATOM
      1 P1          0.2530    2.4220    0.3640 p4        1 GPJ      1.553000
      2 O1          1.7630    2.4220    0.3640 o         1 GPJ     -0.904000
      3 O2         -0.2500    2.4220    1.7870 os        1 GPJ     -1.230000
      4 O3         -0.2500    3.6550   -0.3480 o         1 GPJ     -0.952800
      5 O4          1.2560   -3.1380   -0.1360 o         1 GPJ     -0.839300
      6 O5         -0.5040   -3.1380    1.1520 o         1 GPJ     -0.839300
      7 C1         -0.3520    0.9400   -0.4920 c3        1 GPJ     -0.102400
      8 C2         -0.3550   -1.3890   -0.4900 c3        1 GPJ     -0.025200
      9 C3          0.1610   -2.6240    0.2150 c         1 GPJ      0.904600
     10 N1          0.1310   -0.2250    0.1750 n4        1 GPJ     -0.721000
     11 H11        -0.0320    0.9430   -1.4140 hx        1 GPJ      0.061700
     12 H12        -1.3280    0.9360   -0.4870 hx        1 GPJ      0.061700
     13 H21        -0.0450   -1.3890   -1.4150 hx        1 GPJ      0.060200
     14 H22        -1.3310   -1.3890   -0.4740 hx        1 GPJ      0.060200
     15 HN          1.0430   -0.2260    0.1620 hn        1 GPJ      0.456800
     16 HN11       -0.1610   -0.2230    1.0380 hn        1 GPJ      0.456800
@<TRIPOS>BOND
     1    1    2 1   
     2    1    4 2   
     3    1    7 1   
     4    5    9 1   
     5    6    9 1   
     6    7   10 1   
     7    7   11 1   
     8    7   12 1   
     9    8    9 1   
    10    8   10 1   
    11    8   13 1   
    12    8   14 1   
    13   10   15 1   
    14   10   16 1   
@<TRIPOS>SUBSTRUCTURE
     1 GPJ         1 TEMP              0 ****  ****    0 ROOT
