@<TRIPOS>MOLECULE
GPJ
   16    15     1     0     0
SMALL
bcc


@<TRIPOS>ATOM
      1 P1          0.1210   -0.0680   -0.2230 p5        1 GPJ      1.184700
      2 O1          1.5120    0.5490   -0.1860 o         1 GPJ     -0.906167
      3 O2         -0.3530   -0.6600    1.0680 o         1 GPJ     -0.906167
      4 O3         -0.2530   -0.7640   -1.4940 o         1 GPJ     -0.906167
      5 O4          0.0020    6.1530   -1.2330 o         1 GPJ     -0.839300
      6 O5         -0.0940    5.2890    0.8290 o         1 GPJ     -0.839300
      7 C1         -0.9200    1.5240   -0.3310 c3        1 GPJ     -0.102400
      8 C2         -0.1780    3.7690   -1.0650 c3        1 GPJ     -0.025200
      9 C3         -0.0730    5.1830   -0.4300 c         1 GPJ      0.904600
     10 N1         -0.0370    2.6580   -0.1010 n4        1 GPJ     -0.721000
     11 H11        -1.3530    1.5280   -1.3520 hx        1 GPJ      0.061700
     12 H12        -1.7170    1.4620    0.4380 hx        1 GPJ      0.061700
     13 H21         0.6130    3.6650   -1.8530 hx        1 GPJ      0.060200
     14 H22        -1.1820    3.7090   -1.5660 hx        1 GPJ      0.060200
     15 HN         -0.1880    3.0570    0.8340 hn        1 GPJ      0.456800
     16 HN11        0.9540    2.2510   -0.1370 hn        1 GPJ      0.456800
@<TRIPOS>BOND
     1    1    2 1   
     2    1    3 1   
     3    1    4 1   
     4    1    7 1   
     5    5    9 1   
     6    6    9 1   
     7    7   10 1   
     8    7   11 1   
     9    7   12 1   
    10    8    9 1   
    11    8   10 1   
    12    8   13 1   
    13    8   14 1   
    14   10   15 1   
    15   10   16 1   
@<TRIPOS>SUBSTRUCTURE
     1 GPJ         1 TEMP              0 ****  ****    0 ROOT
