@<TRIPOS>MOLECULE
GPK
   33    34     1     0     0
SMALL
bcc


@<TRIPOS>ATOM
      1 C1         -0.2490    0.6160    0.2840 cc        1 GPK     -0.005400
      2 F1          1.5890    1.7880   -0.6560 f         1 GPK     -0.127500
      3 C2          1.0790    0.9470    0.2660 cd        1 GPK     -0.013700
      4 C3          2.0150    0.3820    1.2710 c         1 GPK      0.701700
      5 O3          3.2210    0.6470    1.3490 o         1 GPK     -0.567500
      6 N4          1.4350   -0.5130    2.1820 n         1 GPK     -0.580500
      7 C5          0.0770   -0.8640    2.1780 c         1 GPK      0.816500
      8 O5         -0.3300   -1.7100    3.0060 o         1 GPK     -0.655500
      9 C1'        -2.2290   -0.3170    1.3170 c3        1 GPK      0.283500
     10 N1'        -0.7770   -0.3080    1.1850 n         1 GPK     -0.344000
     11 C2'        -2.8550   -1.4460    2.1770 c3        1 GPK      0.096100
     12 O2'        -2.5630   -2.7150    1.6340 oh        1 GPK     -0.603800
     13 C3'        -4.3850   -1.2860    2.1010 c3        1 GPK      0.103100
     14 O3'        -5.0260   -2.2210    2.9500 oh        1 GPK     -0.601800
     15 C4'        -4.7830    0.1100    2.6080 c3        1 GPK      0.121100
     16 O4'        -6.1620    0.3430    2.3850 oh        1 GPK     -0.593800
     17 C5'        -4.0170    1.1850    1.8230 c3        1 GPK      0.107100
     18 O5'        -2.6080    0.9500    1.8960 os        1 GPK     -0.451600
     19 C6'        -4.2370    2.5700    2.4410 c3        1 GPK      0.139400
     20 O6'        -3.6450    3.5770    1.6520 oh        1 GPK     -0.590800
     21 H1         -0.9660    1.0570   -0.4360 h4        1 GPK      0.186000
     22 HN4         2.0070   -0.9360    2.8840 hn        1 GPK      0.361500
     23 H1'        -2.6450   -0.3850    0.2640 h2        1 GPK      0.075700
     24 H2'        -2.5170   -1.3630    3.2460 h1        1 GPK      0.098700
     25 HO2'       -1.7170   -3.0020    2.0070 ho        1 GPK      0.439000
     26 H3'        -4.7390   -1.4360    1.0430 h1        1 GPK      0.063700
     27 HO3'       -4.7040   -3.0960    2.6910 ho        1 GPK      0.430000
     28 H4'        -4.5540    0.1880    3.7080 h1        1 GPK      0.066700
     29 HO4'       -6.6340   -0.3870    2.8110 ho        1 GPK      0.429000
     30 H5'        -4.3440    1.1850    0.7470 h1        1 GPK      0.071700
     31 H6'        -5.3380    2.7930    2.4410 h1        1 GPK      0.069200
     32 H6'A       -3.8320    2.5930    3.4860 h1        1 GPK      0.069200
     33 HO6'       -2.6910    3.4290    1.6710 ho        1 GPK      0.408000
@<TRIPOS>BOND
     1    1    3 2   
     2    1   10 1   
     3    1   21 1   
     4    2    3 1   
     5    3    4 1   
     6    4    5 2   
     7    4    6 1   
     8    6    7 1   
     9    6   22 1   
    10    7    8 2   
    11    7   10 1   
    12    9   10 1   
    13    9   11 1   
    14    9   18 1   
    15    9   23 1   
    16   11   12 1   
    17   11   13 1   
    18   11   24 1   
    19   12   25 1   
    20   13   14 1   
    21   13   15 1   
    22   13   26 1   
    23   14   27 1   
    24   15   16 1   
    25   15   17 1   
    26   15   28 1   
    27   16   29 1   
    28   17   18 1   
    29   17   19 1   
    30   17   30 1   
    31   19   20 1   
    32   19   31 1   
    33   19   32 1   
    34   20   33 1   
@<TRIPOS>SUBSTRUCTURE
     1 GPK         1 TEMP              0 ****  ****    0 ROOT
