@<TRIPOS>MOLECULE
GPK
   33    34     1     0     0
SMALL
bcc


@<TRIPOS>ATOM
      1 C1         -0.2450    0.6120    0.2870 cc        1 GPK     -0.005400
      2 F1          1.5930    1.7820   -0.6540 f         1 GPK     -0.127500
      3 C2          1.0820    0.9440    0.2710 cd        1 GPK     -0.013700
      4 C3          2.0160    0.3860    1.2810 c         1 GPK      0.701700
      5 O3          3.2210    0.6530    1.3620 o         1 GPK     -0.567500
      6 N4          1.4350   -0.5060    2.1950 ns        1 GPK     -0.580500
      7 C5          0.0770   -0.8590    2.1890 c         1 GPK      0.816500
      8 O5         -0.3310   -1.7010    3.0200 o         1 GPK     -0.655500
      9 C1'        -2.2270   -0.3190    1.3190 c3        1 GPK      0.283500
     10 N1'        -0.7750   -0.3090    1.1920 n         1 GPK     -0.344000
     11 C2'        -2.8540   -1.4450    2.1830 c3        1 GPK      0.096100
     12 O2'        -2.5590   -2.7160    1.6470 oh        1 GPK     -0.603800
     13 C3'        -4.3840   -1.2880    2.1030 c3        1 GPK      0.103100
     14 O3'        -5.0260   -2.2190    2.9540 oh        1 GPK     -0.601800
     15 C4'        -4.7850    0.1100    2.6010 c3        1 GPK      0.121100
     16 O4'        -6.1640    0.3400    2.3740 oh        1 GPK     -0.593800
     17 C5'        -4.0190    1.1820    1.8130 c3        1 GPK      0.107100
     18 O5'        -2.6090    0.9500    1.8910 os        1 GPK     -0.451600
     19 C6'        -4.2420    2.5700    2.4230 c3        1 GPK      0.139400
     20 O6'        -3.6500    3.5740    1.6310 oh        1 GPK     -0.590800
     21 H1         -0.9610    1.0480   -0.4370 h4        1 GPK      0.186000
     22 HN4         2.0060   -0.9250    2.9000 hn        1 GPK      0.361500
     23 H1'        -2.6400   -0.3940    0.2660 h2        1 GPK      0.075700
     24 H2'        -2.5190   -1.3570    3.2530 h1        1 GPK      0.098700
     25 HO2'       -1.7130   -3.0000    2.0240 ho        1 GPK      0.439000
     26 H3'        -4.7340   -1.4440    1.0440 h1        1 GPK      0.063700
     27 HO3'       -4.7020   -3.0950    2.7000 ho        1 GPK      0.430000
     28 H4'        -4.5590    0.1940    3.7010 h1        1 GPK      0.066700
     29 HO4'       -6.6360   -0.3890    2.8020 ho        1 GPK      0.429000
     30 H5'        -4.3420    1.1760    0.7360 h1        1 GPK      0.071700
     31 H6'        -3.8400    2.5990    3.4700 h1        1 GPK      0.069200
     32 H6'A       -5.3440    2.7910    2.4190 h1        1 GPK      0.069200
     33 HO6'       -2.6960    3.4270    1.6530 ho        1 GPK      0.408000
@<TRIPOS>BOND
     1    1    3 2   
     2    1   10 1   
     3    1   21 1   
     4    2    3 1   
     5    3    4 1   
     6    4    5 2   
     7    4    6 1   
     8    6    7 1   
     9    6   22 1   
    10    7    8 2   
    11    7   10 1   
    12    9   10 1   
    13    9   11 1   
    14    9   18 1   
    15    9   23 1   
    16   11   12 1   
    17   11   13 1   
    18   11   24 1   
    19   12   25 1   
    20   13   14 1   
    21   13   15 1   
    22   13   26 1   
    23   14   27 1   
    24   15   16 1   
    25   15   17 1   
    26   15   28 1   
    27   16   29 1   
    28   17   18 1   
    29   17   19 1   
    30   17   30 1   
    31   19   20 1   
    32   19   31 1   
    33   19   32 1   
    34   20   33 1   
@<TRIPOS>SUBSTRUCTURE
     1 GPK         1 TEMP              0 ****  ****    0 ROOT
