@<TRIPOS>MOLECULE
GPK
   33    33     1     0     0
SMALL
bcc


@<TRIPOS>ATOM
      1 C1          2.2300    1.0830   -1.6720 c1        1 GPK      0.005000
      2 F1          4.3490    1.5630   -2.7800 f         1 GPK     -0.069000
      3 C2          3.7100    1.1020   -1.7010 c2        1 GPK     -0.069000
      4 C3          4.4740    0.4650   -0.6070 c2        1 GPK      0.343000
      5 O3          5.7110    0.4770   -0.6260 o         1 GPK     -0.302000
      6 N4          3.7860   -0.1770    0.4550 n         1 GPK     -0.363000
      7 C5          2.3130   -0.1480    0.5050 c2        1 GPK      0.411000
      8 O5          1.7370   -0.4920    1.5110 o         1 GPK     -0.350000
      9 C1'         0.1420    0.4080   -0.5940 c3        1 GPK      0.183000
     10 N1'         1.5510    0.4270   -0.6170 n2        1 GPK     -0.244000
     11 C2'        -0.3370   -0.9960   -0.9260 c3        1 GPK      0.002000
     12 O2'         0.0050   -1.2910   -2.3030 oh        1 GPK     -0.323000
     13 C3'        -1.7950   -1.1450   -0.7520 c3        1 GPK     -0.039000
     14 O3'        -2.1510   -2.5620   -0.9130 oh        1 GPK     -0.326000
     15 C4'        -2.2500   -0.6830    0.5850 c3        1 GPK     -0.029000
     16 O4'        -3.6810   -0.6890    0.6150 oh        1 GPK     -0.320000
     17 C5'        -1.7550    0.7290    0.9120 c3        1 GPK     -0.001000
     18 O5'        -0.3240    0.8690    0.7350 os        1 GPK     -0.291000
     19 C6'        -2.1000    1.0470    2.3340 c3        1 GPK     -0.011000
     20 O6'        -1.7730    2.4180    2.6110 oh        1 GPK     -0.318000
     21 H1          1.7320    1.4560   -2.4020 ha        1 GPK      0.181000
     22 HN4         4.2530   -0.5660    1.1240 hn        1 GPK      0.273000
     23 H1'        -0.1960    1.0300   -1.2820 h2        1 GPK      0.113000
     24 H2'         0.1160   -1.6300   -0.3470 h1        1 GPK      0.145000
     25 HO2'        0.1580   -2.1770   -2.3930 ho        1 GPK      0.228000
     26 H3'        -2.2480   -0.6280   -1.4360 h1        1 GPK      0.102000
     27 HO3'       -2.7890   -2.6420   -1.5530 ho        1 GPK      0.212000
     28 H4'        -1.9160   -1.3010    1.2630 h1        1 GPK      0.115000
     29 HO4'       -3.9590   -1.3340    1.1440 ho        1 GPK      0.210000
     30 H5'        -2.2070    1.3620    0.3310 h1        1 GPK      0.109000
     31 H6'        -1.5860    0.4550    2.9410 h1        1 GPK      0.107000
     32 H6'A       -3.0510    0.9070    2.4750 h1        1 GPK      0.107000
     33 HO6'       -2.1470    2.6600    3.3620 ho        1 GPK      0.210000
@<TRIPOS>BOND
     1    1    3 1   
     2    1   21 1   
     3    2    3 1   
     4    3    4 1   
     5    4    5 1   
     6    4    6 1   
     7    6    7 1   
     8    6   22 1   
     9    7    8 1   
    10    7   10 1   
    11    9   10 1   
    12    9   11 1   
    13    9   18 1   
    14    9   23 1   
    15   11   12 1   
    16   11   13 1   
    17   11   24 1   
    18   12   25 1   
    19   13   14 1   
    20   13   15 1   
    21   13   26 1   
    22   14   27 1   
    23   15   16 1   
    24   15   17 1   
    25   15   28 1   
    26   16   29 1   
    27   17   18 1   
    28   17   19 1   
    29   17   30 1   
    30   19   20 1   
    31   19   31 1   
    32   19   32 1   
    33   20   33 1   
@<TRIPOS>SUBSTRUCTURE
     1 GPK         1 TEMP              0 ****  ****    0 ROOT
