@<TRIPOS>MOLECULE
GPK
   33    34     1     0     0
SMALL
bcc


@<TRIPOS>ATOM
      1 C1         -0.2580    0.6680    0.2910 cc        1 GPK     -0.005400
      2 F1          1.5710    1.8750   -0.6240 f         1 GPK     -0.127500
      3 C2          1.0680    1.0060    0.2770 cd        1 GPK     -0.013700
      4 C3          2.0110    0.4180    1.2620 c         1 GPK      0.701700
      5 O3          3.2160    0.6870    1.3430 o         1 GPK     -0.567500
      6 N4          1.4390   -0.5040    2.1510 n         1 GPK     -0.580500
      7 C5          0.0830   -0.8620    2.1430 c         1 GPK      0.816500
      8 O5         -0.3170   -1.7320    2.9480 o         1 GPK     -0.655500
      9 C1'        -2.2290   -0.3020    1.3060 c3        1 GPK      0.283500
     10 N1'        -0.7780   -0.2820    1.1690 n         1 GPK     -0.344000
     11 C2'        -2.8470   -1.4580    2.1370 c3        1 GPK      0.096100
     12 O2'        -2.5510   -2.7100    1.5580 oh        1 GPK     -0.603800
     13 C3'        -4.3780   -1.3030    2.0720 c3        1 GPK      0.103100
     14 O3'        -5.0110   -2.2630    2.8970 oh        1 GPK     -0.601800
     15 C4'        -4.7800    0.0770    2.6190 c3        1 GPK      0.121100
     16 O4'        -6.1610    0.3090    2.4080 oh        1 GPK     -0.593800
     17 C5'        -4.0220    1.1770    1.8610 c3        1 GPK      0.107100
     18 O5'        -2.6120    0.9470    1.9210 os        1 GPK     -0.451600
     19 C6'        -4.2460    2.5440    2.5170 c3        1 GPK      0.139400
     20 O6'        -3.6620    3.5750    1.7540 oh        1 GPK     -0.590800
     21 H1         -0.9800    1.1250   -0.4130 h4        1 GPK      0.186000
     22 HN4         2.0170   -0.9440    2.8380 hn        1 GPK      0.361500
     23 H1'        -2.6500   -0.3440    0.2530 h2        1 GPK      0.075700
     24 H2'        -2.5050   -1.4030    3.2070 h1        1 GPK      0.098700
     25 HO2'       -1.7020   -3.0020    1.9200 ho        1 GPK      0.439000
     26 H3'        -4.7350   -1.4250    1.0120 h1        1 GPK      0.063700
     27 HO3'       -4.6860   -3.1290    2.6130 ho        1 GPK      0.430000
     28 H4'        -4.5470    0.1260    3.7190 h1        1 GPK      0.066700
     29 HO4'       -6.6280   -0.4340    2.8160 ho        1 GPK      0.429000
     30 H5'        -4.3530    1.2040    0.7860 h1        1 GPK      0.071700
     31 H6'        -3.8360    2.5400    3.5610 h1        1 GPK      0.069200
     32 H6'A       -5.3480    2.7610    2.5270 h1        1 GPK      0.069200
     33 HO6'       -2.7080    3.4300    1.7650 ho        1 GPK      0.408000
@<TRIPOS>BOND
     1    1    3 2   
     2    1   10 1   
     3    1   21 1   
     4    2    3 1   
     5    3    4 1   
     6    4    5 2   
     7    4    6 1   
     8    6    7 1   
     9    6   22 1   
    10    7    8 2   
    11    7   10 1   
    12    9   10 1   
    13    9   11 1   
    14    9   18 1   
    15    9   23 1   
    16   11   12 1   
    17   11   13 1   
    18   11   24 1   
    19   12   25 1   
    20   13   14 1   
    21   13   15 1   
    22   13   26 1   
    23   14   27 1   
    24   15   16 1   
    25   15   17 1   
    26   15   28 1   
    27   16   29 1   
    28   17   18 1   
    29   17   19 1   
    30   17   30 1   
    31   19   20 1   
    32   19   31 1   
    33   19   32 1   
    34   20   33 1   
@<TRIPOS>SUBSTRUCTURE
     1 GPK         1 TEMP              0 ****  ****    0 ROOT
