@<TRIPOS>MOLECULE
GPK
   33    34     1     0     0
SMALL
bcc


@<TRIPOS>ATOM
      1 C1         -1.9590   -0.1340   -1.1700 cc        1 GPK      0.007600
      2 F1         -4.1620   -0.6680   -1.8740 f         1 GPK     -0.131500
      3 C2         -3.2590   -0.4670   -0.8920 cd        1 GPK     -0.025700
      4 C3         -3.7230   -0.6140    0.5100 c         1 GPK      0.704700
      5 O3         -4.8740   -0.9230    0.8470 o         1 GPK     -0.577500
      6 N4         -2.7470   -0.3800    1.4880 n         1 GPK     -0.583500
      7 C5         -1.4170   -0.0320    1.2000 c         1 GPK      0.820500
      8 O5         -0.6140    0.1650    2.1350 o         1 GPK     -0.625500
      9 C1'         0.3630    0.2940   -0.5170 c3        1 GPK      0.331500
     10 N1'        -1.0370    0.1150   -0.1640 n         1 GPK     -0.351000
     11 C2'         1.0140    1.5600    0.1110 c3        1 GPK      0.113100
     12 O2'         0.3710    2.6750   -0.4790 oh        1 GPK     -0.595800
     13 C3'         2.5090    1.5710   -0.2480 c3        1 GPK      0.072100
     14 O3'         3.0700    2.6840    0.4290 oh        1 GPK     -0.598800
     15 C4'         3.1640    0.2630    0.2180 c3        1 GPK      0.082100
     16 O4'         4.5140    0.2250   -0.2160 oh        1 GPK     -0.592800
     17 C5'         2.4310   -0.9150   -0.4380 c3        1 GPK      0.110100
     18 O5'         1.0500   -0.8900   -0.0750 os        1 GPK     -0.434600
     19 C6'         2.9640   -2.2560    0.0790 c3        1 GPK      0.139400
     20 O6'         2.3920   -3.3340   -0.6250 oh        1 GPK     -0.590800
     21 H1         -1.6020   -0.0250   -2.2120 h4        1 GPK      0.181000
     22 HN4        -2.9920   -0.4610    2.4530 hn        1 GPK      0.359500
     23 H1'         0.4430    0.3710   -1.6450 h2        1 GPK      0.073700
     24 H2'         0.8880    1.5680    1.2290 h1        1 GPK      0.105700
     25 HO2'        0.7630    3.4580   -0.0700 ho        1 GPK      0.429000
     26 H3'         2.6410    1.6930   -1.3600 h1        1 GPK      0.062700
     27 HO3'        3.9510    2.8170    0.0570 ho        1 GPK      0.413000
     28 H4'         3.0980    0.1820    1.3380 h1        1 GPK      0.075700
     29 HO4'        5.0270    0.7090    0.4420 ho        1 GPK      0.411000
     30 H5'         2.5310   -0.8630   -1.5570 h1        1 GPK      0.069700
     31 H6'         4.0670   -2.3110   -0.1280 h1        1 GPK      0.067700
     32 H6'A        2.7640   -2.3490    1.1790 h1        1 GPK      0.067700
     33 HO6'        1.4440   -3.3240   -0.4390 ho        1 GPK      0.411000
@<TRIPOS>BOND
     1    1    3 2   
     2    1   10 1   
     3    1   21 1   
     4    2    3 1   
     5    3    4 1   
     6    4    5 2   
     7    4    6 1   
     8    6    7 1   
     9    6   22 1   
    10    7    8 2   
    11    7   10 1   
    12    9   10 1   
    13    9   11 1   
    14    9   18 1   
    15    9   23 1   
    16   11   12 1   
    17   11   13 1   
    18   11   24 1   
    19   12   25 1   
    20   13   14 1   
    21   13   15 1   
    22   13   26 1   
    23   14   27 1   
    24   15   16 1   
    25   15   17 1   
    26   15   28 1   
    27   16   29 1   
    28   17   18 1   
    29   17   19 1   
    30   17   30 1   
    31   19   20 1   
    32   19   31 1   
    33   19   32 1   
    34   20   33 1   
@<TRIPOS>SUBSTRUCTURE
     1 GPK         1 TEMP              0 ****  ****    0 ROOT
