@<TRIPOS>MOLECULE
GPL
   57    59     1     0     0
SMALL
bcc


@<TRIPOS>ATOM
      1 P           2.1860    4.8500   -0.2870 p5        1 GPL      1.457700
      2 O1P         1.1590    3.7630   -0.2850 o         1 GPL     -0.871500
      3 O2P         2.4060    5.6700    0.9320 o         1 GPL     -0.871500
      4 O5'         3.5940    3.8980   -0.3610 os        1 GPL     -0.579200
      5 C5'         3.7820    3.0680    0.7280 c3        1 GPL      0.205400
      6 C4'         3.3620    1.6240    0.3860 c3        1 GPL      0.060100
      7 O4'         4.3160    0.7000    0.9550 os        1 GPL     -0.420600
      8 C3'         1.9560    1.2450    0.8920 c3        1 GPL      0.120100
      9 O3'         1.1000    0.9390   -0.1840 oh        1 GPL     -0.649800
     10 C2'         2.1440   -0.0280    1.7440 c3        1 GPL      0.111100
     11 O2'         1.6230   -1.2080    1.1800 oh        1 GPL     -0.599800
     12 C1'         3.6970   -0.1860    1.8780 c3        1 GPL      0.211800
     13 N9          4.2010    0.0750    3.2180 na        1 GPL     -0.191900
     14 C8          4.5010    1.3240    3.8070 cc        1 GPL      0.432400
     15 N7          5.0080    1.2200    5.0530 nd        1 GPL     -0.615000
     16 C5          5.0600   -0.1510    5.3040 cd        1 GPL      0.188800
     17 C6          5.5020   -0.8790    6.4740 c         1 GPL      0.647000
     18 O6          5.9480   -0.4340    7.5450 o         1 GPL     -0.629500
     19 N1          5.4120   -2.2900    6.3470 n         1 GPL     -0.502400
     20 C2          4.9000   -2.9170    5.1930 cd        1 GPL      0.623800
     21 N2          4.7690   -4.3440    5.2540 nh        1 GPL     -0.871800
     22 N3          4.5010   -2.2690    4.0840 nc        1 GPL     -0.631100
     23 C4          4.5670   -0.8870    4.1630 cc        1 GPL      0.080800
     24 N          -1.5530    5.0640   -7.1640 n3        1 GPL     -0.894800
     25 CA         -1.2720    6.4580   -6.8450 c3        1 GPL      0.025500
     26 CB         -0.9130    6.7100   -5.3790 c3        1 GPL     -0.058400
     27 CG          0.1720    5.8120   -4.8240 c3        1 GPL     -0.077400
     28 CD          0.6390    6.3010   -3.4680 c3        1 GPL     -0.095400
     29 CE          1.6090    5.2990   -2.8290 c3        1 GPL      0.224800
     30 NZ          2.2100    5.7320   -1.6150 n3        1 GPL     -0.964300
     31 C          -0.2170    7.1340   -7.7790 c         1 GPL      0.887600
     32 O           0.3540    6.4230   -8.6590 o         1 GPL     -0.852300
     33 OXT        -0.0200    8.3740   -7.6400 o         1 GPL     -0.852300
     34 H5'1        4.8810    3.0580    0.9800 h1        1 GPL      0.024700
     35 H5'2        3.2040    3.4480    1.6160 h1        1 GPL      0.024700
     36 H4'         3.4320    1.4720   -0.7270 h1        1 GPL      0.095700
     37 H3'         1.5120    2.0690    1.5150 h1        1 GPL      0.095700
     38 HO3'        0.7980    1.7960   -0.5460 ho        1 GPL      0.495000
     39 H2'         1.6410    0.0700    2.7430 h1        1 GPL      0.081700
     40 HO2'        1.5510   -1.0810    0.2230 ho        1 GPL      0.432000
     41 H1'         4.0170   -1.2310    1.5880 h2        1 GPL      0.101700
     42 H8          4.3320    2.2610    3.2520 h5        1 GPL      0.096100
     43 HN1         5.6340   -2.8370    7.1490 hn        1 GPL      0.326500
     44 HN21        5.6500   -4.7890    5.4140 hn        1 GPL      0.393300
     45 HN22        4.3180   -4.7140    4.4390 hn        1 GPL      0.393300
     46 HA         -2.2380    7.0150   -7.0410 h1        1 GPL      0.032700
     47 HB2        -0.5790    7.7810   -5.3120 hc        1 GPL      0.034700
     48 HB3        -1.8330    6.5960   -4.7470 hc        1 GPL      0.034700
     49 HG2         1.0360    5.7880   -5.5400 hc        1 GPL      0.040700
     50 HG3        -0.2090    4.7620   -4.7180 hc        1 GPL      0.040700
     51 HD2        -0.2450    6.4500   -2.7960 hc        1 GPL      0.032700
     52 HD3         1.1400    7.2980   -3.5860 hc        1 GPL      0.032700
     53 HE2         1.0530    4.3410   -2.6060 h1        1 GPL      0.034700
     54 HE3         2.3980    5.0670   -3.6100 h1        1 GPL      0.034700
     55 HZ          2.6420    6.6170   -1.6550 hn        1 GPL      0.412800
     56 H          -1.4780    4.9670   -8.1640 hn        1 GPL      0.329800
     57 H2         -0.8270    4.4880   -6.7740 hn        1 GPL      0.329800
@<TRIPOS>BOND
     1    1    2 1   
     2    1    3 1   
     3    1    4 1   
     4    1   30 1   
     5    4    5 1   
     6    5    6 1   
     7    5   34 1   
     8    5   35 1   
     9    6    7 1   
    10    6    8 1   
    11    6   36 1   
    12    7   12 1   
    13    8    9 1   
    14    8   10 1   
    15    8   37 1   
    16    9   38 1   
    17   10   11 1   
    18   10   12 1   
    19   10   39 1   
    20   11   40 1   
    21   12   13 1   
    22   12   41 1   
    23   13   14 1   
    24   13   23 1   
    25   14   15 2   
    26   14   42 1   
    27   15   16 1   
    28   16   17 1   
    29   16   23 2   
    30   17   18 2   
    31   17   19 1   
    32   19   20 1   
    33   19   43 1   
    34   20   21 1   
    35   20   22 2   
    36   21   44 1   
    37   21   45 1   
    38   22   23 1   
    39   24   25 1   
    40   24   56 1   
    41   24   57 1   
    42   25   26 1   
    43   25   31 1   
    44   25   46 1   
    45   26   27 1   
    46   26   47 1   
    47   26   48 1   
    48   27   28 1   
    49   27   49 1   
    50   27   50 1   
    51   28   29 1   
    52   28   51 1   
    53   28   52 1   
    54   29   30 1   
    55   29   53 1   
    56   29   54 1   
    57   30   55 1   
    58   31   32 1   
    59   31   33 1   
@<TRIPOS>SUBSTRUCTURE
     1 GPL         1 TEMP              0 ****  ****    0 ROOT
