@<TRIPOS>MOLECULE
GPM
   29    29     1     0     0
SMALL
bcc


@<TRIPOS>ATOM
      1 C1         -0.2460    0.9550   -1.0940 c3        1 GPM      0.214100
      2 C2         -1.5860    1.6400   -0.6890 c3        1 GPM      0.111100
      3 C3         -2.2760    0.8400    0.4300 c3        1 GPM      0.091100
      4 C4         -2.3700   -0.6570    0.0760 c3        1 GPM      0.090100
      5 C5         -0.9990   -1.1680   -0.3860 c3        1 GPM      0.033100
      6 C6         -1.0220   -2.6290   -0.8310 c3        1 GPM      0.167400
      7 C7          0.8010    1.0810   -0.0350 c3        1 GPM     -0.331600
      8 O2         -1.3820    2.9820   -0.2910 oh        1 GPM     -0.628800
      9 O3         -3.5890    1.3700    0.6080 oh        1 GPM     -0.620800
     10 O4         -2.8630   -1.3660    1.2060 oh        1 GPM     -0.644800
     11 O5         -0.5930   -0.3800   -1.4990 os        1 GPM     -0.428600
     12 O6         -0.3570   -3.4680    0.0880 oh        1 GPM     -0.678800
     13 P           2.3270   -0.1560    0.6160 p5        1 GPM      1.216700
     14 O1P         1.6210   -1.4600    0.9010 o         1 GPM     -0.918167
     15 O2P         3.3100   -0.1620   -0.5080 o         1 GPM     -0.918167
     16 O3P         2.6790    0.6510    1.8250 o         1 GPM     -0.918167
     17 H1          0.1060    1.4120   -2.0620 h1        1 GPM      0.036700
     18 H2         -2.2810    1.7070   -1.5700 h1        1 GPM      0.042700
     19 H3         -1.7030    0.9630    1.3910 h1        1 GPM      0.057700
     20 H4         -3.1510   -0.8010   -0.7210 h1        1 GPM      0.044700
     21 H5         -0.2240   -1.0480    0.4510 h1        1 GPM      0.177700
     22 H61        -2.0740   -3.0190   -0.8820 h1        1 GPM      0.014700
     23 H62        -0.5390   -2.7220   -1.8410 h1        1 GPM      0.014700
     24 H71         1.4810    1.9190   -0.2750 hc        1 GPM      0.025200
     25 H72         0.3630    1.2080    0.9740 hc        1 GPM      0.025200
     26 HO2        -0.5850    2.9900    0.2620 ho        1 GPM      0.419000
     27 HO3        -4.0290    0.7650    1.2180 ho        1 GPM      0.387000
     28 HO4        -2.0930   -1.7130    1.6770 ho        1 GPM      0.423000
     29 HO6         0.4690   -3.0130    0.3650 ho        1 GPM      0.495000
@<TRIPOS>BOND
     1    1    2 1   
     2    1    7 1   
     3    1   11 1   
     4    1   17 1   
     5    2    3 1   
     6    2    8 1   
     7    2   18 1   
     8    3    4 1   
     9    3    9 1   
    10    3   19 1   
    11    4    5 1   
    12    4   10 1   
    13    4   20 1   
    14    5    6 1   
    15    5   11 1   
    16    5   21 1   
    17    6   12 1   
    18    6   22 1   
    19    6   23 1   
    20    7   13 1   
    21    7   24 1   
    22    7   25 1   
    23    8   26 1   
    24    9   27 1   
    25   10   28 1   
    26   12   29 1   
    27   13   14 1   
    28   13   15 1   
    29   13   16 1   
@<TRIPOS>SUBSTRUCTURE
     1 GPM         1 TEMP              0 ****  ****    0 ROOT
