@<TRIPOS>MOLECULE
GPM
   29    29     1     0     0
SMALL
bcc


@<TRIPOS>ATOM
      1 C1         -0.2870    0.1820   -0.8630 c3        1 GPM      0.141100
      2 C2          1.2270    0.1820   -0.8630 c3        1 GPM      0.076100
      3 C3          1.7920    0.1820    0.5120 c3        1 GPM      0.118100
      4 C4          1.2140   -0.9050    1.3610 c3        1 GPM      0.093100
      5 C5         -0.3060   -0.9020    1.3500 c3        1 GPM      0.082100
      6 C6         -0.7950    0.3180    2.0780 c3        1 GPM      0.138400
      7 C7         -0.7700   -0.0020   -2.2610 c3        1 GPM     -0.283600
      8 O2          1.6940   -0.9920   -1.5580 oh        1 GPM     -0.644800
      9 O3          1.5120    1.4620    1.1340 oh        1 GPM     -0.642800
     10 O4          1.6780   -2.1700    0.8730 oh        1 GPM     -0.637800
     11 O5         -0.8570   -0.8970   -0.0090 os        1 GPM     -0.432600
     12 O6         -2.0500    0.0450    2.6620 oh        1 GPM     -0.655800
     13 P          -2.4250    0.7530   -2.4400 p5        1 GPM      1.219700
     14 O1P        -2.3470    2.2240   -2.0980 o         1 GPM     -0.947167
     15 O2P        -3.3940    0.0690   -1.5030 o         1 GPM     -0.947167
     16 O3P        -2.9020    0.5910   -3.8660 o         1 GPM     -0.947167
     17 H1         -0.6020    1.0450   -0.5310 h1        1 GPM      0.101700
     18 H2          1.5440    0.9760   -1.3340 h1        1 GPM      0.103700
     19 H3          2.7590    0.0610    0.4570 h1        1 GPM      0.036700
     20 H4          1.5240   -0.7880    2.2790 h1        1 GPM      0.056700
     21 H5         -0.6250   -1.6970    1.8170 h1        1 GPM      0.046700
     22 H61        -0.1570    0.5580    2.7760 h1        1 GPM      0.022200
     23 H62        -0.8830    1.0590    1.4490 h1        1 GPM      0.022200
     24 H71        -0.1480    0.4270   -2.8790 hc        1 GPM      0.036700
     25 H72        -0.8240   -0.9550   -2.4640 hc        1 GPM      0.036700
     26 HO2         2.3280   -0.7620   -2.1350 ho        1 GPM      0.415000
     27 HO3         2.2680    1.9180    1.2250 ho        1 GPM      0.470000
     28 HO4         2.0520   -2.6250    1.5380 ho        1 GPM      0.415000
     29 HO6        -2.2180    0.6440    3.2950 ho        1 GPM      0.504000
@<TRIPOS>BOND
     1    1    2 1   
     2    1    7 1   
     3    1   11 1   
     4    1   17 1   
     5    2    3 1   
     6    2    8 1   
     7    2   18 1   
     8    3    4 1   
     9    3    9 1   
    10    3   19 1   
    11    4    5 1   
    12    4   10 1   
    13    4   20 1   
    14    5    6 1   
    15    5   11 1   
    16    5   21 1   
    17    6   12 1   
    18    6   22 1   
    19    6   23 1   
    20    7   13 1   
    21    7   24 1   
    22    7   25 1   
    23    8   26 1   
    24    9   27 1   
    25   10   28 1   
    26   12   29 1   
    27   13   14 1   
    28   13   15 1   
    29   13   16 1   
@<TRIPOS>SUBSTRUCTURE
     1 GPM         1 TEMP              0 ****  ****    0 ROOT
