@<TRIPOS>MOLECULE
GPN
   37    35     1     0     0
SMALL
bcc


@<TRIPOS>ATOM
      1 C8'        -0.3040    0.8950    0.2550 c3        1 GPN     -0.029000
      2 C7'         1.2070    1.0340    0.0900 c2        1 GPN      0.288000
      3 O7'         1.9270    1.1640    1.0850 o         1 GPN     -0.351000
      4 C5'         2.5630    2.2290   -1.6160 c3        1 GPN     -0.011000
      5 C'          1.6330    3.3420   -2.1210 c2        1 GPN      0.295000
      6 O1'         0.9270    3.9800   -1.3120 o         1 GPN     -0.341000
      7 OXT         1.6350    3.6560   -3.3300 o         1 GPN     -0.341000
      8 N4'         1.7860    1.0960   -1.2330 n         1 GPN     -0.316000
      9 C3'         1.7040   -0.0450   -2.1070 c3        1 GPN     -0.030000
     10 C2'         0.6070    0.1960   -3.1670 c3        1 GPN     -0.092000
     11 N1'         0.5750   -0.8860   -4.0630 n4        1 GPN     -0.363000
     12 N9         -0.6080    0.6100    1.6060 n3        1 GPN     -0.166000
     13 C8         -0.7520    1.6590    2.4460 c1        1 GPN     -0.077000
     14 N7         -1.3360    1.2080    3.5870 n2        1 GPN     -0.056000
     15 C5         -1.5510   -0.1140    3.4510 c1        1 GPN     -0.237000
     16 C6         -2.1970   -1.1260    4.3530 c1        1 GPN      0.398000
     17 O6         -2.4650   -0.8310    5.5020 o         1 GPN     -0.316000
     18 N1         -2.3850   -2.4410    3.9070 n3        1 GPN     -0.349000
     19 C2         -1.9630   -2.8140    2.5990 c2        1 GPN      0.243000
     20 N2         -2.1070   -4.1600    2.1630 n3        1 GPN     -0.335000
     21 N3         -1.3450   -1.8400    1.7370 n1        1 GPN     -0.261000
     22 C4         -1.1000   -0.4880    2.2220 c1        1 GPN      0.059000
     23 H8'1       -0.7320    1.7190   -0.0030 h1        1 GPN      0.136000
     24 H8'2       -0.6280    0.1690   -0.3120 h1        1 GPN      0.136000
     25 H5'1        3.0710    2.5540   -0.8420 h1        1 GPN      0.142000
     26 H5'2        3.1860    1.9720   -2.3310 h1        1 GPN      0.142000
     27 H3'1        2.5750   -0.1770   -2.5580 h1        1 GPN      0.108000
     28 H3'2        1.4810   -0.8500   -1.5770 h1        1 GPN      0.108000
     29 H2'1       -0.2600    0.2770   -2.7250 hx        1 GPN      0.071000
     30 H2'2        0.8040    1.0320   -3.6630 hx        1 GPN      0.071000
     31 H1'1        0.9390   -1.6340   -3.6570 hn        1 GPN      0.188667
     32 H1'2       -0.2990   -1.0600   -4.3050 hn        1 GPN      0.188667
     33 H1'3        1.0610   -0.6780   -4.8080 hn        1 GPN      0.188667
     34 H8         -0.4770    2.5670    2.2710 DU        1 GPN      0.223000
     35 HN1        -2.8500   -3.0280    4.4150 hn        1 GPN      0.249000
     36 HN21       -2.4140   -4.7990    2.7450 hn        1 GPN      0.219000
     37 HN22       -1.9060   -4.3860    1.2970 hn        1 GPN      0.219000
@<TRIPOS>BOND
     1    1    2 1   
     2    1   12 1   
     3    1   23 1   
     4    1   24 1   
     5    2    3 1   
     6    2    8 1   
     7    4    5 1   
     8    4    8 1   
     9    4   25 1   
    10    4   26 1   
    11    5    6 1   
    12    5    7 1   
    13    8    9 1   
    14    9   10 1   
    15    9   27 1   
    16    9   28 1   
    17   10   11 1   
    18   10   29 1   
    19   10   30 1   
    20   11   31 1   
    21   11   32 1   
    22   11   33 1   
    23   12   13 1   
    24   12   22 1   
    25   13   14 1   
    26   14   15 1   
    27   15   22 1   
    28   16   17 1   
    29   16   18 1   
    30   18   19 1   
    31   18   35 1   
    32   19   20 1   
    33   19   21 1   
    34   20   36 1   
    35   20   37 1   
@<TRIPOS>SUBSTRUCTURE
     1 GPN         1 TEMP              0 ****  ****    0 ROOT
