@<TRIPOS>MOLECULE
GPN
   37    38     1     0     0
SMALL
bcc


@<TRIPOS>ATOM
      1 C8'        -0.0930    0.2170   -1.2640 c3        1 GPN     -0.013700
      2 C7'        -1.2330    0.5300   -0.2780 c         1 GPN      0.631100
      3 O7'        -1.0920    1.3170    0.6740 o         1 GPN     -0.573100
      4 C5'        -3.4880    0.1620    0.4950 c3        1 GPN      0.010000
      5 C'         -4.8990   -0.1830    0.0680 c         1 GPN      0.625100
      6 O1'        -5.6450   -0.9930    0.8740 oh        1 GPN     -0.583100
      7 OXT        -5.5000    0.2110   -0.9300 o         1 GPN     -0.489000
      8 N4'        -2.4820   -0.0450   -0.5250 n         1 GPN     -0.450800
      9 C3'        -2.6650   -1.1180   -1.4670 c3        1 GPN      0.074000
     10 C2'        -2.4740   -2.5470   -0.9100 c3        1 GPN      0.127800
     11 N1'        -3.4450   -2.8930    0.0980 n3        1 GPN     -0.936800
     12 N9          1.1820    0.7370   -0.8970 na        1 GPN     -0.201900
     13 C8          1.6390    2.0760   -1.0470 cc        1 GPN      0.417400
     14 N7          2.8610    2.2760   -0.5290 nd        1 GPN     -0.580000
     15 C5          3.2310    1.0420    0.0160 cd        1 GPN      0.183800
     16 C6          4.4430    0.6440    0.7020 c         1 GPN      0.652000
     17 O6          5.4450    1.3250    0.9620 o         1 GPN     -0.593500
     18 N1          4.4450   -0.7160    1.1230 n         1 GPN     -0.508400
     19 C2          3.3800   -1.5980    0.8600 cd        1 GPN      0.685800
     20 N2          3.5550   -2.9520    1.2250 nh        1 GPN     -0.892800
     21 N3          2.2270   -1.2460    0.2360 nc        1 GPN     -0.681100
     22 C4          2.1890    0.0700   -0.1840 cc        1 GPN      0.118800
     23 H8'1        0.0010   -0.9040   -1.3620 h1        1 GPN      0.091700
     24 H8'2       -0.3780    0.6610   -2.2630 h1        1 GPN      0.091700
     25 H5'1       -3.4840    1.2600    0.7740 h1        1 GPN      0.085200
     26 H5'2       -3.2180   -0.4270    1.4210 h1        1 GPN      0.085200
     27 H3'1       -3.7050   -1.0260   -1.9010 h1        1 GPN      0.068700
     28 H3'2       -1.9440   -0.9910   -2.3230 h1        1 GPN      0.068700
     29 H2'1       -2.5030   -3.2400   -1.8030 h1        1 GPN      0.039200
     30 H2'2       -1.4500   -2.6370   -0.4480 h1        1 GPN      0.039200
     31 H1'1       -3.2820   -3.8190    0.4400 hn        1 GPN      0.360800
     32 H1'2       -5.1150   -1.3090    1.6200 ho        1 GPN      0.439000
     33 H1'3       -4.3800   -2.8290   -0.2600 hn        1 GPN      0.360800
     34 H8          1.0220    2.8330   -1.5420 h5        1 GPN      0.072100
     35 HN1         5.2770   -1.0520    1.5570 hn        1 GPN      0.335500
     36 HN21        4.0740   -3.1080    2.0600 hn        1 GPN      0.420300
     37 HN22        2.7370   -3.5160    1.1430 hn        1 GPN      0.420300
@<TRIPOS>BOND
     1    1    2 1   
     2    1   12 1   
     3    1   23 1   
     4    1   24 1   
     5    2    3 2   
     6    2    8 1   
     7    4    5 1   
     8    4    8 1   
     9    4   25 1   
    10    4   26 1   
    11    5    6 1   
    12    5    7 2   
    13    6   32 1   
    14    8    9 1   
    15    9   10 1   
    16    9   27 1   
    17    9   28 1   
    18   10   11 1   
    19   10   29 1   
    20   10   30 1   
    21   11   31 1   
    22   11   33 1   
    23   12   13 1   
    24   12   22 1   
    25   13   14 2   
    26   13   34 1   
    27   14   15 1   
    28   15   16 1   
    29   15   22 2   
    30   16   17 2   
    31   16   18 1   
    32   18   19 1   
    33   18   35 1   
    34   19   20 1   
    35   19   21 2   
    36   20   36 1   
    37   20   37 1   
    38   21   22 1   
@<TRIPOS>SUBSTRUCTURE
     1 GPN         1 TEMP              0 ****  ****    0 ROOT
