@<TRIPOS>MOLECULE
GPO
   31    31     1     0     0
SMALL
bcc


@<TRIPOS>ATOM
      1 OXT         0.0740    0.0290   -0.1990 oh        1 GPO     -0.622800
      2 C1          1.4730    0.1640   -0.1110 c3        1 GPO      0.330900
      3 C2          1.9580    0.2160    1.3470 c3        1 GPO      0.084100
      4 C3          3.4830    0.0440    1.4030 c3        1 GPO      0.103100
      5 C4          3.9530   -1.1860    0.5800 c3        1 GPO      0.182100
      6 C5          3.3520   -1.1220   -0.8430 c3        1 GPO      0.096100
      7 C6          3.6170   -2.4320   -1.6120 c3        1 GPO      0.143100
      8 C7          2.7360   -2.5250   -2.8620 c3        1 GPO      0.136400
      9 O2          1.2600   -0.7670    2.0950 oh        1 GPO     -0.634800
     10 O3          3.8260   -0.0720    2.7670 oh        1 GPO     -0.679800
     11 O4          5.3230   -1.1830    0.5220 os        1 GPO     -0.556200
     12 O5          1.9220   -0.9810   -0.8110 os        1 GPO     -0.469600
     13 O6          4.9520   -2.4660   -2.0680 oh        1 GPO     -0.673800
     14 O7          3.0870   -3.6260   -3.6840 oh        1 GPO     -0.650800
     15 P           6.0610   -2.5310    1.3480 p5        1 GPO      1.321900
     16 O2A         5.2720   -2.4720    2.6340 o         1 GPO     -0.910500
     17 O3A         5.6380   -3.5960    0.3670 o         1 GPO     -0.910500
     18 O4A         7.5130   -2.1890    1.4150 o         1 GPO     -0.910500
     19 HOXT       -0.1510   -0.7850    0.2730 ho        1 GPO      0.421000
     20 H1          1.7400    1.1070   -0.6630 h2        1 GPO      0.043700
     21 H2          1.6610    1.2080    1.7900 h1        1 GPO      0.032700
     22 H3          3.9680    0.9740    0.9960 h1        1 GPO      0.028700
     23 H4          3.5670   -2.1200    1.0920 h1        1 GPO      0.059700
     24 H5          3.7910   -0.2540   -1.4050 h1        1 GPO      0.034700
     25 H6          3.4240   -3.3080   -0.9290 h1        1 GPO      0.081700
     26 H7          2.8300   -1.5860   -3.4710 h1        1 GPO      0.026200
     27 H7A         1.6640   -2.6790   -2.5740 h1        1 GPO      0.026200
     28 HO2         1.9260   -1.3590    2.4780 ho        1 GPO      0.441000
     29 HO3         4.4650   -0.8300    2.8540 ho        1 GPO      0.500000
     30 HO6         5.5030   -2.6820   -1.2710 ho        1 GPO      0.502000
     31 HO7         4.0280   -3.7980   -3.5350 ho        1 GPO      0.425000
@<TRIPOS>BOND
     1    1    2 1   
     2    1   19 1   
     3    2    3 1   
     4    2   12 1   
     5    2   20 1   
     6    3    4 1   
     7    3    9 1   
     8    3   21 1   
     9    4    5 1   
    10    4   10 1   
    11    4   22 1   
    12    5    6 1   
    13    5   11 1   
    14    5   23 1   
    15    6    7 1   
    16    6   12 1   
    17    6   24 1   
    18    7    8 1   
    19    7   13 1   
    20    7   25 1   
    21    8   14 1   
    22    8   26 1   
    23    8   27 1   
    24    9   28 1   
    25   10   29 1   
    26   11   15 1   
    27   13   30 1   
    28   14   31 1   
    29   15   16 1   
    30   15   17 1   
    31   15   18 1   
@<TRIPOS>SUBSTRUCTURE
     1 GPO         1 TEMP              0 ****  ****    0 ROOT
