@<TRIPOS>MOLECULE
GPO
   31    31     1     0     0
SMALL
bcc


@<TRIPOS>ATOM
      1 OXT        -4.2270   -0.6790    0.0100 oh        1 GPO     -0.622800
      2 C1         -2.9800   -0.6950    0.6630 c3        1 GPO      0.330900
      3 C2         -2.1710   -1.9600    0.3310 c3        1 GPO      0.084100
      4 C3         -0.7170   -1.7940    0.7980 c3        1 GPO      0.103100
      5 C4         -0.1060   -0.4540    0.3060 c3        1 GPO      0.182100
      6 C5         -1.0490    0.7150    0.6720 c3        1 GPO      0.096100
      7 C6         -0.5820    2.0270    0.0090 c3        1 GPO      0.143100
      8 C7         -1.6830    3.0930    0.0630 c3        1 GPO      0.136400
      9 O2         -2.2830   -2.2210   -1.0580 oh        1 GPO     -0.634800
     10 O3         -0.0060   -2.9090    0.3060 oh        1 GPO     -0.679800
     11 O4          1.1200   -0.2830    0.8970 os        1 GPO     -0.556200
     12 O5         -2.3840    0.4950    0.1850 os        1 GPO     -0.469600
     13 O6          0.5170    2.5620    0.7120 oh        1 GPO     -0.673800
     14 O7         -1.2210    4.3610   -0.3720 oh        1 GPO     -0.650800
     15 P           2.4510   -0.3150   -0.2300 p5        1 GPO      1.321900
     16 O2A         2.0570   -1.5440   -1.0150 o         1 GPO     -0.910500
     17 O3A         2.1570    1.0080   -0.8920 o         1 GPO     -0.910500
     18 O4A         3.6720   -0.4050    0.6230 o         1 GPO     -0.910500
     19 HOXT       -4.0390   -0.7330   -0.9380 ho        1 GPO      0.421000
     20 H1         -3.1940   -0.6260    1.7660 h2        1 GPO      0.043700
     21 H2         -2.6480   -2.8380    0.8490 h1        1 GPO      0.032700
     22 H3         -0.6910   -1.8270    1.9220 h1        1 GPO      0.028700
     23 H4         -0.0130   -0.5020   -0.8220 h1        1 GPO      0.059700
     24 H5         -1.0850    0.8430    1.7880 h1        1 GPO      0.034700
     25 H6         -0.2890    1.8180   -1.0590 h1        1 GPO      0.081700
     26 H7         -2.5270    2.8160   -0.6200 h1        1 GPO      0.026200
     27 H7A        -2.0670    3.1980    1.1120 h1        1 GPO      0.026200
     28 HO2        -1.3830   -2.2220   -1.4200 ho        1 GPO      0.441000
     29 HO3         0.8450   -2.5760   -0.0860 ho        1 GPO      0.500000
     30 HO6         1.3000    2.0100    0.4480 ho        1 GPO      0.502000
     31 HO7        -0.2720    4.3930   -0.1850 ho        1 GPO      0.425000
@<TRIPOS>BOND
     1    1    2 1   
     2    1   19 1   
     3    2    3 1   
     4    2   12 1   
     5    2   20 1   
     6    3    4 1   
     7    3    9 1   
     8    3   21 1   
     9    4    5 1   
    10    4   10 1   
    11    4   22 1   
    12    5    6 1   
    13    5   11 1   
    14    5   23 1   
    15    6    7 1   
    16    6   12 1   
    17    6   24 1   
    18    7    8 1   
    19    7   13 1   
    20    7   25 1   
    21    8   14 1   
    22    8   26 1   
    23    8   27 1   
    24    9   28 1   
    25   10   29 1   
    26   11   15 1   
    27   13   30 1   
    28   14   31 1   
    29   15   16 1   
    30   15   17 1   
    31   15   18 1   
@<TRIPOS>SUBSTRUCTURE
     1 GPO         1 TEMP              0 ****  ****    0 ROOT
