@<TRIPOS>MOLECULE
GPO
   31    31     1     0     0
SMALL
bcc


@<TRIPOS>ATOM
      1 OXT        -2.3110   -0.4610    0.8740 oh        1 GPO     -0.633800
      2 C1         -1.9110    0.8650    0.0790 c3        1 GPO      0.326900
      3 C2         -1.3010    1.7200    1.0360 c3        1 GPO      0.078100
      4 C3          0.1210    1.3950    1.2070 c3        1 GPO      0.109100
      5 C4          0.4950   -0.0780    0.6870 c3        1 GPO      0.180100
      6 C5          0.0860    0.1540   -0.8500 c3        1 GPO      0.084100
      7 C6          0.4150   -1.0510   -1.6120 c3        1 GPO      0.126100
      8 C7          0.1180   -0.8150   -3.0820 c3        1 GPO      0.136400
      9 O2         -1.9960    1.5570    2.3430 oh        1 GPO     -0.638800
     10 O3          0.4420    1.4890    2.5630 oh        1 GPO     -0.663800
     11 O4          1.7090   -0.3200    0.8120 os        1 GPO     -0.547200
     12 O5         -1.3440    0.4570   -1.0360 os        1 GPO     -0.471600
     13 O6          1.8060   -1.3540   -1.4490 oh        1 GPO     -0.679800
     14 O7          0.4220   -1.9750   -3.8170 oh        1 GPO     -0.649800
     15 P           2.1890   -1.1440    2.0790 p5        1 GPO      1.322900
     16 O2A         0.9930   -1.6800    2.8080 o         1 GPO     -0.909167
     17 O3A         2.9780   -0.2370    3.0030 o         1 GPO     -0.909167
     18 O4A         3.0680   -2.2960    1.6300 o         1 GPO     -0.909167
     19 HOXT       -3.1990   -0.6040    0.7930 ho        1 GPO      0.429000
     20 H1         -2.7590    1.3090   -0.1880 h2        1 GPO      0.053700
     21 H2         -1.3860    2.6530    0.7390 h1        1 GPO      0.028700
     22 H3          0.6570    2.0510    0.7100 h1        1 GPO      0.034700
     23 H4         -0.0620   -0.7630    1.1090 h1        1 GPO      0.045700
     24 H5          0.6090    0.8960   -1.2010 h1        1 GPO      0.066700
     25 H6         -0.1230   -1.8010   -1.2860 h1        1 GPO      0.045700
     26 H7         -0.8270   -0.6000   -3.1920 h1        1 GPO      0.030200
     27 H7A         0.6600   -0.0720   -3.4080 h1        1 GPO      0.030200
     28 HO2        -2.4650    2.3040    2.5300 ho        1 GPO      0.464000
     29 HO3         0.7480    2.3190    2.7430 ho        1 GPO      0.491000
     30 HO6         2.0300   -2.0350   -1.9860 ho        1 GPO      0.508000
     31 HO7         0.1370   -1.8820   -4.6400 ho        1 GPO      0.423000
@<TRIPOS>BOND
     1    1    2 1   
     2    1   19 1   
     3    2    3 1   
     4    2   12 1   
     5    2   20 1   
     6    3    4 1   
     7    3    9 1   
     8    3   21 1   
     9    4    5 1   
    10    4   10 1   
    11    4   22 1   
    12    5    6 1   
    13    5   11 1   
    14    5   23 1   
    15    6    7 1   
    16    6   12 1   
    17    6   24 1   
    18    7    8 1   
    19    7   13 1   
    20    7   25 1   
    21    8   14 1   
    22    8   26 1   
    23    8   27 1   
    24    9   28 1   
    25   10   29 1   
    26   11   15 1   
    27   13   30 1   
    28   14   31 1   
    29   15   16 1   
    30   15   17 1   
    31   15   18 1   
@<TRIPOS>SUBSTRUCTURE
     1 GPO         1 TEMP              0 ****  ****    0 ROOT
