@<TRIPOS>MOLECULE
GPO
   31    31     1     0     0
SMALL
bcc


@<TRIPOS>ATOM
      1 OXT         0.0760    0.0310   -0.1940 oh        1 GPO     -0.622800
      2 C1          1.4750    0.1640   -0.1100 c3        1 GPO      0.330900
      3 C2          1.9630    0.2140    1.3480 c3        1 GPO      0.084100
      4 C3          3.4880    0.0410    1.4000 c3        1 GPO      0.103100
      5 C4          3.9540   -1.1900    0.5760 c3        1 GPO      0.182100
      6 C5          3.3510   -1.1230   -0.8470 c3        1 GPO      0.096100
      7 C6          3.6120   -2.4330   -1.6170 c3        1 GPO      0.143100
      8 C7          2.7280   -2.5240   -2.8660 c3        1 GPO      0.136400
      9 O2          1.2650   -0.7680    2.0970 oh        1 GPO     -0.634800
     10 O3          3.8340   -0.0770    2.7630 oh        1 GPO     -0.679800
     11 O4          5.3250   -1.1880    0.5140 os        1 GPO     -0.556200
     12 O5          1.9210   -0.9800   -0.8120 os        1 GPO     -0.469600
     13 O6          4.9460   -2.4690   -2.0760 oh        1 GPO     -0.673800
     14 O7          3.0770   -3.6240   -3.6890 oh        1 GPO     -0.650800
     15 P           6.0630   -2.5370    1.3370 p5        1 GPO      1.321900
     16 O2A         5.2770   -2.4780    2.6250 o         1 GPO     -0.910500
     17 O3A         5.6370   -3.6010    0.3570 o         1 GPO     -0.910500
     18 O4A         7.5150   -2.1970    1.4010 o         1 GPO     -0.910500
     19 HOXT       -0.1490   -0.7830    0.2770 ho        1 GPO      0.421000
     20 H1          1.7420    1.1070   -0.6610 h2        1 GPO      0.043700
     21 H2          1.6680    1.2060    1.7920 h1        1 GPO      0.032700
     22 H3          3.9730    0.9700    0.9930 h1        1 GPO      0.028700
     23 H4          3.5690   -2.1230    1.0870 h1        1 GPO      0.059700
     24 H5          3.7890   -0.2560   -1.4090 h1        1 GPO      0.034700
     25 H6          3.4200   -3.3090   -0.9350 h1        1 GPO      0.081700
     26 H7          2.8220   -1.5850   -3.4740 h1        1 GPO      0.026200
     27 H7A         1.6570   -2.6770   -2.5750 h1        1 GPO      0.026200
     28 HO2         1.9320   -1.3610    2.4780 ho        1 GPO      0.441000
     29 HO3         4.4720   -0.8350    2.8490 ho        1 GPO      0.500000
     30 HO6         5.4990   -2.6850   -1.2800 ho        1 GPO      0.502000
     31 HO7         4.0180   -3.7990   -3.5420 ho        1 GPO      0.425000
@<TRIPOS>BOND
     1    1    2 1   
     2    1   19 1   
     3    2    3 1   
     4    2   12 1   
     5    2   20 1   
     6    3    4 1   
     7    3    9 1   
     8    3   21 1   
     9    4    5 1   
    10    4   10 1   
    11    4   22 1   
    12    5    6 1   
    13    5   11 1   
    14    5   23 1   
    15    6    7 1   
    16    6   12 1   
    17    6   24 1   
    18    7    8 1   
    19    7   13 1   
    20    7   25 1   
    21    8   14 1   
    22    8   26 1   
    23    8   27 1   
    24    9   28 1   
    25   10   29 1   
    26   11   15 1   
    27   13   30 1   
    28   14   31 1   
    29   15   16 1   
    30   15   17 1   
    31   15   18 1   
@<TRIPOS>SUBSTRUCTURE
     1 GPO         1 TEMP              0 ****  ****    0 ROOT
