@<TRIPOS>MOLECULE
GPP
   36    33     1     0     0
SMALL
bcc


@<TRIPOS>ATOM
      1 C1          1.3800    0.6610   -1.9010 c3        1 GPP      0.123000
      2 O1          2.7570    0.3630   -1.9020 os        1 GPP     -0.710000
      3 C2          0.8750    0.7020   -0.4750 c2        1 GPP     -0.034000
      4 C3         -0.3840    1.1080   -0.2180 c1        1 GPP     -0.339000
      5 C4         -1.2920    1.5230   -1.3550 c2        1 GPP     -0.139500
      6 C5         -0.8900    1.1500    1.2070 c3        1 GPP     -0.075000
      7 C6         -1.6820   -0.1060    1.4980 c3        1 GPP     -0.152000
      8 C7         -2.2540   -0.0290    2.8960 c2        1 GPP     -0.097000
      9 C8         -2.9810   -1.0530    3.3840 c1        1 GPP     -0.201000
     10 C9         -3.2260   -2.2800    2.5330 c2        1 GPP     -0.139500
     11 C10        -3.5530   -0.9760    4.7820 c3        1 GPP     -0.155000
     12 PA          3.4980    0.2350   -3.2920 p5        1 GPP      2.065000
     13 O1A         3.1910    1.4460   -4.1400 o         1 GPP     -0.941500
     14 O2A         3.0250   -1.0110   -4.0020 o         1 GPP     -0.941500
     15 O3A         5.0580    0.1430   -3.0510 os        1 GPP     -1.195000
     16 PB          6.1040   -0.1680   -4.1940 p5        1 GPP      1.614500
     17 O1B         5.6200    0.4280   -5.4950 o         1 GPP     -0.924167
     18 O2B         6.2510   -1.6620   -4.3490 o         1 GPP     -0.924167
     19 O3B         7.4400    0.4340   -3.8310 o         1 GPP     -0.924167
     20 H11         0.8960   -0.0300   -2.3990 h1        1 GPP      0.016000
     21 H12         1.2340    1.5320   -2.3240 h1        1 GPP      0.016000
     22 H2          1.4610    0.4350    0.2580 ha        1 GPP      0.169000
     23 H41        -0.8940    2.2820   -1.8310 ha        1 GPP      0.051333
     24 H42        -1.4040    0.7720   -1.9750 ha        1 GPP      0.051333
     25 H43        -2.1660    1.7830   -0.9970 ha        1 GPP      0.051333
     26 H51        -0.1300    1.2050    1.8210 hc        1 GPP      0.052000
     27 H52        -1.4640    1.9330    1.3270 hc        1 GPP      0.052000
     28 H61        -1.0950   -0.8850    1.4280 hc        1 GPP      0.096500
     29 H62        -2.4120   -0.1880    0.8510 hc        1 GPP      0.096500
     30 H7         -2.0970    0.7630    3.4450 ha        1 GPP      0.113000
     31 H91        -2.3670   -2.6840    2.2880 ha        1 GPP      0.051333
     32 H92        -3.7580   -2.9280    3.0400 ha        1 GPP      0.051333
     33 H93        -3.7100   -2.0230    1.7210 ha        1 GPP      0.051333
     34 H101       -3.7880   -0.0470    4.9890 hc        1 GPP      0.057000
     35 H102       -2.8870   -1.2960    5.4260 hc        1 GPP      0.057000
     36 H103       -4.3560   -1.5350    4.8380 hc        1 GPP      0.057000
@<TRIPOS>BOND
     1    1    2 1   
     2    1    3 1   
     3    1   20 1   
     4    1   21 1   
     5    2   12 1   
     6    3    4 1   
     7    3   22 1   
     8    4    6 1   
     9    5   23 1   
    10    5   24 1   
    11    5   25 1   
    12    6    7 1   
    13    6   26 1   
    14    6   27 1   
    15    7    8 1   
    16    7   28 1   
    17    7   29 1   
    18    8    9 1   
    19    8   30 1   
    20    9   11 1   
    21   10   31 1   
    22   10   32 1   
    23   10   33 1   
    24   11   34 1   
    25   11   35 1   
    26   11   36 1   
    27   12   13 1   
    28   12   14 1   
    29   12   15 1   
    30   15   16 1   
    31   16   17 1   
    32   16   18 1   
    33   16   19 1   
@<TRIPOS>SUBSTRUCTURE
     1 GPP         1 TEMP              0 ****  ****    0 ROOT
