@<TRIPOS>MOLECULE
GPP
   36    36     1     0     0
SMALL
bcc


@<TRIPOS>ATOM
      1 C1          0.0000    0.0000    0.0000 c3        1 GPP      0.110000
      2 O1          1.4280    0.0000    0.0000 os        1 GPP     -0.642000
      3 C2         -0.5020    0.0000    1.4210 c2        1 GPP     -0.112000
      4 C3         -1.4820    0.7960    1.7690 c2        1 GPP     -0.241000
      5 C4         -2.1930    1.6170    0.7250 c3        1 GPP     -0.051000
      6 C5         -1.9000    0.8900    3.2130 c3        1 GPP     -0.011000
      7 C6         -1.0990    1.9930    3.9060 DU        1 GPP     -0.075000
      8 C7         -1.5170    2.0860    5.3510 c2        1 GPP     -0.580000
      9 C8         -0.6170    2.0060    6.2990 c2        1 GPP     -0.177000
     10 C9         -1.0450    1.9720    7.7440 c3        1 GPP     -0.060000
     11 C10         0.8470    1.9470    5.9460 c3        1 GPP     -0.060000
     12 PA          1.8930    0.0010   -1.5420 p5        1 GPP      1.336000
     13 O1A         1.3680   -1.2080   -2.2150 o         1 GPP     -0.674500
     14 O2A         1.3230    1.3150   -2.2740 o         1 GPP     -0.674500
     15 O3A         3.5010    0.0000   -1.6160 os        1 GPP     -0.931000
     16 PB          3.8940   -0.0000   -3.1780 p5        1 GPP      1.011500
     17 O1B         3.3380    1.2090   -3.8270 o         1 GPP     -0.648167
     18 O2B         5.4970   -0.0000   -3.3280 o         1 GPP     -0.648167
     19 O3B         3.2900   -1.3130   -3.8840 o         1 GPP     -0.648167
     20 H11        -0.3610    0.8840   -0.5110 h1        1 GPP      0.052500
     21 H12        -0.3610   -0.8850   -0.5110 h1        1 GPP      0.052500
     22 H2          0.0080   -0.5900    2.1730 ha        1 GPP      0.084000
     23 H41        -1.5210    2.3760    0.3430 hc        1 GPP      0.036333
     24 H42        -2.5100    0.9730   -0.0870 hc        1 GPP      0.036333
     25 H43        -3.0600    2.0920    1.1680 hc        1 GPP      0.036333
     26 H51        -2.9570    1.1220    3.2690 hc        1 GPP      0.038000
     27 H52        -1.7120   -0.0570    3.7060 hc        1 GPP      0.038000
     28 H61        -0.0420    1.7610    3.8500 ha        1 GPP      0.034000
     29 H62        -1.2870    2.9400    3.4140 ha        1 GPP      0.034000
     30 H7         -1.1370    2.9440    4.8090 DU        1 GPP      0.202000
     31 H91        -2.1090    2.1660    7.8100 hc        1 GPP      0.021833
     32 H92        -0.8290    0.9960    8.1610 hc        1 GPP      0.021833
     33 H93        -0.5040    2.7290    8.2980 hc        1 GPP      0.021833
     34 H101        1.0590    1.0140    5.4380 hc        1 GPP      0.021833
     35 H102        1.4390    2.0080    6.8510 hc        1 GPP      0.021833
     36 H103        1.0950    2.7770    5.2950 hc        1 GPP      0.021833
@<TRIPOS>BOND
     1    1    2 1   
     2    1    3 1   
     3    1   20 1   
     4    1   21 1   
     5    2   12 1   
     6    3    4 1   
     7    3   22 1   
     8    4    5 1   
     9    4    6 1   
    10    5   23 1   
    11    5   24 1   
    12    5   25 1   
    13    6    7 1   
    14    6   26 1   
    15    6   27 1   
    16    7    8 1   
    17    7   28 1   
    18    7   29 1   
    19    7   30 1   
    20    8    9 1   
    21    8   30 1   
    22    9   10 1   
    23    9   11 1   
    24   10   31 1   
    25   10   32 1   
    26   10   33 1   
    27   11   34 1   
    28   11   35 1   
    29   11   36 1   
    30   12   13 1   
    31   12   14 1   
    32   12   15 1   
    33   15   16 1   
    34   16   17 1   
    35   16   18 1   
    36   16   19 1   
@<TRIPOS>SUBSTRUCTURE
     1 GPP         1 TEMP              0 ****  ****    0 ROOT
