@<TRIPOS>MOLECULE
GPQ
   33    34     1     0     0
SMALL
bcc


@<TRIPOS>ATOM
      1 N1         -0.0990   -0.1740   -0.0590 n         1 GPQ     -0.371000
      2 CL1        -0.9890    0.1770    3.7820 cl        1 GPQ     -0.029400
      3 C2          1.3100    0.0600   -0.0950 c         1 GPQ      0.806500
      4 O2          1.9340    0.0670   -1.1750 o         1 GPQ     -0.621500
      5 N3          1.9810    0.2280    1.1230 n         1 GPQ     -0.583500
      6 C4          1.3360    0.2680    2.3730 c         1 GPQ      0.722700
      7 O4          2.0260    0.4260    3.3890 o         1 GPQ     -0.575500
      8 C5         -0.1330    0.1180    2.3330 cc        1 GPQ     -0.169800
      9 C6         -0.7800   -0.0580    1.1450 cd        1 GPQ      0.049600
     10 C1'        -0.8390   -0.1450   -1.3120 c3        1 GPQ      0.268500
     11 C2'        -1.6780   -1.4330   -1.5520 c3        1 GPQ      0.082100
     12 O2'        -0.8470   -2.5570   -1.7630 oh        1 GPQ     -0.590800
     13 C3'        -2.4750   -1.2660   -2.8580 c3        1 GPQ      0.109100
     14 O3'        -3.3850   -2.3380   -3.0230 oh        1 GPQ     -0.602800
     15 C4'        -3.3210    0.0180   -2.8050 c3        1 GPQ      0.122100
     16 O4'        -3.9100    0.2730   -4.0670 oh        1 GPQ     -0.590800
     17 C5'        -2.4160    1.2150   -2.4800 c3        1 GPQ      0.106100
     18 O5'        -1.7340    0.9810   -1.2430 os        1 GPQ     -0.447600
     19 C6'        -3.2440    2.4860   -2.2610 c3        1 GPQ      0.140400
     20 O6'        -2.4170    3.6200   -2.1470 oh        1 GPQ     -0.588800
     21 HN3         2.9710    0.3560    1.0800 hn        1 GPQ      0.360500
     22 H6         -1.8840   -0.1300    1.0740 h4        1 GPQ      0.185000
     23 H1'        -0.1070   -0.0080   -2.1670 h2        1 GPQ      0.118700
     24 H2'        -2.3810   -1.6150   -0.6940 h1        1 GPQ      0.062700
     25 HO2'       -0.3810   -2.7380   -0.9370 ho        1 GPQ      0.421000
     26 H3'        -1.7660   -1.2300   -3.7320 h1        1 GPQ      0.072700
     27 HO3'       -2.8580   -3.1480   -3.0500 ho        1 GPQ      0.430000
     28 H4'        -4.1230   -0.0930   -2.0230 h1        1 GPQ      0.062700
     29 HO4'       -4.4060   -0.5240   -4.3030 ho        1 GPQ      0.428000
     30 H5'        -1.6670    1.3760   -3.3030 h1        1 GPQ      0.080700
     31 H6'        -3.8770    2.6640   -3.1710 h1        1 GPQ      0.067700
     32 H6'A       -3.8880    2.3710   -1.3500 h1        1 GPQ      0.067700
     33 HO6'       -1.8530    3.4860   -1.3730 ho        1 GPQ      0.409000
@<TRIPOS>BOND
     1    1    3 1   
     2    1    9 1   
     3    1   10 1   
     4    2    8 1   
     5    3    4 2   
     6    3    5 1   
     7    5    6 1   
     8    5   21 1   
     9    6    7 2   
    10    6    8 1   
    11    8    9 2   
    12    9   22 1   
    13   10   11 1   
    14   10   18 1   
    15   10   23 1   
    16   11   12 1   
    17   11   13 1   
    18   11   24 1   
    19   12   25 1   
    20   13   14 1   
    21   13   15 1   
    22   13   26 1   
    23   14   27 1   
    24   15   16 1   
    25   15   17 1   
    26   15   28 1   
    27   16   29 1   
    28   17   18 1   
    29   17   19 1   
    30   17   30 1   
    31   19   20 1   
    32   19   31 1   
    33   19   32 1   
    34   20   33 1   
@<TRIPOS>SUBSTRUCTURE
     1 GPQ         1 TEMP              0 ****  ****    0 ROOT
