@<TRIPOS>MOLECULE
GPQ
   33    34     1     0     0
SMALL
bcc


@<TRIPOS>ATOM
      1 N1          0.7670    0.2180    0.5030 n         1 GPQ     -0.359000
      2 CL1         3.5250   -1.0640   -2.0260 cl        1 GPQ     -0.035400
      3 C2          1.4990    0.4780    1.6980 c         1 GPQ      0.820500
      4 O2          0.9250    0.8540    2.7400 o         1 GPQ     -0.627500
      5 N3          2.8880    0.3020    1.6650 n         1 GPQ     -0.582500
      6 C4          3.5940   -0.1560    0.5370 c         1 GPQ      0.725700
      7 O4          4.8260   -0.2650    0.6170 o         1 GPQ     -0.583500
      8 C5          2.7670   -0.4690   -0.6430 cc        1 GPQ     -0.178800
      9 C6          1.4160   -0.2830   -0.6130 cd        1 GPQ      0.065600
     10 C1'        -0.6740    0.3810    0.5120 c3        1 GPQ      0.310500
     11 C2'        -1.2000    1.4020   -0.5410 c3        1 GPQ      0.117100
     12 O2'        -0.6570    2.6640   -0.2130 oh        1 GPQ     -0.582800
     13 C3'        -2.7350    1.4350   -0.4440 c3        1 GPQ      0.066100
     14 O3'        -3.1780    2.3040   -1.4750 oh        1 GPQ     -0.602800
     15 C4'        -3.3050    0.0230   -0.6520 c3        1 GPQ      0.084100
     16 O4'        -4.7000    0.0250   -0.3980 oh        1 GPQ     -0.587800
     17 C5'        -2.6580   -0.9390    0.3550 c3        1 GPQ      0.108100
     18 O5'        -1.2370   -0.9090    0.1950 os        1 GPQ     -0.445600
     19 C6'        -3.0720   -2.3890    0.0820 c3        1 GPQ      0.140400
     20 O6'        -2.6370   -3.2460    1.1110 oh        1 GPQ     -0.587800
     21 HN3         3.3900    0.5200    2.5010 hn        1 GPQ      0.358500
     22 H6          0.7620   -0.5220   -1.4750 h4        1 GPQ      0.180000
     23 H1'        -0.9970    0.7050    1.5480 h2        1 GPQ      0.119700
     24 H2'        -0.8930    1.1030   -1.5810 h1        1 GPQ      0.061700
     25 HO2'       -1.0600    3.3000   -0.8210 ho        1 GPQ      0.427000
     26 H3'        -3.0470    1.8310    0.5620 h1        1 GPQ      0.072700
     27 HO3'       -4.0760    2.5730   -1.2450 ho        1 GPQ      0.415000
     28 H4'        -3.0940   -0.3180   -1.7030 h1        1 GPQ      0.064700
     29 HO4'       -5.1190    0.4120   -1.1770 ho        1 GPQ      0.410000
     30 H5'        -2.9320   -0.6480    1.4060 h1        1 GPQ      0.080700
     31 H6'        -4.1940   -2.4520    0.0910 h1        1 GPQ      0.064700
     32 H6'A       -2.6680   -2.7230   -0.9100 h1        1 GPQ      0.064700
     33 HO6'       -1.6720   -3.1950    1.1370 ho        1 GPQ      0.412000
@<TRIPOS>BOND
     1    1    3 1   
     2    1    9 1   
     3    1   10 1   
     4    2    8 1   
     5    3    4 2   
     6    3    5 1   
     7    5    6 1   
     8    5   21 1   
     9    6    7 2   
    10    6    8 1   
    11    8    9 2   
    12    9   22 1   
    13   10   11 1   
    14   10   18 1   
    15   10   23 1   
    16   11   12 1   
    17   11   13 1   
    18   11   24 1   
    19   12   25 1   
    20   13   14 1   
    21   13   15 1   
    22   13   26 1   
    23   14   27 1   
    24   15   16 1   
    25   15   17 1   
    26   15   28 1   
    27   16   29 1   
    28   17   18 1   
    29   17   19 1   
    30   17   30 1   
    31   19   20 1   
    32   19   31 1   
    33   19   32 1   
    34   20   33 1   
@<TRIPOS>SUBSTRUCTURE
     1 GPQ         1 TEMP              0 ****  ****    0 ROOT
