@<TRIPOS>MOLECULE
GPQ
   33    34     1     0     0
SMALL
bcc


@<TRIPOS>ATOM
      1 N1          1.3630   -0.0610    1.0760 n         1 GPQ     -0.359000
      2 CL1         0.3350    0.4960    4.9910 cl        1 GPQ     -0.035400
      3 C2          2.8130   -0.1410    1.1520 c         1 GPQ      0.820500
      4 O2          3.4500   -0.3520    0.1680 o         1 GPQ     -0.627500
      5 N3          3.4900    0.0470    2.4330 n         1 GPQ     -0.582500
      6 C4          2.7330    0.2310    3.6110 c         1 GPQ      0.725700
      7 O4          3.2920    0.4410    4.6640 o         1 GPQ     -0.583500
      8 C5          1.2750    0.2680    3.5400 cc        1 GPQ     -0.178800
      9 C6          0.6040    0.1320    2.2470 cd        1 GPQ      0.065600
     10 C1'         0.7240   -0.0780   -0.1750 c3        1 GPQ      0.310500
     11 C2'         0.0200   -1.3850   -0.3390 c3        1 GPQ      0.117100
     12 O2'         1.0030   -2.4400   -0.4290 oh        1 GPQ     -0.582800
     13 C3'        -0.8410   -1.4190   -1.5690 c3        1 GPQ      0.066100
     14 O3'        -1.6120   -2.6260   -1.5620 oh        1 GPQ     -0.602800
     15 C4'        -1.7720   -0.2510   -1.6400 c3        1 GPQ      0.084100
     16 O4'        -2.4250   -0.2570   -2.9150 oh        1 GPQ     -0.587800
     17 C5'        -1.0570    1.0690   -1.4630 c3        1 GPQ      0.108100
     18 O5'        -0.2160    1.0970   -0.2590 os        1 GPQ     -0.445600
     19 C6'        -2.0810    2.1670   -1.3720 c3        1 GPQ      0.140400
     20 O6'        -1.4310    3.4230   -1.4100 oh        1 GPQ     -0.587800
     21 HN3         4.4170   -0.0030    2.4800 hn        1 GPQ      0.358500
     22 H6         -0.3560    0.1840    2.1960 h4        1 GPQ      0.180000
     23 H1'         1.4160    0.0090   -0.8930 h2        1 GPQ      0.119700
     24 H2'        -0.5430   -1.5430    0.4450 h1        1 GPQ      0.061700
     25 HO2'        0.6660   -3.1820   -0.0990 ho        1 GPQ      0.427000
     26 H3'        -0.2490   -1.4140   -2.3820 h1        1 GPQ      0.072700
     27 HO3'       -1.4620   -3.0800   -2.3160 ho        1 GPQ      0.415000
     28 H4'        -2.4510   -0.3430   -0.9330 h1        1 GPQ      0.064700
     29 HO4'       -3.3000   -0.4720   -2.8060 ho        1 GPQ      0.410000
     30 H5'        -0.4860    1.2290   -2.2530 h1        1 GPQ      0.080700
     31 H6'        -2.7060    2.0960   -2.1340 h1        1 GPQ      0.064700
     32 H6'A       -2.5730    2.0820   -0.5420 h1        1 GPQ      0.064700
     33 HO6'       -2.0420    4.0750   -1.5130 ho        1 GPQ      0.412000
@<TRIPOS>BOND
     1    1    3 1   
     2    1    9 1   
     3    1   10 1   
     4    2    8 1   
     5    3    4 2   
     6    3    5 1   
     7    5    6 1   
     8    5   21 1   
     9    6    7 2   
    10    6    8 1   
    11    8    9 2   
    12    9   22 1   
    13   10   11 1   
    14   10   18 1   
    15   10   23 1   
    16   11   12 1   
    17   11   13 1   
    18   11   24 1   
    19   12   25 1   
    20   13   14 1   
    21   13   15 1   
    22   13   26 1   
    23   14   27 1   
    24   15   16 1   
    25   15   17 1   
    26   15   28 1   
    27   16   29 1   
    28   17   18 1   
    29   17   19 1   
    30   17   30 1   
    31   19   20 1   
    32   19   31 1   
    33   19   32 1   
    34   20   33 1   
@<TRIPOS>SUBSTRUCTURE
     1 GPQ         1 TEMP              0 ****  ****    0 ROOT
