@<TRIPOS>MOLECULE
GPQ
   33    34     1     0     0
SMALL
bcc


@<TRIPOS>ATOM
      1 N1         -0.0820   -0.2440   -0.0280 n         1 GPQ     -0.369000
      2 CL1        -0.9680    0.1400    3.8120 cl        1 GPQ     -0.032400
      3 C2          1.3350   -0.0550   -0.0600 c         1 GPQ      0.807500
      4 O2          1.9630   -0.0810   -1.1380 o         1 GPQ     -0.622500
      5 N3          2.0070    0.1010    1.1580 n         1 GPQ     -0.583500
      6 C4          1.3600    0.1690    2.4060 c         1 GPQ      0.723700
      7 O4          2.0520    0.3190    3.4230 o         1 GPQ     -0.578500
      8 C5         -0.1110    0.0570    2.3640 cc        1 GPQ     -0.171800
      9 C6         -0.7600   -0.1030    1.1750 cd        1 GPQ      0.054600
     10 C1'        -0.8190   -0.1770   -1.2820 c3        1 GPQ      0.266500
     11 C2'        -1.6590   -1.4570   -1.5600 c3        1 GPQ      0.081100
     12 O2'        -0.8320   -2.5760   -1.8110 oh        1 GPQ     -0.592800
     13 C3'        -2.4620   -1.2470   -2.8560 c3        1 GPQ      0.109100
     14 O3'        -3.3810   -2.3080   -3.0460 oh        1 GPQ     -0.603800
     15 C4'        -3.2990    0.0400   -2.7650 c3        1 GPQ      0.118100
     16 O4'        -3.9050    0.3260   -4.0110 oh        1 GPQ     -0.590800
     17 C5'        -2.3760    1.2220   -2.4210 c3        1 GPQ      0.147100
     18 O5'        -1.7150    0.9440   -1.1820 os        1 GPQ     -0.432600
     19 C6'        -3.1840    2.5010   -2.1920 c3        1 GPQ      0.136400
     20 O6'        -2.3160    3.5860   -2.4720 oh        1 GPQ     -0.595800
     21 HN3         3.0000    0.2050    1.1160 hn        1 GPQ      0.359500
     22 H6         -1.8660   -0.1430    1.1010 h4        1 GPQ      0.185000
     23 H1'        -0.0840   -0.0170   -2.1300 h2        1 GPQ      0.117700
     24 H2'        -2.3570   -1.6670   -0.7040 h1        1 GPQ      0.061700
     25 HO2'       -0.3380   -2.7640   -1.0030 ho        1 GPQ      0.421000
     26 H3'        -1.7570   -1.1920   -3.7330 h1        1 GPQ      0.072700
     27 HO3'       -2.8600   -3.1210   -3.0920 ho        1 GPQ      0.430000
     28 H4'        -4.0910   -0.0820   -1.9740 h1        1 GPQ      0.060700
     29 HO4'       -4.3920   -0.4700   -4.2670 ho        1 GPQ      0.427000
     30 H5'        -1.6190    1.3830   -3.2370 h1        1 GPQ      0.088700
     31 H6'        -4.0530    2.5120   -2.9040 h1        1 GPQ      0.049200
     32 H6'A       -3.5490    2.5480   -1.1320 h1        1 GPQ      0.049200
     33 HO6'       -2.7770    4.3860   -2.1970 ho        1 GPQ      0.407000
@<TRIPOS>BOND
     1    1    3 1   
     2    1    9 1   
     3    1   10 1   
     4    2    8 1   
     5    3    4 2   
     6    3    5 1   
     7    5    6 1   
     8    5   21 1   
     9    6    7 2   
    10    6    8 1   
    11    8    9 2   
    12    9   22 1   
    13   10   11 1   
    14   10   18 1   
    15   10   23 1   
    16   11   12 1   
    17   11   13 1   
    18   11   24 1   
    19   12   25 1   
    20   13   14 1   
    21   13   15 1   
    22   13   26 1   
    23   14   27 1   
    24   15   16 1   
    25   15   17 1   
    26   15   28 1   
    27   16   29 1   
    28   17   18 1   
    29   17   19 1   
    30   17   30 1   
    31   19   20 1   
    32   19   31 1   
    33   19   32 1   
    34   20   33 1   
@<TRIPOS>SUBSTRUCTURE
     1 GPQ         1 TEMP              0 ****  ****    0 ROOT
