@<TRIPOS>MOLECULE
GPQ
   33    34     1     0     0
SMALL
bcc


@<TRIPOS>ATOM
      1 N1         -0.0630    0.0100    0.0000 n         1 GPQ     -0.359000
      2 Cl1        -0.9060    0.1090    3.8640 cl        1 GPQ     -0.035400
      3 C2          1.3510    0.1920   -0.0420 c         1 GPQ      0.820500
      4 O2          1.9610    0.2670   -1.1280 o         1 GPQ     -0.627500
      5 N3          2.0350    0.2800    1.1760 ns        1 GPQ     -0.582500
      6 C4          1.4050    0.2420    2.4350 c         1 GPQ      0.725700
      7 O4          2.1120    0.3180    3.4500 o         1 GPQ     -0.583500
      8 C5         -0.0640    0.1190    2.4040 cc        1 GPQ     -0.178800
      9 C6         -0.7270    0.0190    1.2150 cd        1 GPQ      0.065600
     10 C1'        -0.7980   -0.0730   -1.2460 c3        1 GPQ      0.310500
     11 C2'        -1.6080   -1.3930   -1.4140 c3        1 GPQ      0.117100
     12 O2'        -0.6810   -2.4580   -1.4310 oh        1 GPQ     -0.582800
     13 C3'        -2.3650   -1.3180   -2.7520 c3        1 GPQ      0.066100
     14 O3'        -3.1580   -2.4930   -2.8250 oh        1 GPQ     -0.602800
     15 C4'        -3.2580   -0.0680   -2.7810 c3        1 GPQ      0.084100
     16 O4'        -3.8250    0.0890   -4.0710 oh        1 GPQ     -0.587800
     17 C5'        -2.4000    1.1760   -2.5030 c3        1 GPQ      0.108100
     18 O5'        -1.7360    1.0230   -1.2460 os        1 GPQ     -0.445600
     19 C6'        -3.2700    2.4290   -2.3610 c3        1 GPQ      0.140400
     20 O6'        -2.4800    3.5930   -2.2960 oh        1 GPQ     -0.587800
     21 HN3         3.0290    0.3730    1.1300 hn        1 GPQ      0.358500
     22 H6         -1.8310   -0.0580    1.1530 h4        1 GPQ      0.180000
     23 H1'        -0.0700    0.0360   -2.1070 h2        1 GPQ      0.119700
     24 H2'        -2.3410   -1.5260   -0.5720 h1        1 GPQ      0.061700
     25 HO2'       -1.1890   -3.2590   -1.6230 ho        1 GPQ      0.427000
     26 H3'        -1.6330   -1.2870   -3.6060 h1        1 GPQ      0.072700
     27 HO3'       -3.3910   -2.6140   -3.7530 ho        1 GPQ      0.415000
     28 H4'        -4.0650   -0.1620   -2.0030 h1        1 GPQ      0.064700
     29 HO4'       -4.5500   -0.5460   -4.1300 ho        1 GPQ      0.410000
     30 H5'        -1.6430    1.3190   -3.3220 h1        1 GPQ      0.080700
     31 H6'        -3.9220    2.3420   -1.4520 h1        1 GPQ      0.064700
     32 H6'A       -3.8970    2.5410   -3.2860 h1        1 GPQ      0.064700
     33 HO6'       -1.9150    3.5120   -1.5160 ho        1 GPQ      0.412000
@<TRIPOS>BOND
     1    1    3 1   
     2    1    9 1   
     3    1   10 1   
     4    2    8 1   
     5    3    4 2   
     6    3    5 1   
     7    5    6 1   
     8    5   21 1   
     9    6    7 2   
    10    6    8 1   
    11    8    9 2   
    12    9   22 1   
    13   10   11 1   
    14   10   18 1   
    15   10   23 1   
    16   11   12 1   
    17   11   13 1   
    18   11   24 1   
    19   12   25 1   
    20   13   14 1   
    21   13   15 1   
    22   13   26 1   
    23   14   27 1   
    24   15   16 1   
    25   15   17 1   
    26   15   28 1   
    27   16   29 1   
    28   17   18 1   
    29   17   19 1   
    30   17   30 1   
    31   19   20 1   
    32   19   31 1   
    33   19   32 1   
    34   20   33 1   
@<TRIPOS>SUBSTRUCTURE
     1 GPQ         1 TEMP              0 ****  ****    0 ROOT
