@<TRIPOS>MOLECULE
GPR
   63    65     1     0     0
SMALL
bcc


@<TRIPOS>ATOM
      1 N1         -0.3860   -0.1310   -0.6440 n4        1 GPR     -0.830600
      2 CA1         0.0750    0.7100   -1.7940 c3        1 GPR     -0.061500
      3 C1          0.5640   -0.2340   -2.9650 c         1 GPR      0.947600
      4 O11         0.3360   -1.4580   -2.8410 o         1 GPR     -0.793800
      5 O12         1.1200    0.3390   -3.9370 o         1 GPR     -0.793800
      6 CB1         1.1590    1.7040   -1.3860 c3        1 GPR     -0.072400
      7 CG1         1.4160    2.7070   -2.4980 c3        1 GPR     -0.133400
      8 CD1         2.5540    2.2720   -3.3800 c         1 GPR      0.597100
      9 OE1         3.6130    1.7720   -3.0300 o         1 GPR     -0.435100
     10 N2          2.4170    2.5120   -4.8690 n4        1 GPR     -0.681800
     11 CA2         2.2900    3.9540   -5.2240 c3        1 GPR      0.059500
     12 C2          0.8720    4.5110   -4.9650 c         1 GPR      0.642100
     13 O2          0.7420    5.4230   -4.1320 o         1 GPR     -0.552100
     14 CB2         2.7210    4.2750   -6.6570 c3        1 GPR     -0.069300
     15 SG2         4.1320    3.3540   -7.1620 ss        1 GPR     -0.258200
     16 N3         -0.1860    4.0110   -5.6910 n         1 GPR     -0.549900
     17 CA3        -1.5290    4.4330   -5.4220 c3        1 GPR     -0.002000
     18 C3         -2.2210    3.6710   -4.3040 c         1 GPR      0.620100
     19 O31        -3.5490    3.8710   -4.1010 oh        1 GPR     -0.553100
     20 O32        -1.7080    2.8730   -3.5150 o         1 GPR     -0.535000
     21 CA4         3.5220    2.2020   -8.4110 c3        1 GPR      0.024700
     22 CB4         2.1950    1.6400   -8.0790 ca        1 GPR     -0.135300
     23 CG4         1.0390    2.2080   -8.6280 ca        1 GPR     -0.139000
     24 CD4        -0.2170    1.6980   -8.3070 ca        1 GPR     -0.156000
     25 CE4        -0.3230    0.6130   -7.4370 ca        1 GPR     -0.126000
     26 CZ4         0.8220    0.0250   -6.9040 ca        1 GPR     -0.099000
     27 CH4         2.0950    0.5190   -7.2270 ca        1 GPR     -0.037000
     28 CH5         3.3150   -0.1320   -6.7550 ca        1 GPR     -0.079000
     29 CZ5         3.2940   -1.0440   -5.6900 ca        1 GPR     -0.105000
     30 CE5         4.4550   -1.7220   -5.3190 ca        1 GPR     -0.118000
     31 CD5         5.6500   -1.4940   -5.9990 ca        1 GPR     -0.106000
     32 CG5         5.6900   -0.5640   -7.0380 ca        1 GPR     -0.106000
     33 CB5         4.5350    0.1260   -7.4110 ca        1 GPR     -0.121300
     34 CA5         4.6280    1.1410   -8.5120 c3        1 GPR      0.206400
     35 O5          4.6120    0.5540   -9.7980 oh        1 GPR     -0.566800
     36 HN11       -1.2380    0.2460   -0.2330 hn        1 GPR      0.458133
     37 HN12        0.3400   -0.1970    0.0690 hn        1 GPR      0.458133
     38 HA1        -0.8290    1.2640   -2.1920 hx        1 GPR      0.134700
     39 HB11        0.8330    2.2800   -0.4770 hc        1 GPR      0.073700
     40 HB12        2.1080    1.1600   -1.1300 hc        1 GPR      0.073700
     41 HG11        1.7110    3.7020   -2.0570 hc        1 GPR      0.112700
     42 HG12        0.4710    2.8630   -3.0910 hc        1 GPR      0.112700
     43 HN2         1.6100    1.9500   -5.1970 hn        1 GPR      0.493300
     44 HA2         2.9800    4.5220   -4.5190 hx        1 GPR      0.135700
     45 HB21        3.0030    5.3620   -6.6800 h1        1 GPR      0.115200
     46 HB22        1.8800    4.1330   -7.3800 h1        1 GPR      0.115200
     47 HN3        -3.8970    4.5240   -4.7270 ho        1 GPR      0.442000
     48 HA31       -2.1380    4.3140   -6.3650 h1        1 GPR      0.106200
     49 HA32       -1.5230    5.5260   -5.1250 h1        1 GPR      0.106200
     50 HA4         3.4800    2.7530   -9.3900 h1        1 GPR      0.115700
     51 HG4         1.1250    3.0410   -9.3450 ha        1 GPR      0.147000
     52 HD4        -1.1190    2.1300   -8.7680 ha        1 GPR      0.146000
     53 HE4        -1.3130    0.1980   -7.1890 ha        1 GPR      0.153000
     54 HZ4         0.7200   -0.8320   -6.2150 ha        1 GPR      0.181000
     55 HZ5         2.3620   -1.2170   -5.1190 ha        1 GPR      0.177000
     56 HE5         4.4200   -2.4430   -4.4880 ha        1 GPR      0.149000
     57 HD5         6.5620   -2.0410   -5.7160 ha        1 GPR      0.149000
     58 HG5         6.6340   -0.3740   -7.5730 ha        1 GPR      0.151000
     59 HA5         5.6340    1.6640   -8.4730 h1        1 GPR      0.103700
     60 HO5         3.8560   -0.0460   -9.8420 ho        1 GPR      0.416000
     61 H13        -0.5650   -1.0870   -1.0250 hn        1 GPR      0.458133
     62 H22         3.2670    2.1330   -5.3580 hn        1 GPR      0.493300
     63 H32        -0.0610    3.2340   -6.3040 hn        1 GPR      0.338500
@<TRIPOS>BOND
     1    1    2 1   
     2    1   36 1   
     3    1   37 1   
     4    1   61 1   
     5    2    3 1   
     6    2    6 1   
     7    2   38 1   
     8    3    4 1   
     9    3    5 1   
    10    6    7 1   
    11    6   39 1   
    12    6   40 1   
    13    7    8 1   
    14    7   41 1   
    15    7   42 1   
    16    8    9 2   
    17    8   10 1   
    18   10   11 1   
    19   10   43 1   
    20   10   62 1   
    21   11   12 1   
    22   11   14 1   
    23   11   44 1   
    24   12   13 2   
    25   12   16 1   
    26   14   15 1   
    27   14   45 1   
    28   14   46 1   
    29   15   21 1   
    30   16   17 1   
    31   16   63 1   
    32   17   18 1   
    33   17   48 1   
    34   17   49 1   
    35   18   19 1   
    36   18   20 2   
    37   19   47 1   
    38   21   22 1   
    39   21   34 1   
    40   21   50 1   
    41   22   23 ar  
    42   22   27 ar  
    43   23   24 ar  
    44   23   51 1   
    45   24   25 ar  
    46   24   52 1   
    47   25   26 ar  
    48   25   53 1   
    49   26   27 ar  
    50   26   54 1   
    51   27   28 1   
    52   28   29 ar  
    53   28   33 ar  
    54   29   30 ar  
    55   29   55 1   
    56   30   31 ar  
    57   30   56 1   
    58   31   32 ar  
    59   31   57 1   
    60   32   33 ar  
    61   32   58 1   
    62   33   34 1   
    63   34   35 1   
    64   34   59 1   
    65   35   60 1   
@<TRIPOS>SUBSTRUCTURE
     1 GPR         1 TEMP              0 ****  ****    0 ROOT
