@<TRIPOS>MOLECULE
GPR
   63    65     1     0     0
SMALL
bcc


@<TRIPOS>ATOM
      1 N1         -0.4360   -0.4410   -1.3030 n4        1 GPR     -0.826600
      2 CA1         0.0040    0.7530   -2.0910 c3        1 GPR     -0.053500
      3 C1          0.0260    0.3740   -3.6190 c         1 GPR      0.929600
      4 O11         0.2010   -0.8330   -3.9070 o         1 GPR     -0.793300
      5 O12        -0.1130    1.3330   -4.4240 o         1 GPR     -0.793300
      6 CB1         1.3920    1.2410   -1.6720 c3        1 GPR     -0.076400
      7 CG1         1.7360    2.5410   -2.3820 c3        1 GPR     -0.152400
      8 CD1         2.8130    2.3410   -3.4140 c         1 GPR      0.554100
      9 OE1         3.9820    2.0580   -3.1910 o         1 GPR     -0.421100
     10 N2          2.4420    2.4900   -4.8630 n4        1 GPR     -0.695800
     11 CA2         2.3320    3.9200   -5.2870 c3        1 GPR      0.064500
     12 C2          1.0690    4.6530   -4.7790 c         1 GPR      0.632100
     13 O2          1.2380    5.7070   -4.1440 o         1 GPR     -0.549100
     14 CB2         2.4240    4.0690   -6.8050 c3        1 GPR     -0.059300
     15 SG2         3.9330    3.3500   -7.3590 ss        1 GPR     -0.289200
     16 N3         -0.1760    4.1890   -5.1510 n         1 GPR     -0.523900
     17 CA3        -1.3600    4.8440   -4.6720 c3        1 GPR     -0.008000
     18 C3         -1.8700    4.3620   -3.3250 c         1 GPR      0.623100
     19 O31        -3.1150    4.7330   -2.9270 oh        1 GPR     -0.558100
     20 O32        -1.2780    3.6520   -2.5080 o         1 GPR     -0.540000
     21 CA4         3.5170    2.0450   -8.5330 c3        1 GPR      0.031700
     22 CB4         2.1800    1.4460   -8.3430 ca        1 GPR     -0.127300
     23 CG4         1.0960    1.9220   -9.0910 ca        1 GPR     -0.127000
     24 CD4        -0.1660    1.3470   -8.9480 ca        1 GPR     -0.123000
     25 CE4        -0.3510    0.2960   -8.0520 ca        1 GPR     -0.108000
     26 CZ4         0.7220   -0.1890   -7.3060 ca        1 GPR     -0.094000
     27 CH4         1.9990    0.3710   -7.4460 ca        1 GPR     -0.055000
     28 CH5         3.1570   -0.1720   -6.7390 ca        1 GPR     -0.069000
     29 CZ5         3.0120   -1.0190   -5.6310 ca        1 GPR     -0.141000
     30 CE5         4.1310   -1.5900   -5.0270 ca        1 GPR     -0.125000
     31 CD5         5.4090   -1.3200   -5.5140 ca        1 GPR     -0.113000
     32 CG5         5.5680   -0.4610   -6.6010 ca        1 GPR     -0.099000
     33 CB5         4.4520    0.1190   -7.2100 ca        1 GPR     -0.123300
     34 CA5         4.6650    1.0380   -8.3780 c3        1 GPR      0.202400
     35 O5          4.8590    0.3320   -9.5880 oh        1 GPR     -0.566800
     36 HN11       -0.0380   -0.4390   -0.3650 hn        1 GPR      0.459133
     37 HN12       -1.4560   -0.4510   -1.2460 hn        1 GPR      0.459133
     38 HA1        -0.7550    1.5790   -1.9370 hx        1 GPR      0.147700
     39 HB11        2.1620    0.4530   -1.8900 hc        1 GPR      0.073700
     40 HB12        1.4110    1.4360   -0.5650 hc        1 GPR      0.073700
     41 HG11        0.8040    2.9960   -2.8290 hc        1 GPR      0.128700
     42 HG12        2.1480    3.2810   -1.6370 hc        1 GPR      0.128700
     43 HN2         3.1920    2.0610   -5.4600 hn        1 GPR      0.497300
     44 HA2         3.2160    4.4670   -4.8220 hx        1 GPR      0.139700
     45 HB21        2.4480    5.1680   -7.0340 h1        1 GPR      0.119200
     46 HB22        1.5330    3.6320   -7.3230 h1        1 GPR      0.119200
     47 HN3        -0.2850    3.2280   -5.4100 hn        1 GPR      0.353500
     48 HA31       -2.1750    4.6810   -5.4370 h1        1 GPR      0.106700
     49 HA32       -1.1610    5.9540   -4.5760 h1        1 GPR      0.106700
     50 HA4         3.5940    2.5010   -9.5590 h1        1 GPR      0.118700
     51 HG4         1.2470    2.7400   -9.8130 ha        1 GPR      0.145000
     52 HD4        -1.0090    1.7160   -9.5530 ha        1 GPR      0.148000
     53 HE4        -1.3460   -0.1630   -7.9360 ha        1 GPR      0.151000
     54 HZ4         0.5500   -1.0170   -6.5960 ha        1 GPR      0.168000
     55 HZ5         2.0070   -1.2500   -5.2330 ha        1 GPR      0.170000
     56 HE5         4.0010   -2.2710   -4.1720 ha        1 GPR      0.140000
     57 HD5         6.2910   -1.7840   -5.0460 ha        1 GPR      0.150000
     58 HG5         6.5750   -0.2460   -6.9930 ha        1 GPR      0.154000
     59 HA5         5.6370    1.6090   -8.2500 h1        1 GPR      0.102700
     60 HO5         4.1070   -0.2640   -9.7060 ho        1 GPR      0.416000
     61 H13        -0.1280   -1.2860   -1.8200 hn        1 GPR      0.459133
     62 H22         1.5560    1.9730   -5.0470 hn        1 GPR      0.497300
     63 H32        -3.5230    5.3180   -3.5830 ho        1 GPR      0.441000
@<TRIPOS>BOND
     1    1    2 1   
     2    1   36 1   
     3    1   37 1   
     4    1   61 1   
     5    2    3 1   
     6    2    6 1   
     7    2   38 1   
     8    3    4 1   
     9    3    5 1   
    10    6    7 1   
    11    6   39 1   
    12    6   40 1   
    13    7    8 1   
    14    7   41 1   
    15    7   42 1   
    16    8    9 2   
    17    8   10 1   
    18   10   11 1   
    19   10   43 1   
    20   10   62 1   
    21   11   12 1   
    22   11   14 1   
    23   11   44 1   
    24   12   13 2   
    25   12   16 1   
    26   14   15 1   
    27   14   45 1   
    28   14   46 1   
    29   15   21 1   
    30   16   17 1   
    31   16   47 1   
    32   17   18 1   
    33   17   48 1   
    34   17   49 1   
    35   18   19 1   
    36   18   20 2   
    37   19   63 1   
    38   21   22 1   
    39   21   34 1   
    40   21   50 1   
    41   22   23 ar  
    42   22   27 ar  
    43   23   24 ar  
    44   23   51 1   
    45   24   25 ar  
    46   24   52 1   
    47   25   26 ar  
    48   25   53 1   
    49   26   27 ar  
    50   26   54 1   
    51   27   28 1   
    52   28   29 ar  
    53   28   33 ar  
    54   29   30 ar  
    55   29   55 1   
    56   30   31 ar  
    57   30   56 1   
    58   31   32 ar  
    59   31   57 1   
    60   32   33 ar  
    61   32   58 1   
    62   33   34 1   
    63   34   35 1   
    64   34   59 1   
    65   35   60 1   
@<TRIPOS>SUBSTRUCTURE
     1 GPR         1 TEMP              0 ****  ****    0 ROOT
