@<TRIPOS>MOLECULE
GPR
   60    62     1     0     0
SMALL
bcc


@<TRIPOS>ATOM
      1 N1         -1.9360    1.9030    5.5540 n3        1 GPR     -0.895800
      2 CA1        -2.8220    1.2950    4.5680 c3        1 GPR      0.019500
      3 C1         -4.2630    0.9990    5.1000 c         1 GPR      0.889600
      4 O11        -4.5140    1.2470    6.3160 o         1 GPR     -0.848800
      5 O12        -5.1150    0.5620    4.2780 o         1 GPR     -0.848800
      6 CB1        -2.2520    0.0170    3.9460 c3        1 GPR     -0.057400
      7 CG1        -1.0280    0.3120    3.1040 c3        1 GPR     -0.143400
      8 CD1        -0.3700   -0.9490    2.5760 c         1 GPR      0.665100
      9 OE1        -0.6950   -2.0970    2.9370 o         1 GPR     -0.614100
     10 N2          0.6800   -0.7610    1.6810 n         1 GPR     -0.572900
     11 CA2         1.3580   -1.8460    1.0350 c3        1 GPR      0.042700
     12 C2          2.8470   -2.0060    1.4760 c         1 GPR      0.630100
     13 O2          3.2490   -3.1350    1.8170 o         1 GPR     -0.618100
     14 CB2         1.4400   -1.7430   -0.4950 c3        1 GPR     -0.063300
     15 SG2        -0.1140   -1.3390   -1.2370 ss        1 GPR     -0.281200
     16 N3          3.6540   -0.8750    1.4820 n         1 GPR     -0.488900
     17 CA3         5.0360   -0.9880    1.0640 c3        1 GPR     -0.070000
     18 C3          5.2980   -0.5190   -0.3930 c         1 GPR      0.898600
     19 O31         4.3050   -0.2270   -1.1290 o         1 GPR     -0.853800
     20 O32         6.4980   -0.4520   -0.7690 o         1 GPR     -0.853800
     21 CA4         0.4280   -0.7630   -2.8450 c3        1 GPR      0.015700
     22 CB4         0.5860    0.7140   -2.8780 ca        1 GPR     -0.067300
     23 CG4         1.8210    1.2840   -2.5420 ca        1 GPR     -0.115000
     24 CD4         1.9860    2.6670   -2.5790 ca        1 GPR     -0.118000
     25 CE4         0.9270    3.4880   -2.9630 ca        1 GPR     -0.146000
     26 CZ4        -0.3020    2.9300   -3.3010 ca        1 GPR     -0.128000
     27 CH4        -0.4920    1.5420   -3.2540 ca        1 GPR     -0.043000
     28 CH5        -1.7760    0.9360   -3.5940 ca        1 GPR      0.000000
     29 CZ5        -2.9680    1.6740   -3.5890 ca        1 GPR     -0.123000
     30 CE5        -4.1770    1.0710   -3.9270 ca        1 GPR     -0.126000
     31 CD5        -4.2160   -0.2800   -4.2700 ca        1 GPR     -0.142000
     32 CG5        -3.0420   -1.0300   -4.2600 ca        1 GPR     -0.104000
     33 CB5        -1.8260   -0.4340   -3.9160 ca        1 GPR     -0.106300
     34 CA5        -0.5810   -1.2740   -3.8760 c3        1 GPR      0.201400
     35 O5          0.0180   -1.3600   -5.1630 oh        1 GPR     -0.599800
     36 HN11       -1.6030    1.1840    6.1720 hn        1 GPR      0.330300
     37 HN12       -2.4970    2.5200    6.1190 hn        1 GPR      0.330300
     38 HA1        -2.9460    2.0590    3.7440 h1        1 GPR      0.038700
     39 HB11       -1.9920   -0.7290    4.7410 hc        1 GPR      0.061700
     40 HB12       -3.0560   -0.4400    3.3110 hc        1 GPR      0.061700
     41 HG11       -1.3210    0.9690    2.2420 hc        1 GPR      0.063700
     42 HG12       -0.2670    0.8680    3.7140 hc        1 GPR      0.063700
     43 HN2         0.8340    0.1480    1.3160 hn        1 GPR      0.309500
     44 HA2         0.8360   -2.8110    1.3220 h1        1 GPR      0.111700
     45 HB21        2.2120   -0.9840   -0.8040 h1        1 GPR      0.099200
     46 HB22        1.7860   -2.7360   -0.8780 h1        1 GPR      0.099200
     47 HN3         3.2250   -0.0750    1.0540 hn        1 GPR      0.285500
     48 HA31        5.6510   -0.3490    1.7550 h1        1 GPR      0.052700
     49 HA32        5.3840   -2.0520    1.1630 h1        1 GPR      0.052700
     50 HA4         1.4220   -1.2430   -3.0710 h1        1 GPR      0.107700
     51 HG4         2.6760    0.6430   -2.2380 ha        1 GPR      0.212000
     52 HD4         2.9590    3.1010   -2.3030 ha        1 GPR      0.142000
     53 HE4         1.0590    4.5790   -2.9950 ha        1 GPR      0.118000
     54 HZ4        -1.1270    3.5890   -3.6090 ha        1 GPR      0.119000
     55 HZ5        -2.9590    2.7330   -3.2920 ha        1 GPR      0.132000
     56 HE5        -5.1050    1.6610   -3.9080 ha        1 GPR      0.123000
     57 HD5        -5.1710   -0.7560   -4.5310 ha        1 GPR      0.122000
     58 HG5        -3.0680   -2.1000   -4.5120 ha        1 GPR      0.131000
     59 HA5        -0.8450   -2.3470   -3.6330 h1        1 GPR      0.095700
     60 HO5         0.3250   -0.4740   -5.3930 ho        1 GPR      0.403000
@<TRIPOS>BOND
     1    1    2 1   
     2    1   36 1   
     3    1   37 1   
     4    2    3 1   
     5    2    6 1   
     6    2   38 1   
     7    3    4 1   
     8    3    5 1   
     9    6    7 1   
    10    6   39 1   
    11    6   40 1   
    12    7    8 1   
    13    7   41 1   
    14    7   42 1   
    15    8    9 2   
    16    8   10 1   
    17   10   11 1   
    18   10   43 1   
    19   11   12 1   
    20   11   14 1   
    21   11   44 1   
    22   12   13 2   
    23   12   16 1   
    24   14   15 1   
    25   14   45 1   
    26   14   46 1   
    27   15   21 1   
    28   16   17 1   
    29   16   47 1   
    30   17   18 1   
    31   17   48 1   
    32   17   49 1   
    33   18   19 1   
    34   18   20 1   
    35   21   22 1   
    36   21   34 1   
    37   21   50 1   
    38   22   23 ar  
    39   22   27 ar  
    40   23   24 ar  
    41   23   51 1   
    42   24   25 ar  
    43   24   52 1   
    44   25   26 ar  
    45   25   53 1   
    46   26   27 ar  
    47   26   54 1   
    48   27   28 1   
    49   28   29 ar  
    50   28   33 ar  
    51   29   30 ar  
    52   29   55 1   
    53   30   31 ar  
    54   30   56 1   
    55   31   32 ar  
    56   31   57 1   
    57   32   33 ar  
    58   32   58 1   
    59   33   34 1   
    60   34   35 1   
    61   34   59 1   
    62   35   60 1   
@<TRIPOS>SUBSTRUCTURE
     1 GPR         1 TEMP              0 ****  ****    0 ROOT
