@<TRIPOS>MOLECULE
GPR
   63    65     1     0     0
SMALL
bcc


@<TRIPOS>ATOM
      1 N1         -0.4790   -0.4590   -1.3340 nz        1 GPR     -0.826600
      2 CA1        -0.0340    0.7380   -2.1140 c3        1 GPR     -0.053500
      3 C1          0.0100    0.3630   -3.6430 c         1 GPR      0.929600
      4 O11         0.1930   -0.8420   -3.9310 o         1 GPR     -0.793300
      5 O12        -0.1220    1.3240   -4.4470 o         1 GPR     -0.793300
      6 CB1         1.3470    1.2300   -1.6760 c3        1 GPR     -0.076400
      7 CG1         1.6950    2.5340   -2.3780 c3        1 GPR     -0.152400
      8 CD1         2.7860    2.3400   -3.3970 c         1 GPR      0.554100
      9 OE1         3.9530    2.0610   -3.1590 o         1 GPR     -0.421100
     10 N2          2.4330    2.4920   -4.8500 ny        1 GPR     -0.695800
     11 CA2         2.3230    3.9230   -5.2710 c3        1 GPR      0.064500
     12 C2          1.0510    4.6490   -4.7780 c         1 GPR      0.632100
     13 O2          1.2080    5.7020   -4.1370 o         1 GPR     -0.549100
     14 CB2         2.4350    4.0770   -6.7880 c3        1 GPR     -0.059300
     15 SG2         3.9530    3.3640   -7.3240 ss        1 GPR     -0.289200
     16 N3         -0.1870    4.1810   -5.1670 ns        1 GPR     -0.523900
     17 CA3        -1.3800    4.8310   -4.7010 c3        1 GPR     -0.008000
     18 C3         -1.9050    4.3430   -3.3630 c         1 GPR      0.623100
     19 O31        -3.1570    4.7080   -2.9790 oh        1 GPR     -0.558100
     20 O32        -1.3210    3.6330   -2.5400 o         1 GPR     -0.540000
     21 CA4         3.5570    2.0620   -8.5070 c3        1 GPR      0.031700
     22 CB4         2.2200    1.4560   -8.3360 ca        1 GPR     -0.127300
     23 CG4         1.1440    1.9310   -9.0960 ca        1 GPR     -0.127000
     24 CD4        -0.1170    1.3510   -8.9720 ca        1 GPR     -0.123000
     25 CE4        -0.3110    0.2970   -8.0810 ca        1 GPR     -0.108000
     26 CZ4         0.7540   -0.1860   -7.3220 ca        1 GPR     -0.094000
     27 CH4         2.0310    0.3790   -7.4440 ca        1 GPR     -0.055000
     28 CH5         3.1820   -0.1620   -6.7240 ca        1 GPR     -0.069000
     29 CZ5         3.0260   -1.0130   -5.6200 ca        1 GPR     -0.141000
     30 CE5         4.1390   -1.5820   -5.0040 ca        1 GPR     -0.125000
     31 CD5         5.4220   -1.3050   -5.4730 ca        1 GPR     -0.113000
     32 CG5         5.5920   -0.4430   -6.5560 ca        1 GPR     -0.099000
     33 CB5         4.4820    0.1350   -7.1780 ca        1 GPR     -0.123300
     34 CA5         4.7070    1.0580   -8.3400 c3        1 GPR      0.202400
     35 O5          4.9180    0.3560   -9.5490 oh        1 GPR     -0.566800
     36 HN11       -1.5000   -0.4730   -1.2900 hn        1 GPR      0.459133
     37 HN12       -0.1610   -1.3020   -1.8500 hn        1 GPR      0.459133
     38 HA1        -0.7980    1.5610   -1.9670 hx        1 GPR      0.147700
     39 HB11        2.1230    0.4460   -1.8850 hc        1 GPR      0.073700
     40 HB12        1.3510    1.4220   -0.5680 hc        1 GPR      0.073700
     41 HG11        0.7670    2.9870   -2.8350 hc        1 GPR      0.128700
     42 HG12        2.0950    3.2730   -1.6260 hc        1 GPR      0.128700
     43 HN2         3.1920    2.0670   -5.4380 hn        1 GPR      0.497300
     44 HA2         3.1990    4.4720   -4.7940 hx        1 GPR      0.139700
     45 HB21        2.4580    5.1760   -7.0130 h1        1 GPR      0.119200
     46 HB22        1.5520    3.6370   -7.3180 h1        1 GPR      0.119200
     47 HN3        -0.2890    3.2210   -5.4300 hn        1 GPR      0.353500
     48 HA31       -2.1840    4.6670   -5.4780 h1        1 GPR      0.106700
     49 HA32       -1.1870    5.9410   -4.6000 h1        1 GPR      0.106700
     50 HA4         3.6460    2.5200   -9.5300 h1        1 GPR      0.118700
     51 HG4         1.3010    2.7510   -9.8140 ha        1 GPR      0.145000
     52 HD4        -0.9540    1.7190   -9.5860 ha        1 GPR      0.148000
     53 HE4        -1.3050   -0.1660   -7.9790 ha        1 GPR      0.151000
     54 HZ4         0.5770   -1.0170   -6.6170 ha        1 GPR      0.168000
     55 HZ5         2.0170   -1.2490   -5.2360 ha        1 GPR      0.170000
     56 HE5         4.0000   -2.2650   -4.1520 ha        1 GPR      0.140000
     57 HD5         6.3000   -1.7680   -4.9950 ha        1 GPR      0.150000
     58 HG5         6.6030   -0.2240   -6.9340 ha        1 GPR      0.154000
     59 HA5         5.6750    1.6320   -8.1970 h1        1 GPR      0.102700
     60 HO5         4.1710   -0.2420   -9.6790 ho        1 GPR      0.416000
     61 H13        -0.0920   -0.4590   -0.3920 hn        1 GPR      0.459133
     62 H22         1.5510    1.9720   -5.0470 hn        1 GPR      0.497300
     63 H32        -3.5590    5.2940   -3.6390 ho        1 GPR      0.441000
@<TRIPOS>BOND
     1    1    2 1   
     2    1   36 1   
     3    1   37 1   
     4    1   61 1   
     5    2    3 1   
     6    2    6 1   
     7    2   38 1   
     8    3    4 1   
     9    3    5 1   
    10    6    7 1   
    11    6   39 1   
    12    6   40 1   
    13    7    8 1   
    14    7   41 1   
    15    7   42 1   
    16    8    9 2   
    17    8   10 1   
    18   10   11 1   
    19   10   43 1   
    20   10   62 1   
    21   11   12 1   
    22   11   14 1   
    23   11   44 1   
    24   12   13 2   
    25   12   16 1   
    26   14   15 1   
    27   14   45 1   
    28   14   46 1   
    29   15   21 1   
    30   16   17 1   
    31   16   47 1   
    32   17   18 1   
    33   17   48 1   
    34   17   49 1   
    35   18   19 1   
    36   18   20 2   
    37   19   63 1   
    38   21   22 1   
    39   21   34 1   
    40   21   50 1   
    41   22   23 ar  
    42   22   27 ar  
    43   23   24 ar  
    44   23   51 1   
    45   24   25 ar  
    46   24   52 1   
    47   25   26 ar  
    48   25   53 1   
    49   26   27 ar  
    50   26   54 1   
    51   27   28 1   
    52   28   29 ar  
    53   28   33 ar  
    54   29   30 ar  
    55   29   55 1   
    56   30   31 ar  
    57   30   56 1   
    58   31   32 ar  
    59   31   57 1   
    60   32   33 ar  
    61   32   58 1   
    62   33   34 1   
    63   34   35 1   
    64   34   59 1   
    65   35   60 1   
@<TRIPOS>SUBSTRUCTURE
     1 GPR         1 TEMP              0 ****  ****    0 ROOT
