@<TRIPOS>MOLECULE
GPR
   60    56     1     0     0
SMALL
bcc


@<TRIPOS>ATOM
      1 N1         -3.1350   -5.5970    2.6710 n3        1 GPR     -0.326000
      2 CA1        -2.3810   -4.3950    2.5990 c3        1 GPR     -0.124000
      3 C1         -3.1180   -3.2950    3.3210 c2        1 GPR      0.309000
      4 O11        -4.3740   -3.3410    3.4250 o         1 GPR     -0.583500
      5 O12        -2.4750   -2.3780    3.8880 o         1 GPR     -0.583500
      6 CB1        -2.1860   -4.0040    1.1400 c3        1 GPR     -0.142000
      7 CG1        -0.6850   -3.9660    0.8170 c3        1 GPR     -0.173000
      8 CD1        -0.4460   -3.0850   -0.4270 c2        1 GPR      0.308000
      9 OE1        -1.3700   -2.8290   -1.1750 o         1 GPR     -0.395000
     10 N2          0.8940   -2.6400   -0.7530 n         1 GPR     -0.362000
     11 CA2         1.0890   -1.6290   -1.7340 c3        1 GPR      0.017000
     12 C2          2.0650   -2.1300   -2.7970 c2        1 GPR      0.261000
     13 O2          3.2620   -2.1080   -2.5820 o         1 GPR     -0.417000
     14 CB2         1.6540   -0.3800   -1.0710 c3        1 GPR     -0.284000
     15 SG2         0.3000    0.6760   -0.5210 ss        1 GPR      0.065000
     16 N3          1.5670   -2.5870   -4.0830 n         1 GPR     -0.321000
     17 CA3         2.4330   -2.5610   -5.2470 c3        1 GPR     -0.117000
     18 C3          2.5240   -3.9620   -5.8450 c2        1 GPR      0.327000
     19 O31         1.9130   -4.2310   -6.9180 o         1 GPR     -0.575000
     20 O32         3.2910   -4.8190   -5.3260 o         1 GPR     -0.575000
     21 CA4         0.9970    2.2200    0.2970 c3        1 GPR     -0.206000
     22 CB4         0.2720    2.3980    1.6360 c2        1 GPR     -0.061000
     23 CG4         0.2110    1.3380    2.5410 c2        1 GPR     -0.122000
     24 CD4        -0.3590    1.5290    3.8020 c1        1 GPR     -0.100000
     25 CE4        -0.8730    2.7930    4.1620 c1        1 GPR     -0.132000
     26 CZ4        -0.8130    3.8540    3.2580 c1        1 GPR     -0.132000
     27 CH4        -0.2440    3.6660    1.9970 c1        1 GPR     -0.065000
     28 CH5        -0.3200    4.7900    0.9620 c1        1 GPR      0.000000
     29 CZ5        -0.8670    6.0320    1.3190 c1        1 GPR     -0.132000
     30 CE5        -0.9720    7.0510    0.3660 c1        1 GPR     -0.132000
     31 CD5        -0.5290    6.8320   -0.9540 c1        1 GPR     -0.132000
     32 CG5         0.0180    5.5930   -1.3140 c1        1 GPR     -0.132000
     33 CB5         0.1250    4.5710   -0.3620 c1        1 GPR     -0.068000
     34 CA5         0.9310    3.3180   -0.7010 c3        1 GPR      0.086000
     35 O5          2.3200    3.7470   -0.9780 oh        1 GPR     -0.340000
     36 HN11       -2.6710   -6.2710    2.2650 hn        1 GPR      0.127500
     37 HN12       -3.2830   -5.8150    3.5510 hn        1 GPR      0.127500
     38 HA1        -1.5100   -4.5330    3.0180 h1        1 GPR      0.084000
     39 HB11       -2.5760   -3.1210    0.9840 hc        1 GPR      0.094000
     40 HB12       -2.6270   -4.6610    0.5650 hc        1 GPR      0.094000
     41 HG11       -0.3670   -4.8740    0.6390 hc        1 GPR      0.106000
     42 HG12       -0.1970   -3.5940    1.5780 hc        1 GPR      0.106000
     43 HN2         1.6150   -3.0330   -0.3540 hn        1 GPR      0.238000
     44 HA2         0.2330   -1.4150   -2.1540 h1        1 GPR      0.147000
     45 HB21        2.2070    0.1070   -1.7130 h1        1 GPR      0.118500
     46 HB22        2.2000   -0.6380   -0.3010 h1        1 GPR      0.118500
     47 HN3         0.6970   -2.8500   -4.1670 hn        1 GPR      0.244000
     48 HA31        3.3230   -2.2610   -4.9830 h1        1 GPR      0.080000
     49 HA32        2.0650   -1.9440   -5.9150 h1        1 GPR      0.080000
     50 HA4         1.9400    2.0550    0.4920 h1        1 GPR      0.129000
     51 HG4         0.6360    0.4870    2.3230 ha        1 GPR      0.163000
     52 HD4        -0.4020    0.7870    4.4360 ha        1 GPR      0.222000
     53 HE4        -1.2730    2.9260    5.0470 ha        1 GPR      0.126500
     54 HZ4        -1.1130    4.7460    3.5310 ha        1 GPR      0.126500
     55 HZ5        -1.1690    6.1860    2.2310 ha        1 GPR      0.126500
     56 HE5        -1.3730    7.9070    0.6100 ha        1 GPR      0.126500
     57 HD5        -0.5520    7.5610   -1.6030 ha        1 GPR      0.126500
     58 HG5         0.3240    5.4430   -2.2270 ha        1 GPR      0.126500
     59 HA5         0.5640    2.9470   -1.5230 h1        1 GPR      0.098000
     60 HO5         2.5930    3.3900   -1.7450 ho        1 GPR      0.226000
@<TRIPOS>BOND
     1    1    2 1   
     2    1   36 1   
     3    1   37 1   
     4    2    3 1   
     5    2    6 1   
     6    2   38 1   
     7    3    4 1   
     8    3    5 1   
     9    6    7 1   
    10    6   39 1   
    11    6   40 1   
    12    7    8 1   
    13    7   41 1   
    14    7   42 1   
    15    8    9 1   
    16    8   10 1   
    17   10   11 1   
    18   10   43 1   
    19   11   12 1   
    20   11   14 1   
    21   11   44 1   
    22   12   13 1   
    23   12   16 1   
    24   14   15 1   
    25   14   45 1   
    26   14   46 1   
    27   15   21 1   
    28   16   17 1   
    29   16   47 1   
    30   17   18 1   
    31   17   48 1   
    32   17   49 1   
    33   18   19 1   
    34   18   20 1   
    35   21   22 1   
    36   21   34 1   
    37   21   50 1   
    38   22   23 1   
    39   22   27 1   
    40   23   24 1   
    41   23   51 1   
    42   24   52 1   
    43   25   26 1   
    44   25   53 1   
    45   26   54 1   
    46   28   33 1   
    47   29   30 1   
    48   29   55 1   
    49   30   56 1   
    50   31   32 1   
    51   31   57 1   
    52   32   58 1   
    53   33   34 1   
    54   34   35 1   
    55   34   59 1   
    56   35   60 1   
@<TRIPOS>SUBSTRUCTURE
     1 GPR         1 TEMP              0 ****  ****    0 ROOT
