@<TRIPOS>MOLECULE
GPS
   63    58     1     0     0
SMALL
bcc


@<TRIPOS>ATOM
      1 C1         -1.2850   -1.7230   -1.5540 c1        1 GPS      0.456000
      2 N1         -4.1240    0.2930   -2.7440 n2        1 GPS     -0.347000
      3 C2          4.6620    0.4440    4.1200 c2        1 GPS      0.245000
      4 N2          3.5390    1.2660    0.6300 n2        1 GPS     -0.219000
      5 C3          8.5750    0.0330    7.1700 c2        1 GPS      0.353000
      6 O5          7.2580   -3.5810    6.0100 oh        1 GPS     -0.219000
      7 O11        -1.7530   -2.6300   -2.1660 o         1 GPS     -0.233500
      8 O12        -0.7240   -0.8920   -0.9070 o         1 GPS     -0.233500
      9 O31         7.9990   -0.7320    6.3510 o         1 GPS     -0.519000
     10 O32         9.4140   -0.3080    8.0330 o         1 GPS     -0.519000
     11 CA1        -3.1740   -0.2300   -2.2910 c1        1 GPS      0.071000
     12 CA2         5.2390   -0.8550    4.4400 c2        1 GPS     -0.330000
     13 CA3         8.2200    1.5370    7.1130 c2        1 GPS      0.054000
     14 CA4         9.3480   -3.1340    7.1650 c3        1 GPS     -0.242000
     15 CA5         8.3420   -4.0760    6.6450 c2        1 GPS      0.191000
     16 CB1         0.9100    1.1480    1.2130 cx        1 GPS     -0.063000
     17 CB2         4.7640   -2.0540    4.0580 c2        1 GPS     -0.236000
     18 CB4        10.5320   -3.7290    7.7990 c2        1 GPS      0.190000
     19 CB5         8.4680   -5.4530    6.7840 c2        1 GPS     -0.141000
     20 CD1         2.3570    1.1260    1.0450 cu        1 GPS      0.053000
     21 CD4        12.8820   -2.9710    8.0010 c2        1 GPS     -0.105000
     22 CD5         6.1920   -6.2130    6.1880 c2        1 GPS     -0.155000
     23 OE1         1.8140    0.5020    2.1760 os        1 GPS     -0.265000
     24 CE4        11.5800   -6.9460    8.9750 c1        1 GPS     -0.111000
     25 CE5        10.6860   -7.7190    8.5000 c1        1 GPS      0.007000
     26 CG1         3.8920    3.7170   -1.8640 c3        1 GPS     -0.276000
     27 SG2         3.4600   -2.5490    3.1690 sh        1 GPS      0.230000
     28 CG4        11.5650   -2.7730    8.1380 c2        1 GPS     -0.227000
     29 CG5         7.5160   -6.3660    6.1610 c2        1 GPS     -0.158000
     30 CH4        10.5910   -5.0950    8.0610 c2        1 GPS     -0.164000
     31 CH5         9.5580   -5.9810    7.5340 c2        1 GPS      0.123000
     32 CZ4        11.6900   -5.6140    8.8940 c2        1 GPS      0.043000
     33 CZ5         9.5940   -7.4150    7.7690 c2        1 GPS     -0.069000
     34 HN1         3.3640    4.1030   -0.9650 hc        1 GPS      0.069750
     35 HN1A        4.0510    4.5510   -2.5830 hc        1 GPS      0.069750
     36 HN2         4.8760    3.2940   -1.5670 hc        1 GPS      0.069750
     37 HN3         3.7800    0.4790    3.4400 h4        1 GPS      0.127000
     38 HO5         7.3200   -2.6040    5.9490 ho        1 GPS      0.288000
     39 HA1         0.4000    2.0450    1.6110 h1        1 GPS      0.151500
     40 HA2         5.3380   -2.9460    4.3960 h4        1 GPS      0.160000
     41 HA3         8.8000    2.2070    7.7850 h4        1 GPS      0.189000
     42 HA3A        6.7690    1.3700    5.7240 hn        1 GPS      0.287500
     43 HA4         9.6570   -2.4040    6.3460 hc        1 GPS      0.232500
     44 HA5         8.8580   -2.4210    7.9230 hc        1 GPS      0.232500
     45 HB1         3.2770    2.9270   -2.3490 hc        1 GPS      0.069750
     46 HB1A        0.2610    0.4430    0.6570 h1        1 GPS      0.151500
     47 HB2         6.1590   -0.8140    5.0560 ha        1 GPS      0.156000
     48 HB2A        2.8820   -1.4040    2.8210 hs        1 GPS      0.047000
     49 HD4        13.6060   -2.1780    8.2470 ha        1 GPS      0.140500
     50 HD5         5.5170   -6.9260    5.6940 ha        1 GPS      0.129500
     51 HE4        13.3220   -3.9020    7.6120 ha        1 GPS      0.140500
     52 HE5         5.6980   -5.3720    6.6960 ha        1 GPS      0.129500
     53 HG1         4.6720    1.0830   -2.2030 ha        1 GPS      0.000500
     54 HG1A        4.8220    0.4410   -2.0510 ha        1 GPS      0.000500
     55 HG4        11.1740   -1.7820    8.4640 ha        1 GPS      0.201000
     56 HG5         7.9770   -7.2160    5.6250 ha        1 GPS      0.140000
     57 HZ4        12.4220   -4.9550    9.3730 ha        1 GPS      0.184000
     58 HZ5         8.8140   -8.0950    7.4090 ha        1 GPS      0.195000
     59 N3          7.2970    1.9990    6.3330 n3        1 GPS     -0.132000
     60 H13        -4.9090    0.7180   -3.1210 hn        1 GPS      0.288000
     61 H22         3.6290    1.7660   -0.2350 hn        1 GPS      0.189000
     62 H32         7.0400    2.9670    6.2830 hn        1 GPS      0.287500
     63 O2          5.1340    1.4950    4.5860 o         1 GPS     -0.383000
@<TRIPOS>BOND
     1    1    7 1   
     2    1    8 1   
     3    2   11 1   
     4    2   60 1   
     5    3   12 1   
     6    3   37 1   
     7    3   63 1   
     8    4   20 1   
     9    4   61 1   
    10    5    9 1   
    11    5   10 1   
    12    5   13 1   
    13    6   15 1   
    14    6   38 1   
    15   12   17 1   
    16   12   47 1   
    17   13   41 1   
    18   13   59 1   
    19   14   15 1   
    20   14   18 1   
    21   14   43 1   
    22   14   44 1   
    23   15   19 1   
    24   16   20 1   
    25   16   23 1   
    26   16   39 1   
    27   16   46 1   
    28   17   27 1   
    29   17   40 1   
    30   18   28 1   
    31   18   30 1   
    32   19   29 1   
    33   19   31 1   
    34   20   23 1   
    35   21   28 1   
    36   21   49 1   
    37   21   51 1   
    38   22   29 1   
    39   22   50 1   
    40   22   52 1   
    41   24   25 1   
    42   24   32 1   
    43   25   33 1   
    44   26   34 1   
    45   26   35 1   
    46   26   36 1   
    47   26   45 1   
    48   27   48 1   
    49   28   55 1   
    50   29   56 1   
    51   30   31 1   
    52   30   32 1   
    53   31   33 1   
    54   32   57 1   
    55   33   58 1   
    56   42   59 1   
    57   53   54 1   
    58   59   62 1   
@<TRIPOS>SUBSTRUCTURE
     1 GPS         1 TEMP              0 ****  ****    0 ROOT
