@<TRIPOS>MOLECULE
GPS
   63    57     1     0     0
SMALL
bcc


@<TRIPOS>ATOM
      1 C1          6.7060    0.6010   -2.9690 c1        1 GPS      0.421000
      2 N1          5.3390    6.2400    1.9540 n2        1 GPS     -0.351000
      3 C2          1.2960   -0.2150    4.5630 c2        1 GPS      0.218000
      4 N2          3.2320   -0.9760    3.1370 ny        1 GPS     -0.124000
      5 C3          4.5760    0.3800    5.9140 c2        1 GPS      0.344000
      6 O5          7.1490   -7.4620    6.6890 oh        1 GPS     -0.246000
      7 O11         7.1120    0.5830   -4.0830 o         1 GPS     -0.211000
      8 O12         6.2970    0.6150   -1.8480 o         1 GPS     -0.211000
      9 O31         5.2150    0.3180    4.8350 o         1 GPS     -0.501500
     10 O32         3.3760    0.0700    6.0880 o         1 GPS     -0.501500
     11 CA1         5.3510    5.0650    1.9270 c1        1 GPS      0.072000
     12 CA2         2.1560   -1.3700    4.0770 c3        1 GPS     -0.196000
     13 CA3         5.3380    0.8780    7.1650 c2        1 GPS      0.072000
     14 CA4         7.5430   -4.5720    2.9350 c2        1 GPS     -0.674000
     15 CA5         7.6090   -6.3440    6.0390 c2        1 GPS      0.008000
     16 CB1         5.2020    1.9040    1.0190 c2        1 GPS     -0.453000
     17 CB2         5.7520   -2.7130    3.5120 c1        1 GPS     -1.070000
     18 CB4         8.5680   -4.4380    3.7980 c2        1 GPS      0.087000
     19 CB5         7.6330   -5.1770    6.7120 c2        1 GPS     -0.157000
     20 CD1         2.6740   -0.5620    1.8050 c2        1 GPS      0.275000
     21 CD4        10.9140   -5.0380    4.3360 c2        1 GPS     -0.154000
     22 CD5         7.4950   -3.5830    8.5590 c3        1 GPS     -0.121000
     23 OE1         2.8510   -1.3180    0.8590 o         1 GPS     -0.254000
     24 CE4         8.8230   -1.3970    5.7780 c1        1 GPS     -0.118000
     25 CE5         8.4040   -1.7070    6.9300 c1        1 GPS     -0.197000
     26 CG1         4.4050    0.9850    1.4570 c1        1 GPS      0.009000
     27 SG2         6.0320   -3.8530    2.8030 ss        1 GPS      1.288000
     28 CG4         9.7930   -5.2160    3.6320 c2        1 GPS     -0.183000
     29 CG5         7.2210   -5.0410    8.1530 c3        1 GPS     -0.109000
     30 CH4         8.5210   -3.4950    4.9280 c2        1 GPS     -0.068000
     31 CH5         8.0760   -3.8810    6.2100 c2        1 GPS     -0.005000
     32 CZ4         8.9510   -2.1530    4.6500 c2        1 GPS     -0.008000
     33 CZ5         7.9970   -2.9450    7.3200 c2        1 GPS      0.031000
     34 HN1         3.2260    2.0490    3.2430 ha        1 GPS      0.007500
     35 HN1A        3.7990    1.9740    3.6030 ha        1 GPS      0.007500
     36 HN2         3.7610   -0.1710    3.5400 hn        1 GPS      0.288500
     37 HN3         7.1200    1.0100    8.1230 hn        1 GPS      0.277500
     38 HO5         7.2850   -8.2180    6.1010 ho        1 GPS      0.227000
     39 HA1         5.3240    2.9020    1.5020 ha        1 GPS      0.233500
     40 HA2         5.7140   -1.8360    4.1220 ha        1 GPS      0.213000
     41 HA3         4.7320    1.3800    7.9510 h4        1 GPS      0.190000
     42 HA3A        7.1600    0.2450    6.5910 hn        1 GPS      0.277500
     43 HA4         7.6760   -5.3090    2.1160 h4        1 GPS      0.155000
     44 HA5         7.9370   -6.4620    4.9940 h4        1 GPS      0.144000
     45 HB1         2.0580    0.3630    1.8690 hx        1 GPS      0.221000
     46 HB1A        5.8350    1.8000    0.1180 ha        1 GPS      0.233500
     47 HB2         2.6490   -1.8290    4.9860 hx        1 GPS      0.156500
     48 HB2A        1.4960   -2.1390    3.5840 hx        1 GPS      0.156500
     49 HD4        11.8120   -5.6460    4.1570 ha        1 GPS      0.127500
     50 HD5         6.1370   -5.2950    8.2710 hc        1 GPS      0.108000
     51 HE4        11.0110   -4.2820    5.1280 ha        1 GPS      0.127500
     52 HE5         6.5630   -3.0840    8.9270 hc        1 GPS      0.105000
     53 HG1         4.6120   -0.4510   -0.4820 ha        1 GPS      0.007500
     54 HG1A        5.0860   -0.7090   -0.0690 ha        1 GPS      0.007500
     55 HG4         9.7480   -5.9860    2.8410 ha        1 GPS      0.135000
     56 HG5         7.8060   -5.7530    8.7890 hc        1 GPS      0.108000
     57 HZ4         9.3140   -1.8350    3.6690 ha        1 GPS      0.172000
     58 HZ5         8.2590   -3.5280    9.3750 hc        1 GPS      0.105000
     59 N3          6.6150    0.7140    7.3090 n8        1 GPS     -0.144000
     60 H13         5.3270    7.2090    1.9710 hn        1 GPS      0.289000
     61 H22         3.9050   -1.7600    3.0290 hn        1 GPS      0.288500
     62 H32         0.7720   -0.4200    5.5190 h4        1 GPS      0.149000
     63 O2          1.2070    0.8440    3.9460 o         1 GPS     -0.287000
@<TRIPOS>BOND
     1    1    7 1   
     2    1    8 1   
     3    2   11 1   
     4    2   60 1   
     5    3   12 1   
     6    3   62 1   
     7    3   63 1   
     8    4   12 1   
     9    4   20 1   
    10    4   36 1   
    11    4   61 1   
    12    5    9 1   
    13    5   10 1   
    14    5   13 1   
    15    6   15 1   
    16    6   38 1   
    17   12   47 1   
    18   12   48 1   
    19   13   41 1   
    20   13   59 1   
    21   14   18 1   
    22   14   27 1   
    23   14   43 1   
    24   15   19 1   
    25   15   44 1   
    26   16   26 1   
    27   16   39 1   
    28   16   46 1   
    29   17   27 1   
    30   17   40 1   
    31   18   28 1   
    32   18   30 1   
    33   19   29 1   
    34   19   31 1   
    35   20   23 1   
    36   20   45 1   
    37   21   28 1   
    38   21   49 1   
    39   21   51 1   
    40   22   29 1   
    41   22   33 1   
    42   22   52 1   
    43   22   58 1   
    44   24   25 1   
    45   24   32 1   
    46   25   33 1   
    47   28   55 1   
    48   29   50 1   
    49   29   56 1   
    50   30   31 1   
    51   30   32 1   
    52   31   33 1   
    53   32   57 1   
    54   34   35 1   
    55   37   59 1   
    56   42   59 1   
    57   53   54 1   
@<TRIPOS>SUBSTRUCTURE
     1 GPS         1 TEMP              0 ****  ****    0 ROOT
