@<TRIPOS>MOLECULE
GPS
   60    62     1     0     0
SMALL
bcc


@<TRIPOS>ATOM
      1 C1         -6.7120    3.0590    0.9580 c         1 GPS      0.888600
      2 N1         -7.5500    1.2880   -0.6570 n3        1 GPS     -0.895800
      3 C2         -1.0270   -2.2850    1.4130 c         1 GPS      0.616100
      4 N2         -2.6290   -0.5580    0.6070 n         1 GPS     -0.545900
      5 C3          2.1550   -3.8900    2.3510 c         1 GPS      0.906600
      6 O5          3.6320    1.3690    2.1040 oh        1 GPS     -0.593800
      7 O11        -7.5410    3.8420    0.4070 o         1 GPS     -0.845800
      8 O12        -5.9570    3.3850    1.9140 o         1 GPS     -0.845800
      9 O31         2.7810   -2.8410    2.0060 o         1 GPS     -0.850300
     10 O32         2.7020   -4.8940    2.8790 o         1 GPS     -0.850300
     11 CA1        -6.6450    1.5810    0.4480 c3        1 GPS      0.019500
     12 CA2        -1.2960   -1.0860    0.4570 c3        1 GPS      0.033700
     13 CA3         0.6230   -3.9630    2.1250 c3        1 GPS     -0.054000
     14 CA4         2.5810   -0.0560    0.4280 c3        1 GPS     -0.001300
     15 CA5         2.7470    1.3550    0.9920 c3        1 GPS      0.193400
     16 CB1        -5.1840    1.2350    0.1490 c3        1 GPS     -0.061400
     17 CB2        -0.2100   -0.0280    0.7150 c3        1 GPS     -0.029300
     18 CB4         3.6780   -0.4410   -0.4980 ca        1 GPS     -0.053300
     19 CB5         3.1920    2.3440   -0.0510 ca        1 GPS     -0.087300
     20 CD1        -3.5600   -0.6040   -0.4210 c         1 GPS      0.660100
     21 CD4         5.0940   -2.1690   -1.4310 ca        1 GPS     -0.135000
     22 CD5         3.1990    4.6220   -0.8750 ca        1 GPS     -0.140000
     23 OE1        -3.2190   -0.9030   -1.5850 o         1 GPS     -0.639100
     24 CE4         5.7480   -1.2150   -2.2090 ca        1 GPS     -0.144000
     25 CE5         3.9240    4.2130   -1.9930 ca        1 GPS     -0.137000
     26 CG1        -4.9970   -0.2490   -0.0840 c3        1 GPS     -0.145400
     27 SG2         1.0630   -0.2250   -0.5070 ss        1 GPS     -0.297200
     28 CG4         4.0670   -1.7850   -0.5720 ca        1 GPS     -0.089000
     29 CG5         2.8310    3.6860    0.0900 ca        1 GPS     -0.104000
     30 CH4         4.3390    0.5280   -1.2800 ca        1 GPS     -0.037000
     31 CH5         3.9470    1.9300   -1.1650 ca        1 GPS     -0.004000
     32 CZ4         5.3790    0.1250   -2.1290 ca        1 GPS     -0.138000
     33 CZ5         4.2930    2.8780   -2.1390 ca        1 GPS     -0.129000
     34 HN1        -8.3870    1.8290   -0.5080 hn        1 GPS      0.331300
     35 HN1A       -7.1400    1.6310   -1.5080 hn        1 GPS      0.331300
     36 HN2        -2.9660   -0.4930    1.5410 hn        1 GPS      0.322500
     37 HN3         0.8290   -2.5520    0.6240 hn        1 GPS      0.322500
     38 HO5         4.4030    0.8390    1.8670 ho        1 GPS      0.410000
     39 HA1        -6.9870    0.9380    1.3120 h1        1 GPS      0.040700
     40 HA2        -1.1900   -1.4560   -0.6130 h1        1 GPS      0.113700
     41 HA3         0.3690   -4.9920    1.7470 h1        1 GPS      0.047200
     42 HA3A        0.1190   -3.8290    3.1220 h1        1 GPS      0.047200
     43 HA4         2.5510   -0.7880    1.2960 h1        1 GPS      0.166700
     44 HA5         1.7620    1.6940    1.4340 h1        1 GPS      0.081700
     45 HB1        -4.8280    1.8060   -0.7470 hc        1 GPS      0.056700
     46 HB1A       -4.5760    1.5750    1.0300 hc        1 GPS      0.056700
     47 HB2        -0.6280    1.0040    0.6120 h1        1 GPS      0.081700
     48 HB2A        0.2060   -0.1270    1.7460 h1        1 GPS      0.081700
     49 HD4         5.3910   -3.2260   -1.4830 ha        1 GPS      0.130000
     50 HD5         2.9050    5.6750   -0.7600 ha        1 GPS      0.122000
     51 HE4         6.5620   -1.5170   -2.8840 ha        1 GPS      0.112000
     52 HE5         4.1990    4.9440   -2.7670 ha        1 GPS      0.116000
     53 HG1        -5.3270   -0.8210    0.8220 hc        1 GPS      0.065200
     54 HG1A       -5.6280   -0.5850   -0.9490 hc        1 GPS      0.065200
     55 HG4         3.5670   -2.5310    0.0840 ha        1 GPS      0.215000
     56 HG5         2.2470    4.0000    0.9690 ha        1 GPS      0.138000
     57 HZ4         5.9200    0.8680   -2.7310 ha        1 GPS      0.116000
     58 HZ5         4.8460    2.5690   -3.0370 ha        1 GPS      0.124000
     59 O2         -1.8520   -2.5970    2.3010 o         1 GPS     -0.646100
     60 N3          0.1200   -3.0010    1.1760 n         1 GPS     -0.512900
@<TRIPOS>BOND
     1    1    7 1   
     2    1    8 1   
     3    1   11 1   
     4    2   11 1   
     5    2   34 1   
     6    2   35 1   
     7    3   12 1   
     8    3   59 2   
     9    3   60 1   
    10    4   12 1   
    11    4   20 1   
    12    4   36 1   
    13    5    9 1   
    14    5   10 1   
    15    5   13 1   
    16    6   15 1   
    17    6   38 1   
    18   11   16 1   
    19   11   39 1   
    20   12   17 1   
    21   12   40 1   
    22   13   41 1   
    23   13   42 1   
    24   13   60 1   
    25   14   15 1   
    26   14   18 1   
    27   14   27 1   
    28   14   43 1   
    29   15   19 1   
    30   15   44 1   
    31   16   26 1   
    32   16   45 1   
    33   16   46 1   
    34   17   27 1   
    35   17   47 1   
    36   17   48 1   
    37   18   28 ar  
    38   18   30 ar  
    39   19   29 ar  
    40   19   31 ar  
    41   20   23 2   
    42   20   26 1   
    43   21   24 ar  
    44   21   28 ar  
    45   21   49 1   
    46   22   25 ar  
    47   22   29 ar  
    48   22   50 1   
    49   24   32 ar  
    50   24   51 1   
    51   25   33 ar  
    52   25   52 1   
    53   26   53 1   
    54   26   54 1   
    55   28   55 1   
    56   29   56 1   
    57   30   31 1   
    58   30   32 ar  
    59   31   33 ar  
    60   32   57 1   
    61   33   58 1   
    62   37   60 1   
@<TRIPOS>SUBSTRUCTURE
     1 GPS         1 TEMP              0 ****  ****    0 ROOT
