@<TRIPOS>MOLECULE
GPS
   63    59     1     0     0
SMALL
bcc


@<TRIPOS>ATOM
      1 C1         -0.0700    4.0740   -0.4160 c1        1 GPS      0.431000
      2 N1          6.1230    0.6150    2.6820 n2        1 GPS     -0.263000
      3 C2          1.9590    2.9010    5.6350 c2        1 GPS      0.201000
      4 N2          0.8300    2.6430    3.4130 n         1 GPS     -0.371000
      5 C3          6.2980   -0.7160    5.3860 c2        1 GPS      0.350000
      6 O5          6.9670   -4.9640    3.9750 oh        1 GPS     -0.335000
      7 O11        -0.5190    4.6010   -1.3770 o         1 GPS     -0.214500
      8 O12         0.3860    3.5390    0.5510 o         1 GPS     -0.214500
      9 O31         6.0570   -1.9180    5.8220 os        1 GPS     -0.584000
     10 O32         7.4400   -0.2810    5.1860 o         1 GPS     -0.370000
     11 CA1         5.8450    0.9250    1.5150 c1        1 GPS     -0.011000
     12 CA2         0.6790    2.7720    4.8310 c3        1 GPS     -0.099000
     13 CA3         5.0780    0.1500    5.1300 c2        1 GPS      0.130000
     14 CA4         8.3720   -3.5250    5.2330 c3        1 GPS     -0.435000
     15 CA5         8.2950   -4.8440    4.4640 c3        1 GPS      0.096000
     16 CB1         5.4000    1.2460    0.3210 c2        1 GPS     -0.192000
     17 CB2         6.3760   -4.3560    6.8110 c2        1 GPS     -0.913000
     18 CB4         9.7330   -3.3570    5.8320 c2        1 GPS     -0.055000
     19 CB5         8.7160   -6.0190    5.3090 c2        1 GPS     -0.227000
     20 CD1         1.1720    1.4770    2.7840 c2        1 GPS      0.283000
     21 CD4        11.4520   -1.5900    5.6330 c2        1 GPS     -0.155000
     22 CD5         8.3790   -8.4100    6.0070 c3        1 GPS     -0.223000
     23 OE1         1.4670    0.4340    3.4050 o         1 GPS     -0.439000
     24 CE4        12.3270   -5.4650    7.4630 c1        1 GPS      0.233000
     25 CE5        11.4030   -7.7070    7.1360 c1        1 GPS      0.289000
     26 CG1         5.2080    0.2740   -0.7720 c3        1 GPS     -0.167000
     27 SG2         7.2270   -3.1710    6.5420 s4        1 GPS      1.453000
     28 CG4        10.2010   -1.9820    5.8870 c2        1 GPS     -0.170000
     29 CG5         8.0220   -7.1810    5.2890 c2        1 GPS      0.000000
     30 CH4        10.4290   -4.4400    6.2720 c2        1 GPS      0.000000
     31 CH5         9.9270   -5.8160    6.0730 c2        1 GPS      0.285000
     32 CZ4        11.6760   -4.3920    7.0030 c2        1 GPS     -0.472000
     33 CZ5        10.6630   -6.7970    6.6180 c1        1 GPS     -0.609000
     34 HN1         2.7860    1.9020   -0.1800 ha        1 GPS      0.000500
     35 HN1A        2.1620    2.1480   -0.2790 ha        1 GPS      0.000500
     36 HN2         0.6290    3.4450    2.8580 hn        1 GPS      0.253000
     37 HN3         1.8830    3.5680    6.5240 h4        1 GPS      0.118000
     38 HO5         7.0010   -5.5400    3.2000 ho        1 GPS      0.224000
     39 HA1         5.4510   -0.7700   -0.4580 hc        1 GPS      0.091667
     40 HA2         6.3460   -5.3350    6.3040 h4        1 GPS      0.199500
     41 HA3         5.1670    1.2340    5.3830 h4        1 GPS      0.221000
     42 HA3A        3.8620   -1.2770    4.3910 hn        1 GPS      0.294500
     43 HA4         8.1910   -2.6980    4.4810 h1        1 GPS      0.174000
     44 HA5         9.0150   -4.7740    3.5920 h1        1 GPS      0.114000
     45 HB1         4.1430    0.3010   -1.1190 hc        1 GPS      0.091667
     46 HB1A        5.1540    2.2980    0.0990 ha        1 GPS      0.163000
     47 HB2         0.0340    3.6720    5.0440 h1        1 GPS      0.130000
     48 HB2A        0.1510    1.8550    5.2370 h1        1 GPS      0.130000
     49 HD4        11.7390   -0.5290    5.6670 ha        1 GPS      0.131000
     50 HD5         8.6120   -8.2000    7.0850 hc        1 GPS      0.117333
     51 HE4        12.2600   -2.2850    5.3630 ha        1 GPS      0.131000
     52 HE5         7.5540   -9.1630    5.9570 hc        1 GPS      0.117333
     53 HG1         1.1670    1.5390    1.6680 h5        1 GPS      0.160000
     54 HG1A        5.8650    0.5450   -1.6370 hc        1 GPS      0.091667
     55 HG4         9.4160   -1.2320    6.1050 ha        1 GPS      0.143000
     56 HG5         7.0910   -7.2340    4.6900 ha        1 GPS      0.134000
     57 HZ4        12.1030   -3.3950    7.2250 ha        1 GPS      0.190000
     58 HZ5         9.3050   -8.8600    5.5580 hc        1 GPS      0.117333
     59 N3          3.9720   -0.3090    4.6380 n3        1 GPS     -0.112000
     60 H13         7.0860    0.6080    2.9650 hn        1 GPS      0.203000
     61 H22         5.5960   -4.3450    7.5930 h4        1 GPS      0.199500
     62 H32         3.1780    0.3010    4.4580 hn        1 GPS      0.294500
     63 O2          3.0000    2.2900    5.3780 o         1 GPS     -0.352000
@<TRIPOS>BOND
     1    1    7 1   
     2    1    8 1   
     3    2   11 1   
     4    2   60 1   
     5    3   12 1   
     6    3   37 1   
     7    3   63 1   
     8    4   12 1   
     9    4   20 1   
    10    4   36 1   
    11    5    9 1   
    12    5   10 1   
    13    5   13 1   
    14    6   15 1   
    15    6   38 1   
    16    9   27 1   
    17   11   16 1   
    18   12   47 1   
    19   12   48 1   
    20   13   41 1   
    21   13   59 1   
    22   14   15 1   
    23   14   18 1   
    24   14   27 1   
    25   14   43 1   
    26   15   19 1   
    27   15   44 1   
    28   16   26 1   
    29   16   46 1   
    30   17   27 1   
    31   17   40 1   
    32   17   61 1   
    33   18   28 1   
    34   18   30 1   
    35   19   29 1   
    36   19   31 1   
    37   20   23 1   
    38   20   53 1   
    39   21   28 1   
    40   21   49 1   
    41   21   51 1   
    42   22   29 1   
    43   22   50 1   
    44   22   52 1   
    45   22   58 1   
    46   24   32 1   
    47   25   33 1   
    48   26   39 1   
    49   26   45 1   
    50   26   54 1   
    51   28   55 1   
    52   29   56 1   
    53   30   31 1   
    54   30   32 1   
    55   31   33 1   
    56   32   57 1   
    57   34   35 1   
    58   42   59 1   
    59   59   62 1   
@<TRIPOS>SUBSTRUCTURE
     1 GPS         1 TEMP              0 ****  ****    0 ROOT
