@<TRIPOS>MOLECULE
GPT
   43    44     1     0     0
SMALL
bcc


@<TRIPOS>ATOM
      1 C1          0.3200   -0.0970   -0.8380 c3        1 GPT      0.148900
      2 C2          1.7930   -0.0960   -0.4290 c3        1 GPT     -0.093400
      3 C3          1.9420    0.0150    1.0700 c3        1 GPT     -0.125700
      4 C4          3.4010    0.3040    1.5200 c3        1 GPT      0.177800
      5 C6          3.6080    1.7660    1.8580 c3        1 GPT     -0.130100
      6 F21         0.1820   -0.1690   -2.2110 f         1 GPT     -0.248300
      7 C19         1.5500   -1.2650    1.8050 c         1 GPT      0.703500
      8 O20         0.4780   -1.8760    1.6980 o         1 GPT     -0.615500
      9 N18         2.5890   -1.6860    2.6400 n         1 GPT     -0.539900
     10 C7          3.6500   -0.6950    2.7400 c3        1 GPT     -0.039600
     11 C16         5.0330   -1.3390    2.5420 c         1 GPT      0.587900
     12 O17         6.0520   -0.6490    2.5020 o         1 GPT     -0.540100
     13 C8          3.6920    0.0210    4.1240 c3        1 GPT      0.132100
     14 O15         2.4530    0.6910    4.3000 oh        1 GPT     -0.601800
     15 C9          3.9970   -0.9560    5.2760 c3        1 GPT     -0.071500
     16 C14         4.9970   -0.3220    6.2390 c3        1 GPT     -0.077400
     17 C13         5.2180   -1.2100    7.4450 c3        1 GPT     -0.077400
     18 C12         3.9290   -1.4470    8.2080 c3        1 GPT     -0.055200
     19 C11         2.7590   -1.6400    7.3180 c2        1 GPT     -0.144200
     20 C10         2.7730   -1.3970    6.0030 c2        1 GPT     -0.198200
     21 O5          4.2570   -0.0820    0.4520 oh        1 GPT     -0.597800
     22 H1         -0.1760    0.8480   -0.4800 h1        1 GPT      0.054200
     23 H1A        -0.2030   -0.9790   -0.3710 h1        1 GPT      0.054200
     24 H2          2.3190    0.7680   -0.9140 hc        1 GPT      0.071700
     25 H2A         2.2890   -1.0310   -0.8000 hc        1 GPT      0.071700
     26 H3          1.2790    0.8350    1.4650 hc        1 GPT      0.093700
     27 H6          4.6540    1.9400    2.2100 hc        1 GPT      0.060700
     28 H6A         2.8940    2.1000    2.6490 hc        1 GPT      0.060700
     29 H6B         3.4360    2.3770    0.9360 hc        1 GPT      0.060700
     30 HN18        2.4000   -2.2550    3.4310 hn        1 GPT      0.318500
     31 H16         5.0560   -2.4430    2.4220 h4        1 GPT      0.029200
     32 H8          4.5160    0.7920    4.0700 h1        1 GPT      0.063700
     33 HO15        2.3890    0.9260    5.2350 ho        1 GPT      0.418000
     34 H9          4.4810   -1.8810    4.8430 hc        1 GPT      0.062700
     35 H14         5.9710   -0.1530    5.7090 hc        1 GPT      0.048200
     36 H14A        4.6120    0.6780    6.5700 hc        1 GPT      0.048200
     37 H13         5.9730   -0.7370    8.1240 hc        1 GPT      0.046700
     38 H13A        5.6400   -2.1930    7.1080 hc        1 GPT      0.046700
     39 H12         3.7200   -0.5680    8.8790 hc        1 GPT      0.054200
     40 H12A        4.0480   -2.3450    8.8710 hc        1 GPT      0.054200
     41 H11         1.8400   -1.9890    7.8170 ha        1 GPT      0.129000
     42 H10         1.8650   -1.5240    5.3930 ha        1 GPT      0.135000
     43 HO5         5.1170    0.3390    0.6000 ho        1 GPT      0.421000
@<TRIPOS>BOND
     1    1    2 1   
     2    1    6 1   
     3    1   22 1   
     4    1   23 1   
     5    2    3 1   
     6    2   24 1   
     7    2   25 1   
     8    3    4 1   
     9    3    7 1   
    10    3   26 1   
    11    4    5 1   
    12    4   10 1   
    13    4   21 1   
    14    5   27 1   
    15    5   28 1   
    16    5   29 1   
    17    7    8 2   
    18    7    9 1   
    19    9   10 1   
    20    9   30 1   
    21   10   11 1   
    22   10   13 1   
    23   11   12 2   
    24   11   31 1   
    25   13   14 1   
    26   13   15 1   
    27   13   32 1   
    28   14   33 1   
    29   15   16 1   
    30   15   20 1   
    31   15   34 1   
    32   16   17 1   
    33   16   35 1   
    34   16   36 1   
    35   17   18 1   
    36   17   37 1   
    37   17   38 1   
    38   18   19 1   
    39   18   39 1   
    40   18   40 1   
    41   19   20 2   
    42   19   41 1   
    43   20   42 1   
    44   21   43 1   
@<TRIPOS>SUBSTRUCTURE
     1 GPT         1 TEMP              0 ****  ****    0 ROOT
