@<TRIPOS>MOLECULE
GPT
   43    44     1     0     0
SMALL
bcc


@<TRIPOS>ATOM
      1 C1          4.5530    1.0180    0.3650 c3        1 GPT      0.151900
      2 C2          3.6690   -0.2160    0.1880 c3        1 GPT     -0.102400
      3 C3          2.2080    0.1260    0.3480 c3        1 GPT     -0.162700
      4 C4          1.2920   -1.1290    0.4110 c3        1 GPT      0.169800
      5 C6          1.0910   -1.6220    1.8270 c3        1 GPT     -0.130100
      6 F21         5.8920    0.6880    0.2810 f         1 GPT     -0.247300
      7 C19         1.6480    0.9300   -0.8270 c         1 GPT      0.707500
      8 O20         2.1900    1.8810   -1.4080 o         1 GPT     -0.621500
      9 N18         0.3750    0.4710   -1.1390 n         1 GPT     -0.578900
     10 C7         -0.0360   -0.6760   -0.3450 c3        1 GPT     -0.029600
     11 C16        -0.5070   -1.8640   -1.1970 c         1 GPT      0.586900
     12 O17        -1.1480   -2.7930   -0.7110 o         1 GPT     -0.517100
     13 C8         -1.1830   -0.3130    0.6520 c3        1 GPT      0.150100
     14 O15        -0.7720    0.6510    1.5970 oh        1 GPT     -0.592800
     15 C9         -2.4870    0.0730   -0.0690 c3        1 GPT     -0.053500
     16 C14        -3.6710   -0.3900    0.7790 c3        1 GPT     -0.075400
     17 C13        -4.9810    0.1030    0.2060 c3        1 GPT     -0.076400
     18 C12        -5.0260    1.6170    0.1540 c3        1 GPT     -0.053200
     19 C11        -3.7470    2.2040   -0.3120 c2        1 GPT     -0.142200
     20 C10        -2.5990    1.5220   -0.3920 c2        1 GPT     -0.195200
     21 O5          1.8260   -2.1670   -0.4080 oh        1 GPT     -0.606800
     22 H1          4.3110    1.7740   -0.4350 h1        1 GPT      0.059200
     23 H1A         4.3630    1.4820    1.3730 h1        1 GPT      0.059200
     24 H2          3.8540   -0.6650   -0.8230 hc        1 GPT      0.062700
     25 H2A         3.9510   -0.9850    0.9560 hc        1 GPT      0.062700
     26 H3          2.0480    0.7340    1.2820 hc        1 GPT      0.097700
     27 H6          0.6570   -0.8200    2.4730 hc        1 GPT      0.063700
     28 H6A         0.4070   -2.5060    1.8270 hc        1 GPT      0.063700
     29 H6B         2.0750   -1.9310    2.2570 hc        1 GPT      0.063700
     30 HN18       -0.1180    0.7330   -1.9540 hn        1 GPT      0.332500
     31 H16        -0.2060   -1.8430   -2.2660 h4        1 GPT      0.018200
     32 H8         -1.3730   -1.2430    1.2690 h1        1 GPT      0.099700
     33 HO15       -0.7510    1.5130    1.1630 ho        1 GPT      0.413000
     34 H9         -2.5220   -0.4920   -1.0470 hc        1 GPT      0.056700
     35 H14        -3.6760   -1.5110    0.8240 hc        1 GPT      0.053200
     36 H14A       -3.5440   -0.0050    1.8250 hc        1 GPT      0.053200
     37 H13        -5.1160   -0.3130   -0.8270 hc        1 GPT      0.044700
     38 H13A       -5.8300   -0.2760    0.8330 hc        1 GPT      0.044700
     39 H12        -5.8600    1.9450   -0.5230 hc        1 GPT      0.052700
     40 H12A       -5.2510    2.0260    1.1770 hc        1 GPT      0.052700
     41 H11        -3.7890    3.2710   -0.5850 ha        1 GPT      0.124000
     42 H10        -1.6830    2.0240   -0.7400 ha        1 GPT      0.124000
     43 HO5         2.5340   -2.5970    0.0890 ho        1 GPT      0.418000
@<TRIPOS>BOND
     1    1    2 1   
     2    1    6 1   
     3    1   22 1   
     4    1   23 1   
     5    2    3 1   
     6    2   24 1   
     7    2   25 1   
     8    3    4 1   
     9    3    7 1   
    10    3   26 1   
    11    4    5 1   
    12    4   10 1   
    13    4   21 1   
    14    5   27 1   
    15    5   28 1   
    16    5   29 1   
    17    7    8 2   
    18    7    9 1   
    19    9   10 1   
    20    9   30 1   
    21   10   11 1   
    22   10   13 1   
    23   11   12 2   
    24   11   31 1   
    25   13   14 1   
    26   13   15 1   
    27   13   32 1   
    28   14   33 1   
    29   15   16 1   
    30   15   20 1   
    31   15   34 1   
    32   16   17 1   
    33   16   35 1   
    34   16   36 1   
    35   17   18 1   
    36   17   37 1   
    37   17   38 1   
    38   18   19 1   
    39   18   39 1   
    40   18   40 1   
    41   19   20 2   
    42   19   41 1   
    43   20   42 1   
    44   21   43 1   
@<TRIPOS>SUBSTRUCTURE
     1 GPT         1 TEMP              0 ****  ****    0 ROOT
