@<TRIPOS>MOLECULE
GPT
   43    44     1     0     0
SMALL
bcc


@<TRIPOS>ATOM
      1 C1          0.2510   -0.0430   -0.6230 c3        1 GPT      0.151900
      2 C2          1.7520   -0.0210   -0.3310 c3        1 GPT     -0.102400
      3 C3          2.0230   -0.0250    1.1530 c3        1 GPT     -0.163700
      4 C4          3.5170    0.2200    1.5030 c3        1 GPT      0.174800
      5 C6          3.8080    1.6810    1.7720 c3        1 GPT     -0.129100
      6 F21         0.0080    0.0210   -1.9820 f         1 GPT     -0.248300
      7 C19         1.6850   -1.3540    1.8290 c         1 GPT      0.705500
      8 O20         0.6290   -1.9920    1.7160 o         1 GPT     -0.616500
      9 N18         2.7590   -1.7810    2.6180 n         1 GPT     -0.537900
     10 C7          3.7880   -0.7520    2.7340 c3        1 GPT     -0.010600
     11 C16         5.1960   -1.3440    2.5510 c         1 GPT      0.596900
     12 O17         6.1900   -0.8100    3.0390 o         1 GPT     -0.529100
     13 C8          3.7480   -0.0040    4.0990 c3        1 GPT      0.131100
     14 O15         2.4960    0.6630    4.1890 oh        1 GPT     -0.609800
     15 C9          3.9950   -0.9540    5.2850 c3        1 GPT     -0.067500
     16 C14         4.9450   -0.2950    6.2820 c3        1 GPT     -0.076400
     17 C13         5.1020   -1.1510    7.5210 c3        1 GPT     -0.076400
     18 C12         3.7750   -1.3710    8.2200 c3        1 GPT     -0.054200
     19 C11         2.6550   -1.5980    7.2750 c2        1 GPT     -0.145200
     20 C10         2.7390   -1.3880    5.9570 c2        1 GPT     -0.198200
     21 O5          4.3670   -0.2660    0.4680 oh        1 GPT     -0.602800
     22 H1         -0.2010   -0.9910   -0.2140 h1        1 GPT      0.059700
     23 H1A        -0.2460    0.8380   -0.1300 h1        1 GPT      0.059700
     24 H2          2.1990    0.9030   -0.7850 hc        1 GPT      0.061700
     25 H2A         2.2400   -0.9070   -0.8170 hc        1 GPT      0.061700
     26 H3          1.4020    0.7620    1.6660 hc        1 GPT      0.100700
     27 H6          3.1590    2.0740    2.5920 hc        1 GPT      0.060033
     28 H6A         3.6080    2.2760    0.8460 hc        1 GPT      0.060033
     29 H6B         4.8810    1.8100    2.0560 hc        1 GPT      0.060033
     30 HN18        2.6060   -2.3810    3.3930 hn        1 GPT      0.320500
     31 H16         5.2500   -2.2540    1.9170 h4        1 GPT      0.035200
     32 H8          4.5680    0.7720    4.0730 h1        1 GPT      0.069700
     33 HO15        2.3720    0.9070    5.1150 ho        1 GPT      0.419000
     34 H9          4.5090   -1.8810    4.8930 hc        1 GPT      0.066700
     35 H14         4.5470    0.7140    6.5660 hc        1 GPT      0.051200
     36 H14A        5.9440   -0.1460    5.7920 hc        1 GPT      0.051200
     37 H13         5.8210   -0.6590    8.2260 hc        1 GPT      0.046700
     38 H13A        5.5420   -2.1420    7.2320 hc        1 GPT      0.046700
     39 H12         3.5270   -0.4730    8.8510 hc        1 GPT      0.052700
     40 H12A        3.8610   -2.2480    8.9170 hc        1 GPT      0.052700
     41 H11         1.7140   -1.9440    7.7330 ha        1 GPT      0.127000
     42 H10         1.8660   -1.5420    5.3030 ha        1 GPT      0.133000
     43 HO5         4.3160    0.3600   -0.2650 ho        1 GPT      0.416000
@<TRIPOS>BOND
     1    1    2 1   
     2    1    6 1   
     3    1   22 1   
     4    1   23 1   
     5    2    3 1   
     6    2   24 1   
     7    2   25 1   
     8    3    4 1   
     9    3    7 1   
    10    3   26 1   
    11    4    5 1   
    12    4   10 1   
    13    4   21 1   
    14    5   27 1   
    15    5   28 1   
    16    5   29 1   
    17    7    8 2   
    18    7    9 1   
    19    9   10 1   
    20    9   30 1   
    21   10   11 1   
    22   10   13 1   
    23   11   12 2   
    24   11   31 1   
    25   13   14 1   
    26   13   15 1   
    27   13   32 1   
    28   14   33 1   
    29   15   16 1   
    30   15   20 1   
    31   15   34 1   
    32   16   17 1   
    33   16   35 1   
    34   16   36 1   
    35   17   18 1   
    36   17   37 1   
    37   17   38 1   
    38   18   19 1   
    39   18   39 1   
    40   18   40 1   
    41   19   20 2   
    42   19   41 1   
    43   20   42 1   
    44   21   43 1   
@<TRIPOS>SUBSTRUCTURE
     1 GPT         1 TEMP              0 ****  ****    0 ROOT
