@<TRIPOS>MOLECULE
GPT
   43    44     1     0     0
SMALL
bcc


@<TRIPOS>ATOM
      1 C1         -4.5110    0.3940   -2.5710 c3        1 GPT      0.150900
      2 C2         -2.9780    0.2970   -2.6040 c3        1 GPT     -0.106400
      3 C3         -2.4360    0.3210   -1.1780 c3        1 GPT     -0.168700
      4 C4         -0.9750    0.7150   -1.2020 c3        1 GPT      0.156800
      5 C6         -0.5020    0.8000   -2.6040 c3        1 GPT     -0.133100
      6 F21        -5.0310   -0.8200   -2.3320 f         1 GPT     -0.246300
      7 C19        -2.4080   -1.0140   -0.6570 c         1 GPT      0.700500
      8 O20        -3.2470   -1.8730   -0.8400 o         1 GPT     -0.612500
      9 N18        -1.1730   -1.1550    0.1580 n         1 GPT     -0.521900
     10 C7         -0.1770   -0.3680   -0.4410 c3        1 GPT     -0.038600
     11 C16         0.7960   -1.1720   -1.3330 c         1 GPT      0.561900
     12 O17         0.5970   -2.3650   -1.5360 o         1 GPT     -0.490100
     13 C8          0.7930    0.2500    0.6090 c3        1 GPT      0.158100
     14 O15         0.0830    1.0150    1.4940 oh        1 GPT     -0.588800
     15 C9          1.5130   -0.8760    1.3650 c3        1 GPT     -0.037500
     16 C14         3.1600   -0.6830    1.2800 c3        1 GPT     -0.076400
     17 C13         3.6320    0.2240    1.9710 c3        1 GPT     -0.076400
     18 C12         3.3140    0.1360    3.5730 c3        1 GPT     -0.047200
     19 C11         1.8950   -0.0520    3.8490 c2        1 GPT     -0.162200
     20 C10         1.0410   -0.9600    2.7160 c2        1 GPT     -0.145200
     21 O5         -0.8130    1.9370   -0.5810 oh        1 GPT     -0.615800
     22 H1         -4.8400    0.7260   -3.4410 h1        1 GPT      0.060200
     23 H1A        -4.7860    1.0160   -1.8560 h1        1 GPT      0.060200
     24 H2         -2.6110    1.0610   -3.1080 hc        1 GPT      0.064700
     25 H2A        -2.7100   -0.5500   -3.0460 hc        1 GPT      0.064700
     26 H3         -3.0570    0.9500   -0.7560 hc        1 GPT      0.090700
     27 H6         -1.0260    1.4880   -3.0880 hc        1 GPT      0.058700
     28 H6A        -0.6170   -0.0600   -3.0390 hc        1 GPT      0.058700
     29 H6B         0.4510    1.0480   -2.6130 hc        1 GPT      0.058700
     30 HN18       -1.0800   -1.6660    0.9220 hn        1 GPT      0.334500
     31 H16         1.5930   -0.7530   -1.6730 h4        1 GPT      0.003200
     32 H8          1.4590    0.8150    0.1470 h1        1 GPT      0.057700
     33 HO15        0.4870    1.8040    1.5970 ho        1 GPT      0.423000
     34 H9          1.2290   -1.6550    0.8500 hc        1 GPT      0.058700
     35 H14         3.3990   -0.5110    0.3440 hc        1 GPT      0.041200
     36 H14A        3.5790   -1.5220    1.5520 hc        1 GPT      0.041200
     37 H13         4.6160    0.2250    1.8500 hc        1 GPT      0.043700
     38 H13A        3.2820    1.0770    1.6360 hc        1 GPT      0.043700
     39 H12         3.6410    0.9320    4.0460 hc        1 GPT      0.049700
     40 H12A        3.8630   -0.5730    3.9990 hc        1 GPT      0.049700
     41 H11         1.5620    0.0270    4.7590 ha        1 GPT      0.126000
     42 H10         0.1020   -1.2160    2.8950 ha        1 GPT      0.130000
     43 HO5        -1.1120    2.5840   -1.1160 ho        1 GPT      0.419000
@<TRIPOS>BOND
     1    1    2 1   
     2    1    6 1   
     3    1   22 1   
     4    1   23 1   
     5    2    3 1   
     6    2   24 1   
     7    2   25 1   
     8    3    4 1   
     9    3    7 1   
    10    3   26 1   
    11    4    5 1   
    12    4   10 1   
    13    4   21 1   
    14    5   27 1   
    15    5   28 1   
    16    5   29 1   
    17    7    8 2   
    18    7    9 1   
    19    9   10 1   
    20    9   30 1   
    21   10   11 1   
    22   10   13 1   
    23   11   12 2   
    24   11   31 1   
    25   13   14 1   
    26   13   15 1   
    27   13   32 1   
    28   14   33 1   
    29   15   16 1   
    30   15   20 1   
    31   15   34 1   
    32   16   17 1   
    33   16   35 1   
    34   16   36 1   
    35   17   18 1   
    36   17   37 1   
    37   17   38 1   
    38   18   19 1   
    39   18   39 1   
    40   18   40 1   
    41   19   20 2   
    42   19   41 1   
    43   20   42 1   
    44   21   43 1   
@<TRIPOS>SUBSTRUCTURE
     1 GPT         1 TEMP              0 ****  ****    0 ROOT
