@<TRIPOS>MOLECULE
GPT
   43    44     1     0     0
SMALL
bcc


@<TRIPOS>ATOM
      1 C1          0.3270   -0.0720   -0.8330 c3        1 GPT      0.148900
      2 C2          1.8000   -0.0860   -0.4250 c3        1 GPT     -0.093400
      3 C3          1.9500    0.0240    1.0740 c3        1 GPT     -0.125700
      4 C4          3.4120    0.2980    1.5240 c3        1 GPT      0.177800
      5 C6          3.6340    1.7590    1.8600 c3        1 GPT     -0.130100
      6 F21         0.1880   -0.1430   -2.2060 f         1 GPT     -0.248300
      7 C19         1.5450   -1.2510    1.8090 c         1 GPT      0.703500
      8 O20         0.4670   -1.8520    1.7030 o         1 GPT     -0.615500
      9 N18         2.5800   -1.6830    2.6450 ns        1 GPT     -0.539900
     10 C7          3.6510   -0.7020    2.7440 c3        1 GPT     -0.039600
     11 C16         5.0270   -1.3600    2.5470 c         1 GPT      0.587900
     12 O17         6.0530   -0.6810    2.5070 o         1 GPT     -0.540100
     13 C8          3.6990    0.0140    4.1280 c3        1 GPT      0.132100
     14 O15         2.4680    0.6970    4.3030 oh        1 GPT     -0.601800
     15 C9          3.9940   -0.9650    5.2810 c3        1 GPT     -0.071500
     16 C14         5.0000   -0.3390    6.2440 c3        1 GPT     -0.077400
     17 C13         5.2100   -1.2280    7.4510 c3        1 GPT     -0.077400
     18 C12         3.9190   -1.4520    8.2130 c3        1 GPT     -0.055200
     19 C11         2.7480   -1.6340    7.3220 c2        1 GPT     -0.144200
     20 C10         2.7650   -1.3930    6.0080 c2        1 GPT     -0.198200
     21 O5          4.2640   -0.0980    0.4570 oh        1 GPT     -0.597800
     22 H1         -0.2050   -0.9490   -0.3660 h1        1 GPT      0.054200
     23 H1A        -0.1590    0.8780   -0.4760 h1        1 GPT      0.054200
     24 H2          2.2870   -1.0260   -0.7950 hc        1 GPT      0.071700
     25 H2A         2.3350    0.7730   -0.9100 hc        1 GPT      0.071700
     26 H3          1.2960    0.8510    1.4690 hc        1 GPT      0.093700
     27 H6          4.6820    1.9220    2.2120 hc        1 GPT      0.060700
     28 H6A         3.4690    2.3700    0.9380 hc        1 GPT      0.060700
     29 H6B         2.9250    2.1010    2.6510 hc        1 GPT      0.060700
     30 HN18        2.3850   -2.2490    3.4360 hn        1 GPT      0.318500
     31 H16         5.0400   -2.4640    2.4290 h4        1 GPT      0.029200
     32 H8          4.5310    0.7770    4.0740 h1        1 GPT      0.063700
     33 HO15        2.4050    0.9340    5.2380 ho        1 GPT      0.418000
     34 H9          4.4680   -1.8950    4.8490 hc        1 GPT      0.062700
     35 H14         5.9760   -0.1820    5.7150 hc        1 GPT      0.048200
     36 H14A        4.6240    0.6640    6.5740 hc        1 GPT      0.048200
     37 H13         5.6230   -2.2160    7.1150 hc        1 GPT      0.046700
     38 H13A        5.9710   -0.7620    8.1310 hc        1 GPT      0.046700
     39 H12         3.7180   -0.5700    8.8830 hc        1 GPT      0.054200
     40 H12A        4.0290   -2.3500    8.8780 hc        1 GPT      0.054200
     41 H11         1.8250   -1.9730    7.8210 ha        1 GPT      0.129000
     42 H10         1.8560   -1.5110    5.3970 ha        1 GPT      0.135000
     43 HO5         5.1280    0.3140    0.6040 ho        1 GPT      0.421000
@<TRIPOS>BOND
     1    1    2 1   
     2    1    6 1   
     3    1   22 1   
     4    1   23 1   
     5    2    3 1   
     6    2   24 1   
     7    2   25 1   
     8    3    4 1   
     9    3    7 1   
    10    3   26 1   
    11    4    5 1   
    12    4   10 1   
    13    4   21 1   
    14    5   27 1   
    15    5   28 1   
    16    5   29 1   
    17    7    8 2   
    18    7    9 1   
    19    9   10 1   
    20    9   30 1   
    21   10   11 1   
    22   10   13 1   
    23   11   12 2   
    24   11   31 1   
    25   13   14 1   
    26   13   15 1   
    27   13   32 1   
    28   14   33 1   
    29   15   16 1   
    30   15   20 1   
    31   15   34 1   
    32   16   17 1   
    33   16   35 1   
    34   16   36 1   
    35   17   18 1   
    36   17   37 1   
    37   17   38 1   
    38   18   19 1   
    39   18   39 1   
    40   18   40 1   
    41   19   20 2   
    42   19   41 1   
    43   20   42 1   
    44   21   43 1   
@<TRIPOS>SUBSTRUCTURE
     1 GPT         1 TEMP              0 ****  ****    0 ROOT
