@<TRIPOS>MOLECULE
GPU
   33    34     1     0     0
SMALL
bcc


@<TRIPOS>ATOM
      1 N1         -0.0990   -0.1590   -0.0590 n         1 GPU     -0.373000
      2 BR1        -1.1060    0.1880    3.9210 br        1 GPU     -0.000700
      3 C2          1.3160    0.0440   -0.0940 c         1 GPU      0.807500
      4 O2          1.9380    0.0430   -1.1750 o         1 GPU     -0.620500
      5 N3          1.9830    0.1970    1.1250 n         1 GPU     -0.583500
      6 C4          1.3340    0.2420    2.3750 c         1 GPU      0.727700
      7 O4          2.0350    0.3840    3.3860 o         1 GPU     -0.575500
      8 C5         -0.1360    0.1180    2.3400 cc        1 GPU     -0.238500
      9 C6         -0.7760   -0.0400    1.1450 cd        1 GPU      0.080600
     10 C1'        -0.8370   -0.1370   -1.3140 c3        1 GPU      0.268500
     11 C2'        -1.6710   -1.4280   -1.5540 c3        1 GPU      0.081100
     12 O2'        -0.8350   -2.5490   -1.7630 oh        1 GPU     -0.590800
     13 C3'        -2.4670   -1.2650   -2.8610 c3        1 GPU      0.109100
     14 O3'        -3.3730   -2.3400   -3.0250 oh        1 GPU     -0.601800
     15 C4'        -3.3170    0.0150   -2.8100 c3        1 GPU      0.122100
     16 O4'        -3.9060    0.2670   -4.0720 oh        1 GPU     -0.590800
     17 C5'        -2.4170    1.2160   -2.4840 c3        1 GPU      0.106100
     18 O5'        -1.7370    0.9860   -1.2460 os        1 GPU     -0.447600
     19 C6'        -3.2500    2.4840   -2.2660 c3        1 GPU      0.140400
     20 O6'        -2.4280    3.6220   -2.1550 oh        1 GPU     -0.588800
     21 HN3         2.9750    0.3090    1.0870 hn        1 GPU      0.360500
     22 H6         -1.8820   -0.0950    1.0640 h4        1 GPU      0.185000
     23 H1'        -0.1040    0.0030   -2.1670 h2        1 GPU      0.118700
     24 H2'        -2.3740   -1.6130   -0.6960 h1        1 GPU      0.062700
     25 HO2'       -0.3750   -2.7320   -0.9340 ho        1 GPU      0.421000
     26 H3'        -1.7560   -1.2270   -3.7340 h1        1 GPU      0.072700
     27 HO3'       -2.8420   -3.1480   -3.0530 ho        1 GPU      0.430000
     28 H4'        -4.1200   -0.0980   -2.0290 h1        1 GPU      0.062700
     29 HO4'       -4.3990   -0.5310   -4.3080 ho        1 GPU      0.428000
     30 H5'        -1.6680    1.3800   -3.3060 h1        1 GPU      0.080700
     31 H6'        -3.8850    2.6580   -3.1770 h1        1 GPU      0.067700
     32 H6'A       -3.8940    2.3680   -1.3550 h1        1 GPU      0.067700
     33 HO6'       -1.8660    3.4930   -1.3800 ho        1 GPU      0.409000
@<TRIPOS>BOND
     1    1    3 1   
     2    1    9 1   
     3    1   10 1   
     4    2    8 1   
     5    3    4 2   
     6    3    5 1   
     7    5    6 1   
     8    5   21 1   
     9    6    7 2   
    10    6    8 1   
    11    8    9 2   
    12    9   22 1   
    13   10   11 1   
    14   10   18 1   
    15   10   23 1   
    16   11   12 1   
    17   11   13 1   
    18   11   24 1   
    19   12   25 1   
    20   13   14 1   
    21   13   15 1   
    22   13   26 1   
    23   14   27 1   
    24   15   16 1   
    25   15   17 1   
    26   15   28 1   
    27   16   29 1   
    28   17   18 1   
    29   17   19 1   
    30   17   30 1   
    31   19   20 1   
    32   19   31 1   
    33   19   32 1   
    34   20   33 1   
@<TRIPOS>SUBSTRUCTURE
     1 GPU         1 TEMP              0 ****  ****    0 ROOT
