@<TRIPOS>MOLECULE
GPU
   33    34     1     0     0
SMALL
bcc


@<TRIPOS>ATOM
      1 N1          1.3610    0.1140    1.0340 n         1 GPU     -0.357000
      2 BR1         5.3620    0.1650    2.5130 br        1 GPU     -0.002700
      3 C2          0.5660    0.1620    2.2610 c         1 GPU      0.821500
      4 O2         -0.6440    0.2530    2.1960 o         1 GPU     -0.632500
      5 N3          1.2290    0.1280    3.5670 n         1 GPU     -0.584500
      6 C4          2.6480    0.1290    3.6440 c         1 GPU      0.729700
      7 O4          3.1990    0.0480    4.7260 o         1 GPU     -0.581500
      8 C5          3.4490    0.1620    2.4130 cc        1 GPU     -0.240500
      9 C6          2.7790    0.1580    1.1040 cd        1 GPU      0.089600
     10 C1'         0.7280    0.0890   -0.2040 c3        1 GPU      0.332500
     11 C2'         0.2190   -1.3110   -0.4660 c3        1 GPU      0.077100
     12 O2'         1.3460   -2.1940   -0.6250 oh        1 GPU     -0.592800
     13 C3'        -0.6240   -1.3850   -1.6860 c3        1 GPU      0.060100
     14 O3'        -1.2190   -2.7110   -1.7680 oh        1 GPU     -0.594800
     15 C4'        -1.7170   -0.3640   -1.6810 c3        1 GPU      0.089100
     16 O4'        -2.3650   -0.3760   -2.9550 oh        1 GPU     -0.588800
     17 C5'        -1.1980    1.0380   -1.4080 c3        1 GPU      0.110100
     18 O5'        -0.3640    1.1040   -0.2080 os        1 GPU     -0.431600
     19 C6'        -2.3660    1.9630   -1.2400 c3        1 GPU      0.141400
     20 O6'        -1.8990    3.2950   -1.0880 oh        1 GPU     -0.590800
     21 HN3         0.7320    0.1580    4.3310 hn        1 GPU      0.357500
     22 H6          3.3080    0.1260    0.2860 h4        1 GPU      0.178000
     23 H1'         1.3770    0.3220   -0.8940 h2        1 GPU      0.074700
     24 H2'        -0.3100   -1.6060    0.3030 h1        1 GPU      0.093700
     25 HO2'        1.0900   -3.0310   -0.4750 ho        1 GPU      0.425000
     26 H3'        -0.0590   -1.2410   -2.4700 h1        1 GPU      0.104700
     27 HO3'       -2.0250   -2.6980   -1.3950 ho        1 GPU      0.409000
     28 H4'        -2.3670   -0.6000   -0.9920 h1        1 GPU      0.060700
     29 HO4'       -3.1830   -0.7140   -2.8690 ho        1 GPU      0.422000
     30 H5'        -0.6700    1.3330   -2.1740 h1        1 GPU      0.070700
     31 H6'        -2.8780    1.7030   -0.4430 h1        1 GPU      0.070200
     32 H6'A       -2.9460    1.9070   -2.0350 h1        1 GPU      0.070200
     33 HO6'       -2.5590    3.8710   -1.2990 ho        1 GPU      0.410000
@<TRIPOS>BOND
     1    1    3 1   
     2    1    9 1   
     3    1   10 1   
     4    2    8 1   
     5    3    4 2   
     6    3    5 1   
     7    5    6 1   
     8    5   21 1   
     9    6    7 2   
    10    6    8 1   
    11    8    9 2   
    12    9   22 1   
    13   10   11 1   
    14   10   18 1   
    15   10   23 1   
    16   11   12 1   
    17   11   13 1   
    18   11   24 1   
    19   12   25 1   
    20   13   14 1   
    21   13   15 1   
    22   13   26 1   
    23   14   27 1   
    24   15   16 1   
    25   15   17 1   
    26   15   28 1   
    27   16   29 1   
    28   17   18 1   
    29   17   19 1   
    30   17   30 1   
    31   19   20 1   
    32   19   31 1   
    33   19   32 1   
    34   20   33 1   
@<TRIPOS>SUBSTRUCTURE
     1 GPU         1 TEMP              0 ****  ****    0 ROOT
