@<TRIPOS>MOLECULE
GPU
   33    34     1     0     0
SMALL
bcc


@<TRIPOS>ATOM
      1 N1         -0.0970   -0.1560   -0.0600 n         1 GPU     -0.373000
      2 BR1        -1.0930    0.2230    3.9200 br        1 GPU     -0.000700
      3 C2          1.3180    0.0430   -0.1000 c         1 GPU      0.807500
      4 O2          1.9380    0.0330   -1.1820 o         1 GPU     -0.620500
      5 N3          1.9890    0.2030    1.1160 n         1 GPU     -0.583500
      6 C4          1.3430    0.2590    2.3680 c         1 GPU      0.727700
      7 O4          2.0470    0.4060    3.3760 o         1 GPU     -0.575500
      8 C5         -0.1280    0.1390    2.3370 cc        1 GPU     -0.238500
      9 C6         -0.7710   -0.0260    1.1440 cd        1 GPU      0.080600
     10 C1'        -0.8380   -0.1400   -1.3130 c3        1 GPU      0.268500
     11 C2'        -1.6770   -1.4310   -1.5420 c3        1 GPU      0.081100
     12 O2'        -0.8440   -2.5550   -1.7460 oh        1 GPU     -0.590800
     13 C3'        -2.4750   -1.2740   -2.8490 c3        1 GPU      0.109100
     14 O3'        -3.3850   -2.3480   -3.0030 oh        1 GPU     -0.601800
     15 C4'        -3.3220    0.0090   -2.8040 c3        1 GPU      0.122100
     16 O4'        -3.9120    0.2540   -4.0670 oh        1 GPU     -0.590800
     17 C5'        -2.4170    1.2100   -2.4890 c3        1 GPU      0.106100
     18 O5'        -1.7340    0.9860   -1.2520 os        1 GPU     -0.447600
     19 C6'        -3.2460    2.4810   -2.2790 c3        1 GPU      0.140400
     20 O6'        -2.4190    3.6180   -2.1770 oh        1 GPU     -0.588800
     21 HN3         2.9810    0.3120    1.0750 hn        1 GPU      0.360500
     22 H6         -1.8770   -0.0790    1.0660 h4        1 GPU      0.185000
     23 H1'        -0.1060   -0.0090   -2.1690 h2        1 GPU      0.118700
     24 H2'        -2.3780   -1.6070   -0.6810 h1        1 GPU      0.062700
     25 HO2'       -0.3830   -2.7340   -0.9170 ho        1 GPU      0.421000
     26 H3'        -1.7670   -1.2450   -3.7230 h1        1 GPU      0.072700
     27 HO3'       -2.8570   -3.1570   -3.0270 ho        1 GPU      0.430000
     28 H4'        -4.1230   -0.0960   -2.0210 h1        1 GPU      0.062700
     29 HO4'       -4.4090   -0.5450   -4.2960 ho        1 GPU      0.428000
     30 H5'        -1.6690    1.3650   -3.3150 h1        1 GPU      0.080700
     31 H6'        -3.8880    2.3740   -1.3650 h1        1 GPU      0.067700
     32 H6'A       -3.8820    2.6510   -3.1890 h1        1 GPU      0.067700
     33 HO6'       -1.8560    3.4930   -1.4020 ho        1 GPU      0.409000
@<TRIPOS>BOND
     1    1    3 1   
     2    1    9 1   
     3    1   10 1   
     4    2    8 1   
     5    3    4 2   
     6    3    5 1   
     7    5    6 1   
     8    5   21 1   
     9    6    7 2   
    10    6    8 1   
    11    8    9 2   
    12    9   22 1   
    13   10   11 1   
    14   10   18 1   
    15   10   23 1   
    16   11   12 1   
    17   11   13 1   
    18   11   24 1   
    19   12   25 1   
    20   13   14 1   
    21   13   15 1   
    22   13   26 1   
    23   14   27 1   
    24   15   16 1   
    25   15   17 1   
    26   15   28 1   
    27   16   29 1   
    28   17   18 1   
    29   17   19 1   
    30   17   30 1   
    31   19   20 1   
    32   19   31 1   
    33   19   32 1   
    34   20   33 1   
@<TRIPOS>SUBSTRUCTURE
     1 GPU         1 TEMP              0 ****  ****    0 ROOT
