@<TRIPOS>MOLECULE
GPU
   33    34     1     0     0
SMALL
bcc


@<TRIPOS>ATOM
      1 N1          0.1670   -0.7630   -0.4850 n         1 GPU     -0.359000
      2 BR1         3.4090    1.4360    0.7790 br        1 GPU     -0.006700
      3 C2          0.7080   -1.7380   -1.3770 c         1 GPU      0.820500
      4 O2         -0.0320   -2.5390   -1.9830 o         1 GPU     -0.626500
      5 N3          2.0960   -1.7630   -1.5450 n         1 GPU     -0.582500
      6 C4          2.9800   -0.8610   -0.9190 c         1 GPU      0.731700
      7 O4          4.1920   -0.9950   -1.1390 o         1 GPU     -0.582500
      8 C5          2.3530    0.1620   -0.0620 cc        1 GPU     -0.246500
      9 C6          0.9980    0.1680    0.1080 cd        1 GPU      0.095600
     10 C1'        -1.2700   -0.7090   -0.2920 c3        1 GPU      0.308500
     11 C2'        -1.7170   -0.9140    1.1860 c3        1 GPU      0.117100
     12 O2'        -1.3150   -2.2120    1.5720 oh        1 GPU     -0.582800
     13 C3'        -3.2490   -0.7870    1.2390 c3        1 GPU      0.067100
     14 O3'        -3.6070   -0.8900    2.6090 oh        1 GPU     -0.602800
     15 C4'        -3.6830    0.5750    0.6730 c3        1 GPU      0.084100
     16 O4'        -5.0960    0.6240    0.5690 oh        1 GPU     -0.587800
     17 C5'        -3.1130    0.7410   -0.7430 c3        1 GPU      0.108100
     18 O5'        -1.6900    0.6090   -0.7010 os        1 GPU     -0.445600
     19 C6'        -3.3810    2.1480   -1.2870 c3        1 GPU      0.140400
     20 O6'        -3.0330    2.2440   -2.6480 oh        1 GPU     -0.587800
     21 HN3         2.4650   -2.4700   -2.1460 hn        1 GPU      0.358500
     22 H6          0.4800    0.9260    0.7310 h4        1 GPU      0.180000
     23 H1'        -1.7550   -1.4950   -0.9480 h2        1 GPU      0.120700
     24 H2'        -1.2500   -0.1440    1.8590 h1        1 GPU      0.062700
     25 HO2'       -1.6770   -2.3570    2.4580 ho        1 GPU      0.428000
     26 H3'        -3.7240   -1.6180    0.6470 h1        1 GPU      0.073700
     27 HO3'       -4.5450   -1.1160    2.6340 ho        1 GPU      0.415000
     28 H4'        -3.3060    1.3980    1.3410 h1        1 GPU      0.064700
     29 HO4'       -5.4310    0.7830    1.4600 ho        1 GPU      0.411000
     30 H5'        -3.5500   -0.0320   -1.4340 h1        1 GPU      0.081700
     31 H6'        -4.4860    2.3480   -1.2430 h1        1 GPU      0.065200
     32 H6'A       -2.8200    2.9070   -0.6800 h1        1 GPU      0.065200
     33 HO6'       -2.0870    2.0580   -2.7160 ho        1 GPU      0.412000
@<TRIPOS>BOND
     1    1    3 1   
     2    1    9 1   
     3    1   10 1   
     4    2    8 1   
     5    3    4 2   
     6    3    5 1   
     7    5    6 1   
     8    5   21 1   
     9    6    7 2   
    10    6    8 1   
    11    8    9 2   
    12    9   22 1   
    13   10   11 1   
    14   10   18 1   
    15   10   23 1   
    16   11   12 1   
    17   11   13 1   
    18   11   24 1   
    19   12   25 1   
    20   13   14 1   
    21   13   15 1   
    22   13   26 1   
    23   14   27 1   
    24   15   16 1   
    25   15   17 1   
    26   15   28 1   
    27   16   29 1   
    28   17   18 1   
    29   17   19 1   
    30   17   30 1   
    31   19   20 1   
    32   19   31 1   
    33   19   32 1   
    34   20   33 1   
@<TRIPOS>SUBSTRUCTURE
     1 GPU         1 TEMP              0 ****  ****    0 ROOT
