@<TRIPOS>MOLECULE
GPV
   33    34     1     0     0
SMALL
bcc


@<TRIPOS>ATOM
      1 I           0.0940    0.2520   -0.1430 i         1 GPV     -0.056800
      2 N1          4.3340   -0.1490   -0.1100 n         1 GPV     -0.375000
      3 C2          4.7260    0.0360    1.2540 c         1 GPV      0.807500
      4 O2          5.9290    0.0160    1.5840 o         1 GPV     -0.621500
      5 N3          3.7160    0.1940    2.2070 n         1 GPV     -0.582500
      6 C4          2.3440    0.2600    1.8890 c         1 GPV      0.729700
      7 O4          1.5440    0.4050    2.8240 o         1 GPV     -0.579500
      8 C5          2.0080    0.1510    0.4610 cc        1 GPV     -0.187400
      9 C6          3.0000   -0.0120   -0.4580 cd        1 GPV      0.094600
     10 C1'         5.3640   -0.1370   -1.1390 c3        1 GPV      0.267500
     11 C2'         5.3740   -1.4290   -2.0060 c3        1 GPV      0.081100
     12 O2'         5.7770   -2.5530   -1.2490 oh        1 GPV     -0.589800
     13 C3'         6.4400   -1.2750   -3.1060 c3        1 GPV      0.109100
     14 O3'         6.3610   -2.3500   -4.0240 oh        1 GPV     -0.601800
     15 C4'         6.1890    0.0070   -3.9160 c3        1 GPV      0.122100
     16 O4'         7.2640    0.2490   -4.8030 oh        1 GPV     -0.589800
     17 C5'         6.1110    1.2090   -2.9630 c3        1 GPV      0.106100
     18 O5'         5.0830    0.9880   -1.9920 os        1 GPV     -0.447600
     19 C6'         5.7040    2.4810   -3.7140 c3        1 GPV      0.140400
     20 O6'         5.8150    3.6180   -2.8890 oh        1 GPV     -0.587800
     21 H6          2.8020   -0.0580   -1.5500 h4        1 GPV      0.184000
     22 H1'         6.3750   -0.0070   -0.6430 h2        1 GPV      0.119700
     23 H2'         4.3650   -1.6040   -2.4700 h1        1 GPV      0.062700
     24 HO2'        5.0910   -2.7290   -0.5940 ho        1 GPV      0.421000
     25 H3'         7.4640   -1.2480   -2.6380 h1        1 GPV      0.072700
     26 HO3'        6.5140   -3.1600   -3.5180 ho        1 GPV      0.430000
     27 H4'         5.2290   -0.0970   -4.4960 h1        1 GPV      0.062700
     28 HO4'        7.3610   -0.5510   -5.3400 ho        1 GPV      0.428000
     29 H5'         7.0980    1.3630   -2.4440 h1        1 GPV      0.080700
     30 H6'         4.6590    2.3750   -4.1070 h1        1 GPV      0.067700
     31 H6'A        6.4270    2.6470   -4.5580 h1        1 GPV      0.067700
     32 HO6'        5.2050    3.4950   -2.1500 ho        1 GPV      0.409000
     33 HN3         4.0030    0.2950    3.1590 hn        1 GPV      0.359500
@<TRIPOS>BOND
     1    1    8 1   
     2    2    3 1   
     3    2    9 1   
     4    2   10 1   
     5    3    4 2   
     6    3    5 1   
     7    5    6 1   
     8    5   33 1   
     9    6    7 2   
    10    6    8 1   
    11    8    9 2   
    12    9   21 1   
    13   10   11 1   
    14   10   18 1   
    15   10   22 1   
    16   11   12 1   
    17   11   13 1   
    18   11   23 1   
    19   12   24 1   
    20   13   14 1   
    21   13   15 1   
    22   13   25 1   
    23   14   26 1   
    24   15   16 1   
    25   15   17 1   
    26   15   27 1   
    27   16   28 1   
    28   17   18 1   
    29   17   19 1   
    30   17   29 1   
    31   19   20 1   
    32   19   30 1   
    33   19   31 1   
    34   20   32 1   
@<TRIPOS>SUBSTRUCTURE
     1 GPV         1 TEMP              0 ****  ****    0 ROOT
