@<TRIPOS>MOLECULE
GPV
   33    34     1     0     0
SMALL
bcc


@<TRIPOS>ATOM
      1 I           0.0900    0.2040   -0.1530 i         1 GPV     -0.056800
      2 N1          4.3340   -0.1550   -0.1110 n         1 GPV     -0.375000
      3 C2          4.7210    0.0350    1.2540 c         1 GPV      0.807500
      4 O2          5.9240    0.0270    1.5850 o         1 GPV     -0.621500
      5 N3          3.7080    0.1830    2.2040 n         1 GPV     -0.582500
      6 C4          2.3360    0.2350    1.8840 c         1 GPV      0.729700
      7 O4          1.5320    0.3730    2.8170 o         1 GPV     -0.579500
      8 C5          2.0030    0.1220    0.4550 cc        1 GPV     -0.187400
      9 C6          2.9990   -0.0310   -0.4620 cd        1 GPV      0.094600
     10 C1'         5.3650   -0.1330   -1.1380 c3        1 GPV      0.267500
     11 C2'         5.3900   -1.4260   -2.0050 c3        1 GPV      0.081100
     12 O2'         5.8030   -2.5460   -1.2460 oh        1 GPV     -0.589800
     13 C3'         6.4560   -1.2620   -3.1030 c3        1 GPV      0.109100
     14 O3'         6.3890   -2.3380   -4.0200 oh        1 GPV     -0.601800
     15 C4'         6.1940    0.0170   -3.9140 c3        1 GPV      0.122100
     16 O4'         7.2680    0.2690   -4.7990 oh        1 GPV     -0.589800
     17 C5'         6.1030    1.2190   -2.9610 c3        1 GPV      0.106100
     18 O5'         5.0740    0.9880   -1.9930 os        1 GPV     -0.447600
     19 C6'         5.6840    2.4860   -3.7130 c3        1 GPV      0.140400
     20 O6'         5.7830    3.6240   -2.8900 oh        1 GPV     -0.587800
     21 H6          2.8030   -0.0800   -1.5540 h4        1 GPV      0.184000
     22 H1'         6.3740    0.0060   -0.6410 h2        1 GPV      0.118700
     23 H2'         4.3830   -1.6110   -2.4700 h1        1 GPV      0.062700
     24 HO2'        5.1170   -2.7280   -0.5920 ho        1 GPV      0.421000
     25 H3'         7.4790   -1.2240   -2.6330 h1        1 GPV      0.072700
     26 HO3'        6.5490   -3.1460   -3.5130 ho        1 GPV      0.430000
     27 H4'         5.2370   -0.0960   -4.4950 h1        1 GPV      0.062700
     28 HO4'        7.3730   -0.5300   -5.3350 ho        1 GPV      0.428000
     29 H5'         7.0860    1.3830   -2.4410 h1        1 GPV      0.080700
     30 H6'         4.6410    2.3710   -4.1080 h1        1 GPV      0.067700
     31 H6'A        6.4070    2.6590   -4.5570 h1        1 GPV      0.067700
     32 HO6'        5.1740    3.4970   -2.1510 ho        1 GPV      0.409000
     33 HN3         3.9920    0.2870    3.1570 hn        1 GPV      0.359500
@<TRIPOS>BOND
     1    1    8 1   
     2    2    3 1   
     3    2    9 1   
     4    2   10 1   
     5    3    4 2   
     6    3    5 1   
     7    5    6 1   
     8    5   33 1   
     9    6    7 2   
    10    6    8 1   
    11    8    9 2   
    12    9   21 1   
    13   10   11 1   
    14   10   18 1   
    15   10   22 1   
    16   11   12 1   
    17   11   13 1   
    18   11   23 1   
    19   12   24 1   
    20   13   14 1   
    21   13   15 1   
    22   13   25 1   
    23   14   26 1   
    24   15   16 1   
    25   15   17 1   
    26   15   27 1   
    27   16   28 1   
    28   17   18 1   
    29   17   19 1   
    30   17   29 1   
    31   19   20 1   
    32   19   30 1   
    33   19   31 1   
    34   20   32 1   
@<TRIPOS>SUBSTRUCTURE
     1 GPV         1 TEMP              0 ****  ****    0 ROOT
