@<TRIPOS>MOLECULE
GPV
   33    34     1     0     0
SMALL
bcc


@<TRIPOS>ATOM
      1 I           3.1890    1.1530    0.2800 i         1 GPV     -0.063800
      2 N1         -0.3980   -1.0480   -0.3470 n         1 GPV     -0.360000
      3 C2         -0.0040   -2.2620   -0.9900 c         1 GPV      0.820500
      4 O2         -0.8500   -3.1020   -1.3550 o         1 GPV     -0.626500
      5 N3          1.3630   -2.4730   -1.1900 n         1 GPV     -0.581500
      6 C4          2.3610   -1.5430   -0.8330 c         1 GPV      0.732700
      7 O4          3.5410   -1.8530   -1.0540 o         1 GPV     -0.587500
      8 C5          1.8870   -0.2860   -0.2350 cc        1 GPV     -0.195400
      9 C6          0.5520   -0.0970   -0.0290 cd        1 GPV      0.108600
     10 C1'        -1.8100   -0.7970   -0.1280 c3        1 GPV      0.307500
     11 C2'        -2.1900   -0.5930    1.3690 c3        1 GPV      0.117100
     12 O2'        -1.8910   -1.7940    2.0480 oh        1 GPV     -0.582800
     13 C3'        -3.6980   -0.2960    1.4370 c3        1 GPV      0.067100
     14 O3'        -3.9870   -0.0290    2.8010 oh        1 GPV     -0.602800
     15 C4'        -4.0330    0.9280    0.5700 c3        1 GPV      0.084100
     16 O4'        -5.4380    1.0990    0.5010 oh        1 GPV     -0.587800
     17 C5'        -3.5300    0.6890   -0.8620 c3        1 GPV      0.108100
     18 O5'        -2.1250    0.4210   -0.8330 os        1 GPV     -0.445600
     19 C6'        -3.6930    1.9450   -1.7240 c3        1 GPV      0.140400
     20 O6'        -3.4160    1.6740   -3.0780 oh        1 GPV     -0.587800
     21 H6          0.1420    0.8390    0.4060 h4        1 GPV      0.179000
     22 H1'        -2.4040   -1.6610   -0.5550 h2        1 GPV      0.120700
     23 H2'        -1.6150    0.2640    1.8170 h1        1 GPV      0.061700
     24 HO2'       -2.2160   -1.6840    2.9530 ho        1 GPV      0.428000
     25 H3'        -4.2820   -1.1900    1.0820 h1        1 GPV      0.073700
     26 HO3'       -4.9390   -0.1430    2.9110 ho        1 GPV      0.415000
     27 H4'        -3.5430    1.8430    1.0040 h1        1 GPV      0.064700
     28 HO4'       -5.7060    1.5020    1.3370 ho        1 GPV      0.411000
     29 H5'        -4.0760   -0.1760   -1.3290 h1        1 GPV      0.081700
     30 H6'        -4.7690    2.2660   -1.6940 h1        1 GPV      0.065200
     31 H6'A       -3.0280    2.7630   -1.3390 h1        1 GPV      0.065200
     32 HO6'       -2.4980    1.3780   -3.1280 ho        1 GPV      0.412000
     33 HN3         1.6300   -3.3380   -1.6110 hn        1 GPV      0.358500
@<TRIPOS>BOND
     1    1    8 1   
     2    2    3 1   
     3    2    9 1   
     4    2   10 1   
     5    3    4 2   
     6    3    5 1   
     7    5    6 1   
     8    5   33 1   
     9    6    7 2   
    10    6    8 1   
    11    8    9 2   
    12    9   21 1   
    13   10   11 1   
    14   10   18 1   
    15   10   22 1   
    16   11   12 1   
    17   11   13 1   
    18   11   23 1   
    19   12   24 1   
    20   13   14 1   
    21   13   15 1   
    22   13   25 1   
    23   14   26 1   
    24   15   16 1   
    25   15   17 1   
    26   15   27 1   
    27   16   28 1   
    28   17   18 1   
    29   17   19 1   
    30   17   29 1   
    31   19   20 1   
    32   19   30 1   
    33   19   31 1   
    34   20   32 1   
@<TRIPOS>SUBSTRUCTURE
     1 GPV         1 TEMP              0 ****  ****    0 ROOT
