@<TRIPOS>MOLECULE
GPV
   33    34     1     0     0
SMALL
bcc


@<TRIPOS>ATOM
      1 I           0.0710    0.1920   -0.1130 i         1 GPV     -0.060800
      2 N1          4.3100   -0.2200   -0.0840 n         1 GPV     -0.373000
      3 C2          4.7000   -0.0800    1.2860 c         1 GPV      0.807500
      4 O2          5.9020   -0.1260    1.6180 o         1 GPV     -0.621500
      5 N3          3.6890    0.0580    2.2410 ns        1 GPV     -0.582500
      6 C4          2.3180    0.1440    1.9220 c         1 GPV      0.730700
      7 O4          1.5170    0.2730    2.8600 o         1 GPV     -0.582500
      8 C5          1.9840    0.0720    0.4920 cc        1 GPV     -0.189400
      9 C6          2.9780   -0.0670   -0.4300 cd        1 GPV      0.098600
     10 C1'         5.3420   -0.1640   -1.1110 c3        1 GPV      0.265500
     11 C2'         5.4000   -1.4500   -1.9850 c3        1 GPV      0.080100
     12 O2'         5.8520   -2.5630   -1.2390 oh        1 GPV     -0.591800
     13 C3'         6.4530   -1.2480   -3.0900 c3        1 GPV      0.109100
     14 O3'         6.4050   -2.3150   -4.0190 oh        1 GPV     -0.603800
     15 C4'         6.1550    0.0340   -3.8850 c3        1 GPV      0.118100
     16 O4'         7.2090    0.3140   -4.7870 oh        1 GPV     -0.590800
     17 C5'         6.0540    1.2220   -2.9130 c3        1 GPV      0.147100
     18 O5'         5.0190    0.9510   -1.9610 os        1 GPV     -0.432600
     19 C6'         5.6300    2.4970   -3.6460 c3        1 GPV      0.136400
     20 O6'         6.1170    3.5870   -2.8810 oh        1 GPV     -0.595800
     21 H6          2.7810   -0.0800   -1.5230 h4        1 GPV      0.184000
     22 H1'         6.3460    0.0000   -0.6120 h2        1 GPV      0.118700
     23 H2'         4.3960   -1.6630   -2.4440 h1        1 GPV      0.061700
     24 HO2'        5.1950   -2.7480   -0.5580 ho        1 GPV      0.421000
     25 H3'         7.4790   -1.1900   -2.6280 h1        1 GPV      0.072700
     26 HO3'        6.5820   -3.1240   -3.5210 ho        1 GPV      0.430000
     27 H4'         5.1910   -0.0910   -4.4520 h1        1 GPV      0.060700
     28 HO4'        7.3340   -0.4860   -5.3180 ho        1 GPV      0.428000
     29 H5'         7.0340    1.3870   -2.3860 h1        1 GPV      0.088700
     30 H6'         4.5130    2.5430   -3.7360 h1        1 GPV      0.049700
     31 H6'A        6.1030    2.5020   -4.6650 h1        1 GPV      0.049700
     32 HO6'        5.7380    4.3850   -3.2670 ho        1 GPV      0.407000
     33 HN3         3.9740    0.1360    3.1950 hn        1 GPV      0.358500
@<TRIPOS>BOND
     1    1    8 1   
     2    2    3 1   
     3    2    9 1   
     4    2   10 1   
     5    3    4 2   
     6    3    5 1   
     7    5    6 1   
     8    5   33 1   
     9    6    7 2   
    10    6    8 1   
    11    8    9 2   
    12    9   21 1   
    13   10   11 1   
    14   10   18 1   
    15   10   22 1   
    16   11   12 1   
    17   11   13 1   
    18   11   23 1   
    19   12   24 1   
    20   13   14 1   
    21   13   15 1   
    22   13   25 1   
    23   14   26 1   
    24   15   16 1   
    25   15   17 1   
    26   15   27 1   
    27   16   28 1   
    28   17   18 1   
    29   17   19 1   
    30   17   29 1   
    31   19   20 1   
    32   19   30 1   
    33   19   31 1   
    34   20   32 1   
@<TRIPOS>SUBSTRUCTURE
     1 GPV         1 TEMP              0 ****  ****    0 ROOT
