@<TRIPOS>MOLECULE
GPW
   36    37     1     0     0
SMALL
bcc


@<TRIPOS>ATOM
      1 F1         -0.7440    0.8700   -0.9340 f         1 GPW     -0.227967
      2 N1          3.2280    3.3500   -0.6220 n         1 GPW     -0.352000
      3 C2          3.7660    2.9650   -1.8890 c         1 GPW      0.821500
      4 F2         -0.0050    1.3230    1.0520 f         1 GPW     -0.227967
      5 O2          4.7700    3.5290   -2.3750 o         1 GPW     -0.648500
      6 F3          0.6440   -0.4850    0.0510 f         1 GPW     -0.227967
      7 N3          3.1830    1.8900   -2.5660 n         1 GPW     -0.579500
      8 C4          2.0820    1.1610   -2.0770 c         1 GPW      0.734700
      9 O4          1.6330    0.2270   -2.7530 o         1 GPW     -0.569500
     10 C5          1.5650    1.6060   -0.7740 cc        1 GPW     -0.362400
     11 C6          2.1210    2.6740   -0.1340 cd        1 GPW      0.122600
     12 C7          0.3970    0.8450   -0.1750 c3        1 GPW      0.722100
     13 C1'         3.5650    4.6130    0.0280 c3        1 GPW      0.282500
     14 C2'         4.9020    5.2870   -0.3770 c3        1 GPW      0.097100
     15 O2'         5.9980    4.4620   -0.0500 oh        1 GPW     -0.603800
     16 C3'         5.0510    6.5600    0.4770 c3        1 GPW      0.102100
     17 O3'         6.1990    7.2900    0.0840 oh        1 GPW     -0.600800
     18 C4'         3.8440    7.4840    0.2440 c3        1 GPW      0.121100
     19 O4'         3.8760    8.5770    1.1430 oh        1 GPW     -0.592800
     20 C5'         2.5430    6.7160    0.5210 c3        1 GPW      0.106100
     21 O5'         2.4870    5.5240   -0.2680 os        1 GPW     -0.451600
     22 C6'         1.3230    7.5450    0.1040 c3        1 GPW      0.139400
     23 O6'         0.1250    6.9130    0.4890 oh        1 GPW     -0.588800
     24 H6          1.7150    3.0450    0.8330 h4        1 GPW      0.191000
     25 H1'         3.5850    4.4060    1.1440 h2        1 GPW      0.076700
     26 H2'         4.8940    5.5610   -1.4680 h1        1 GPW      0.100700
     27 HO2'        6.1810    3.9020   -0.8190 ho        1 GPW      0.439000
     28 H3'         5.1330    6.2880    1.5670 h1        1 GPW      0.064700
     29 HO3'        6.9500    6.6850    0.1600 ho        1 GPW      0.430000
     30 H4'         3.8610    7.8600   -0.8180 h1        1 GPW      0.067700
     31 HO4'        4.7340    9.0070    1.0200 ho        1 GPW      0.430000
     32 H5'         2.4760    6.4490    1.6120 h1        1 GPW      0.072700
     33 H6'         1.3450    8.5200    0.6630 h1        1 GPW      0.070700
     34 H6'A        1.3430    7.7270   -1.0030 h1        1 GPW      0.070700
     35 HO6'        0.0540    6.0990   -0.0270 ho        1 GPW      0.407000
     36 HN3         3.5840    1.6380   -3.4460 hn        1 GPW      0.363500
@<TRIPOS>BOND
     1    1   12 1   
     2    2    3 1   
     3    2   11 1   
     4    2   13 1   
     5    3    5 2   
     6    3    7 1   
     7    4   12 1   
     8    6   12 1   
     9    7    8 1   
    10    7   36 1   
    11    8    9 2   
    12    8   10 1   
    13   10   11 2   
    14   10   12 1   
    15   11   24 1   
    16   13   14 1   
    17   13   21 1   
    18   13   25 1   
    19   14   15 1   
    20   14   16 1   
    21   14   26 1   
    22   15   27 1   
    23   16   17 1   
    24   16   18 1   
    25   16   28 1   
    26   17   29 1   
    27   18   19 1   
    28   18   20 1   
    29   18   30 1   
    30   19   31 1   
    31   20   21 1   
    32   20   22 1   
    33   20   32 1   
    34   22   23 1   
    35   22   33 1   
    36   22   34 1   
    37   23   35 1   
@<TRIPOS>SUBSTRUCTURE
     1 GPW         1 TEMP              0 ****  ****    0 ROOT
