@<TRIPOS>MOLECULE
GPW
   36    37     1     0     0
SMALL
bcc


@<TRIPOS>ATOM
      1 F1          4.4480    1.5820   -1.0600 f         1 GPW     -0.229967
      2 N1          0.2940   -0.1310    0.2520 n         1 GPW     -0.354000
      3 C2          0.4500    0.0820    1.6590 c         1 GPW      0.821500
      4 F2          3.5110    0.1370   -2.3710 f         1 GPW     -0.229967
      5 O2         -0.5150   -0.0170    2.4420 o         1 GPW     -0.615500
      6 F3          4.8240   -0.5420   -0.7880 f         1 GPW     -0.229967
      7 N3          1.7290    0.3880    2.1400 n         1 GPW     -0.582500
      8 C4          2.8660    0.4970    1.3200 c         1 GPW      0.736700
      9 O4          3.9570    0.7720    1.8400 o         1 GPW     -0.578500
     10 C5          2.6350    0.2700   -0.1140 cc        1 GPW     -0.372400
     11 C6          1.3840   -0.0150   -0.5830 cd        1 GPW      0.131600
     12 C7          3.8250    0.3610   -1.0490 c3        1 GPW      0.723100
     13 C1'        -1.0340   -0.3280   -0.3160 c3        1 GPW      0.326500
     14 C2'        -1.7840   -1.5630    0.2600 c3        1 GPW      0.112100
     15 O2'        -1.0580   -2.7020   -0.1630 oh        1 GPW     -0.598800
     16 C3'        -3.2010   -1.5930   -0.3350 c3        1 GPW      0.073100
     17 O3'        -3.8710   -2.6740    0.2950 oh        1 GPW     -0.598800
     18 C4'        -3.9130   -0.2640   -0.0400 c3        1 GPW      0.082100
     19 O4'        -5.1750   -0.2490   -0.6880 oh        1 GPW     -0.591800
     20 C5'        -3.0780    0.8830   -0.6230 c3        1 GPW      0.109100
     21 O5'        -1.7700    0.8760   -0.0450 os        1 GPW     -0.429600
     22 C6'        -3.6750    2.2460   -0.2570 c3        1 GPW      0.139400
     23 O6'        -2.9980    3.2900   -0.9180 oh        1 GPW     -0.589800
     24 H6          1.2010   -0.1820   -1.6660 h4        1 GPW      0.186000
     25 H1'        -0.9300   -0.4580   -1.4370 h2        1 GPW      0.074700
     26 H2'        -1.8400   -1.5160    1.3830 h1        1 GPW      0.105700
     27 HO2'       -1.5260   -3.4690    0.1960 ho        1 GPW      0.432000
     28 H3'        -3.1550   -1.7660   -1.4460 h1        1 GPW      0.063700
     29 HO3'       -4.6850   -2.8200   -0.2020 ho        1 GPW      0.415000
     30 H4'        -4.0270   -0.1320    1.0710 h1        1 GPW      0.076700
     31 HO4'       -5.7960   -0.6830   -0.0900 ho        1 GPW      0.412000
     32 H5'        -2.9980    0.7810   -1.7410 h1        1 GPW      0.071700
     33 H6'        -4.7330    2.2880   -0.6330 h1        1 GPW      0.068700
     34 H6'A       -3.6460    2.3910    0.8550 h1        1 GPW      0.068700
     35 HO6'       -2.0930    3.3010   -0.5790 ho        1 GPW      0.411000
     36 HN3         1.8200    0.5290    3.1250 hn        1 GPW      0.361500
@<TRIPOS>BOND
     1    1   12 1   
     2    2    3 1   
     3    2   11 1   
     4    2   13 1   
     5    3    5 2   
     6    3    7 1   
     7    4   12 1   
     8    6   12 1   
     9    7    8 1   
    10    7   36 1   
    11    8    9 2   
    12    8   10 1   
    13   10   11 2   
    14   10   12 1   
    15   11   24 1   
    16   13   14 1   
    17   13   21 1   
    18   13   25 1   
    19   14   15 1   
    20   14   16 1   
    21   14   26 1   
    22   15   27 1   
    23   16   17 1   
    24   16   18 1   
    25   16   28 1   
    26   17   29 1   
    27   18   19 1   
    28   18   20 1   
    29   18   30 1   
    30   19   31 1   
    31   20   21 1   
    32   20   22 1   
    33   20   32 1   
    34   22   23 1   
    35   22   33 1   
    36   22   34 1   
    37   23   35 1   
@<TRIPOS>SUBSTRUCTURE
     1 GPW         1 TEMP              0 ****  ****    0 ROOT
