@<TRIPOS>MOLECULE
GPW
   36    37     1     0     0
SMALL
bcc


@<TRIPOS>ATOM
      1 F1         -0.7200    0.8340   -0.8550 f         1 GPW     -0.227967
      2 N1          3.2330    3.3530   -0.6310 n         1 GPW     -0.352000
      3 C2          3.7440    2.9780   -1.9120 c         1 GPW      0.821500
      4 F2          0.0620    1.2890    1.1130 f         1 GPW     -0.227967
      5 O2          4.7310    3.5530   -2.4210 o         1 GPW     -0.648500
      6 F3          0.7050   -0.5100    0.0910 f         1 GPW     -0.227967
      7 N3          3.1560    1.8990   -2.5780 n         1 GPW     -0.579500
      8 C4          2.0740    1.1570   -2.0650 c         1 GPW      0.734700
      9 O4          1.6180    0.2200   -2.7330 o         1 GPW     -0.569500
     10 C5          1.5850    1.5930   -0.7490 cc        1 GPW     -0.362400
     11 C6          2.1450    2.6640   -0.1190 cd        1 GPW      0.122600
     12 C7          0.4400    0.8180   -0.1240 c3        1 GPW      0.722100
     13 C1'         3.5730    4.6170    0.0140 c3        1 GPW      0.282500
     14 C2'         4.8930    5.3060   -0.4210 c3        1 GPW      0.097100
     15 O2'         6.0050    4.4900   -0.1230 oh        1 GPW     -0.603800
     16 C3'         5.0510    6.5780    0.4340 c3        1 GPW      0.102100
     17 O3'         6.1810    7.3190    0.0160 oh        1 GPW     -0.600800
     18 C4'         3.8300    7.4900    0.2330 c3        1 GPW      0.121100
     19 O4'         3.8720    8.5810    1.1350 oh        1 GPW     -0.592800
     20 C5'         2.5430    6.7090    0.5380 c3        1 GPW      0.106100
     21 O5'         2.4800    5.5180   -0.2530 os        1 GPW     -0.451600
     22 C6'         1.3060    7.5270    0.1530 c3        1 GPW      0.139400
     23 O6'         0.1230    6.8820    0.5640 oh        1 GPW     -0.588800
     24 H6          1.7600    3.0280    0.8580 h4        1 GPW      0.191000
     25 H1'         3.6220    4.4080    1.1290 h2        1 GPW      0.076700
     26 H2'         4.8560    5.5830   -1.5100 h1        1 GPW      0.100700
     27 HO2'        6.1750    3.9350   -0.8980 ho        1 GPW      0.439000
     28 H3'         5.1610    6.3030    1.5200 h1        1 GPW      0.064700
     29 HO3'        6.9410    6.7220    0.0720 ho        1 GPW      0.430000
     30 H4'         3.8170    7.8700   -0.8270 h1        1 GPW      0.067700
     31 HO4'        4.7230    9.0190    0.9920 ho        1 GPW      0.430000
     32 H5'         2.5040    6.4380    1.6300 h1        1 GPW      0.072700
     33 H6'         1.3310    8.5000    0.7150 h1        1 GPW      0.070700
     34 H6'A        1.2970    7.7130   -0.9530 h1        1 GPW      0.070700
     35 HO6'        0.0480    6.0690    0.0480 ho        1 GPW      0.407000
     36 HN3         3.5370    1.6540   -3.4690 hn        1 GPW      0.363500
@<TRIPOS>BOND
     1    1   12 1   
     2    2    3 1   
     3    2   11 1   
     4    2   13 1   
     5    3    5 2   
     6    3    7 1   
     7    4   12 1   
     8    6   12 1   
     9    7    8 1   
    10    7   36 1   
    11    8    9 2   
    12    8   10 1   
    13   10   11 2   
    14   10   12 1   
    15   11   24 1   
    16   13   14 1   
    17   13   21 1   
    18   13   25 1   
    19   14   15 1   
    20   14   16 1   
    21   14   26 1   
    22   15   27 1   
    23   16   17 1   
    24   16   18 1   
    25   16   28 1   
    26   17   29 1   
    27   18   19 1   
    28   18   20 1   
    29   18   30 1   
    30   19   31 1   
    31   20   21 1   
    32   20   22 1   
    33   20   32 1   
    34   22   23 1   
    35   22   33 1   
    36   22   34 1   
    37   23   35 1   
@<TRIPOS>SUBSTRUCTURE
     1 GPW         1 TEMP              0 ****  ****    0 ROOT
