@<TRIPOS>MOLECULE
GPW
   36    37     1     0     0
SMALL
bcc


@<TRIPOS>ATOM
      1 F1         -0.7440    0.8760   -0.9760 f         1 GPW     -0.227967
      2 N1          3.2280    3.3530   -0.6330 n         1 GPW     -0.352000
      3 C2          3.7700    2.9790   -1.9010 c         1 GPW      0.821500
      4 F2         -0.0100    1.3120    1.0150 f         1 GPW     -0.227967
      5 O2          4.7750    3.5470   -2.3810 o         1 GPW     -0.648500
      6 F3          0.6420   -0.4880    0.0000 f         1 GPW     -0.227967
      7 N3          3.1880    1.9100   -2.5890 ns        1 GPW     -0.579500
      8 C4          2.0850    1.1770   -2.1090 c         1 GPW      0.734700
      9 O4          1.6380    0.2480   -2.7950 o         1 GPW     -0.569500
     10 C5          1.5660    1.6100   -0.8050 cc        1 GPW     -0.362400
     11 C6          2.1200    2.6720   -0.1530 cd        1 GPW      0.122600
     12 C7          0.3960    0.8440   -0.2150 c3        1 GPW      0.722100
     13 C1'         3.5640    4.6100    0.0290 c3        1 GPW      0.282500
     14 C2'         4.9020    5.2870   -0.3670 c3        1 GPW      0.097100
     15 O2'         5.9970    4.4590   -0.0450 oh        1 GPW     -0.603800
     16 C3'         5.0490    6.5530    0.4990 c3        1 GPW      0.102100
     17 O3'         6.1980    7.2850    0.1150 oh        1 GPW     -0.600800
     18 C4'         3.8430    7.4790    0.2700 c3        1 GPW      0.121100
     19 O4'         3.8730    8.5640    1.1790 oh        1 GPW     -0.592800
     20 C5'         2.5420    6.7090    0.5380 c3        1 GPW      0.106100
     21 O5'         2.4870    5.5230   -0.2620 os        1 GPW     -0.451600
     22 C6'         1.3230    7.5420    0.1250 c3        1 GPW      0.139400
     23 O6'         0.1230    6.9060    0.5010 oh        1 GPW     -0.588800
     24 H6          1.7120    3.0350    0.8150 h4        1 GPW      0.191000
     25 H1'         3.5820    4.3940    1.1430 h2        1 GPW      0.076700
     26 H2'         4.8960    5.5700   -1.4560 h1        1 GPW      0.100700
     27 HO2'        6.1820    3.9060   -0.8180 ho        1 GPW      0.439000
     28 H3'         5.1290    6.2710    1.5860 h1        1 GPW      0.064700
     29 HO3'        6.9490    6.6800    0.1870 ho        1 GPW      0.430000
     30 H4'         3.8620    7.8640   -0.7880 h1        1 GPW      0.067700
     31 HO4'        4.7320    8.9940    1.0620 ho        1 GPW      0.430000
     32 H5'         2.4710    6.4320    1.6260 h1        1 GPW      0.072700
     33 H6'         1.3430    8.5110    0.6930 h1        1 GPW      0.070700
     34 H6'A        1.3450    7.7330   -0.9800 h1        1 GPW      0.070700
     35 HO6'        0.0540    6.0970   -0.0220 ho        1 GPW      0.407000
     36 HN3         3.5910    1.6650   -3.4710 hn        1 GPW      0.363500
@<TRIPOS>BOND
     1    1   12 1   
     2    2    3 1   
     3    2   11 1   
     4    2   13 1   
     5    3    5 2   
     6    3    7 1   
     7    4   12 1   
     8    6   12 1   
     9    7    8 1   
    10    7   36 1   
    11    8    9 2   
    12    8   10 1   
    13   10   11 2   
    14   10   12 1   
    15   11   24 1   
    16   13   14 1   
    17   13   21 1   
    18   13   25 1   
    19   14   15 1   
    20   14   16 1   
    21   14   26 1   
    22   15   27 1   
    23   16   17 1   
    24   16   18 1   
    25   16   28 1   
    26   17   29 1   
    27   18   19 1   
    28   18   20 1   
    29   18   30 1   
    30   19   31 1   
    31   20   21 1   
    32   20   22 1   
    33   20   32 1   
    34   22   23 1   
    35   22   33 1   
    36   22   34 1   
    37   23   35 1   
@<TRIPOS>SUBSTRUCTURE
     1 GPW         1 TEMP              0 ****  ****    0 ROOT
