@<TRIPOS>MOLECULE
GPX
   42    45     1     0     0
SMALL
bcc


@<TRIPOS>ATOM
      1 P1          0.0000    0.0000    0.0000 p5        1 GPX      1.163500
      2 N9          0.8150   -2.0030    4.2260 na        1 GPX      0.250100
      3 C8          1.3610   -1.4940    5.3680 cc        1 GPX      0.199400
      4 N7          0.6340   -1.8320    6.3930 nd        1 GPX     -0.548000
      5 C5         -0.4180   -2.5750    5.9700 cd        1 GPX      0.063800
      6 C6         -1.5070   -3.2000    6.6220 c         1 GPX      0.571000
      7 O6         -1.6400   -3.1240    7.8320 o         1 GPX     -0.764500
      8 N1         -2.4020   -3.8770    5.8700 ns        1 GPX     -0.032400
      9 C2         -2.2430   -3.9600    4.5190 cd        1 GPX      0.158800
     10 N2         -3.1630   -4.6600    3.7810 nv        1 GPX     -0.527800
     11 N3         -1.2350   -3.3840    3.9010 nc        1 GPX     -0.540100
     12 C4         -0.3120   -2.6910    4.5800 cc        1 GPX     -0.156200
     13 O11        -0.5720    1.4930    0.1970 oh        1 GPX     -0.649400
     14 O21        -0.5290   -0.6460   -1.2210 o         1 GPX     -0.656300
     15 O3'         1.6320    0.0000    0.0000 os        1 GPX     -0.375200
     16 PA          6.8540   -0.4270    2.1250 p5        1 GPX      0.881800
     17 O1A         6.7570    0.5920    3.1930 o         1 GPX     -0.671500
     18 O2A         7.1380    0.2980    0.7170 o         1 GPX     -0.671500
     19 O3A         8.0600   -1.4400    2.4590 os        1 GPX     -0.462800
     20 O5'         5.4710   -1.2470    2.0380 os        1 GPX     -0.470200
     21 PB          9.4040   -0.5580    2.5310 p5        1 GPX      0.794900
     22 O1B         9.2670    0.4630    3.5930 o         1 GPX     -0.621167
     23 O2B        10.6560   -1.5130    2.8640 o         1 GPX     -0.621167
     24 O3B         9.6460    0.1690    1.1160 o         1 GPX     -0.621167
     25 C5'         4.4460   -0.2990    1.7410 c3        1 GPX      0.249400
     26 C4'         3.0990   -1.0160    1.6440 c3        1 GPX      0.153100
     27 O4'         2.7710   -1.6410    2.9030 os        1 GPX     -0.358600
     28 C1'         1.3410   -1.8410    2.8690 c3        1 GPX      0.142800
     29 C2'         0.7780   -0.5570    2.2220 c3        1 GPX      0.094100
     30 O2'        -0.2960   -0.9140    1.3180 os        1 GPX     -0.388200
     31 C3'         1.9620    0.0000    1.4000 c3        1 GPX      0.110100
     32 H8          2.2650   -0.8990    5.4150 h5        1 GPX      0.038100
     33 HN1        -3.1890   -4.3160    6.3060 hn        1 GPX      0.136500
     34 HN21       -2.9870   -4.8550    2.8150 hn        1 GPX      0.248300
     35 HN22       -4.0020   -4.9930    4.2130 hn        1 GPX      0.248300
     36 HO1        -1.2220    1.6700   -0.4630 ho        1 GPX      0.433000
     37 H5'1        4.4030    0.4440    2.5280 h1        1 GPX      0.014700
     38 H5'2        4.6650    0.1870    0.7980 h1        1 GPX      0.014700
     39 H4'         3.1160   -1.7560    0.8520 h1        1 GPX      0.027700
     40 H1'         1.0990   -2.7030    2.2600 h2        1 GPX      0.048700
     41 H2'         0.4480    0.1530    2.9720 h1        1 GPX      0.042700
     42 H3'         2.2430    0.9900    1.7380 h1        1 GPX      0.050700
@<TRIPOS>BOND
     1    1   13 1   
     2    1   14 2   
     3    1   15 1   
     4    1   30 1   
     5    2    3 1   
     6    2   12 1   
     7    2   28 1   
     8    3    4 2   
     9    3   32 1   
    10    4    5 1   
    11    5    6 1   
    12    5   12 2   
    13    6    7 2   
    14    6    8 1   
    15    8    9 1   
    16    8   33 1   
    17    9   10 1   
    18    9   11 2   
    19   10   34 1   
    20   10   35 1   
    21   11   12 1   
    22   13   36 1   
    23   15   31 1   
    24   16   17 1   
    25   16   18 1   
    26   16   19 1   
    27   16   20 1   
    28   19   21 1   
    29   20   25 1   
    30   21   22 1   
    31   21   23 1   
    32   21   24 1   
    33   25   26 1   
    34   25   37 1   
    35   25   38 1   
    36   26   27 1   
    37   26   31 1   
    38   26   39 1   
    39   27   28 1   
    40   28   29 1   
    41   28   40 1   
    42   29   30 1   
    43   29   31 1   
    44   29   41 1   
    45   31   42 1   
@<TRIPOS>SUBSTRUCTURE
     1 GPX         1 TEMP              0 ****  ****    0 ROOT
