@<TRIPOS>MOLECULE
GQG
   43    45     1     0     0
SMALL
bcc


@<TRIPOS>ATOM
      1 CAA         0.3640   -1.1010    0.4260 c3        1 GQG     -0.002400
      2 NBE         1.4980   -0.2410    0.1840 nh        1 GQG     -0.227100
      3 CAB         2.0680    0.4920    1.2890 c3        1 GQG     -0.002400
      4 CBA         2.0190   -0.1200   -1.0650 cc        1 GQG      0.431900
      5 CAM         1.4770   -0.8320   -2.1900 cc        1 GQG     -0.329600
      6 CAP         2.0300   -0.6850   -3.4460 cd        1 GQG      0.121500
      7 CAL         3.1450    0.7260   -1.3440 cc        1 GQG     -0.329600
      8 CAO         3.6480    0.8260   -2.6260 cd        1 GQG      0.121500
      9 NBG         3.1090    0.1320   -3.6810 na        1 GQG     -0.433200
     10 CAS         3.6850    0.2380   -5.0280 c3        1 GQG      0.245100
     11 CAX         4.1400    1.6150   -5.3830 ca        1 GQG     -0.174300
     12 CAG         5.4970    1.9480   -5.3040 ca        1 GQG     -0.103500
     13 CAK         5.9310    3.2120   -5.6890 ca        1 GQG     -0.122000
     14 CAF         3.2220    2.5620   -5.8510 ca        1 GQG     -0.103500
     15 CAJ         3.6560    3.8280   -6.2330 ca        1 GQG     -0.122000
     16 CAZ         5.0150    4.1680   -6.1570 cp        1 GQG      0.022000
     17 CAY         5.4710    5.4950   -6.5640 cp        1 GQG     -0.075000
     18 CAI         4.9130    6.1220   -7.6880 ca        1 GQG     -0.108500
     19 CAE         5.3530    7.3860   -8.0760 ca        1 GQG     -0.126500
     20 CAH         6.4730    6.1540   -5.8370 ca        1 GQG     -0.108500
     21 CAD         6.9050    7.4200   -6.2270 ca        1 GQG     -0.126500
     22 CAW         6.3480    8.0370   -7.3470 ca        1 GQG     -0.105000
     23 HAA1        0.6190   -2.1620    0.1510 h1        1 GQG      0.071200
     24 HAA2        0.0820   -1.0700    1.5110 h1        1 GQG      0.071200
     25 HAA3       -0.5160   -0.7620   -0.1850 h1        1 GQG      0.071200
     26 HAB1        1.5040    0.2660    2.2330 h1        1 GQG      0.071200
     27 HAB2        2.0090    1.5970    1.0920 h1        1 GQG      0.071200
     28 HAB3        3.1430    0.1990    1.4340 h1        1 GQG      0.071200
     29 HAM         0.6120   -1.5040   -2.0720 ha        1 GQG      0.184000
     30 HAL         3.6280    1.3120   -0.5450 ha        1 GQG      0.184000
     31 HAP         1.6170   -1.2320   -4.3190 h4        1 GQG      0.200500
     32 HAO         4.5150    1.4810   -2.8620 h4        1 GQG      0.200500
     33 HAS1        2.9010   -0.1010   -5.7660 h1        1 GQG      0.089200
     34 HAS2        4.5540   -0.4830   -5.0740 h1        1 GQG      0.089200
     35 HAG         6.2310    1.2030   -4.9560 ha        1 GQG      0.136500
     36 HAF         2.1540    2.3060   -5.9260 ha        1 GQG      0.136500
     37 HAK         7.0030    3.4630   -5.6410 ha        1 GQG      0.155500
     38 HAJ         2.9270    4.5690   -6.5980 ha        1 GQG      0.155500
     39 HAI         4.1350    5.6090   -8.2730 ha        1 GQG      0.133500
     40 HAH         6.9150    5.6750   -4.9510 ha        1 GQG      0.133500
     41 HAE         4.9150    7.8690   -8.9630 ha        1 GQG      0.143500
     42 HAW         6.6920    9.0360   -7.6550 ha        1 GQG      0.145000
     43 HAD         7.6890    7.9330   -5.6490 ha        1 GQG      0.143500
@<TRIPOS>BOND
     1    1    2 1   
     2    1   23 1   
     3    1   24 1   
     4    1   25 1   
     5    2    3 1   
     6    2    4 2   
     7    3   26 1   
     8    3   27 1   
     9    3   28 1   
    10    4    5 1   
    11    4    7 1   
    12    5    6 2   
    13    5   29 1   
    14    6    9 1   
    15    6   31 1   
    16    7    8 2   
    17    7   30 1   
    18    8    9 1   
    19    8   32 1   
    20    9   10 1   
    21   10   11 1   
    22   10   33 1   
    23   10   34 1   
    24   11   12 ar  
    25   11   14 ar  
    26   12   13 ar  
    27   12   35 1   
    28   13   16 ar  
    29   13   37 1   
    30   14   15 ar  
    31   14   36 1   
    32   15   16 ar  
    33   15   38 1   
    34   16   17 1   
    35   17   18 ar  
    36   17   20 ar  
    37   18   19 ar  
    38   18   39 1   
    39   19   22 ar  
    40   19   41 1   
    41   20   21 ar  
    42   20   40 1   
    43   21   22 ar  
    44   21   43 1   
    45   22   42 1   
@<TRIPOS>SUBSTRUCTURE
     1 GQG         1 TEMP              0 ****  ****    0 ROOT
