@<TRIPOS>MOLECULE
GQG
   43    45     1     0     0
SMALL
bcc


@<TRIPOS>ATOM
      1 CAA         0.0430    0.4850    0.1150 c3        1 GQG     -0.002400
      2 NBE         1.2930   -0.2360    0.0700 nh        1 GQG     -0.227100
      3 CAB         1.6500   -1.0860    1.1810 c3        1 GQG     -0.002400
      4 CBA         2.1210   -0.1140   -0.9990 cc        1 GQG      0.431900
      5 CAM         1.8000    0.7220   -2.1230 cc        1 GQG     -0.329600
      6 CAP         2.6660    0.8230   -3.1930 cd        1 GQG      0.121500
      7 CAL         3.3750   -0.8130   -1.0780 cc        1 GQG     -0.329600
      8 CAO         4.1930   -0.6650   -2.1800 cd        1 GQG      0.121500
      9 NBG         3.8570    0.1410   -3.2400 na        1 GQG     -0.433200
     10 CAS         4.7440    0.2480   -4.4060 c3        1 GQG      0.245100
     11 CAX         4.8090    1.6200   -4.9910 ca        1 GQG     -0.174300
     12 CAG         5.6540    2.5850   -4.4330 ca        1 GQG     -0.103500
     13 CAK         5.7550    3.8460   -5.0120 ca        1 GQG     -0.122000
     14 CAF         4.0660    1.9300   -6.1370 ca        1 GQG     -0.103500
     15 CAJ         4.1690    3.1900   -6.7170 ca        1 GQG     -0.122000
     16 CAZ         5.0140    4.1640   -6.1610 cp        1 GQG      0.022000
     17 CAY         5.1250    5.4860   -6.7730 cp        1 GQG     -0.075000
     18 CAI         3.9890    6.1240   -7.2930 ca        1 GQG     -0.108500
     19 CAE         4.0980    7.3850   -7.8750 ca        1 GQG     -0.126500
     20 CAH         6.3690    6.1300   -6.8480 ca        1 GQG     -0.108500
     21 CAD         6.4720    7.3890   -7.4360 ca        1 GQG     -0.126500
     22 CAW         5.3380    8.0200   -7.9480 ca        1 GQG     -0.105000
     23 HAA1       -0.4980    0.2590    1.0720 h1        1 GQG      0.071200
     24 HAA2       -0.6100    0.1790   -0.7480 h1        1 GQG      0.071200
     25 HAA3        0.2320    1.5910    0.0610 h1        1 GQG      0.071200
     26 HAB1        2.6120   -0.7330    1.6440 h1        1 GQG      0.071200
     27 HAB2        0.8440   -1.0590    1.9620 h1        1 GQG      0.071200
     28 HAB3        1.7750   -2.1470    0.8310 h1        1 GQG      0.071200
     29 HAM         0.8610    1.2980   -2.1520 ha        1 GQG      0.184000
     30 HAL         3.7060   -1.4770   -0.2640 ha        1 GQG      0.184000
     31 HAP         2.4370    1.4700   -4.0680 h4        1 GQG      0.200500
     32 HAO         5.1620   -1.2030   -2.2470 h4        1 GQG      0.200500
     33 HAS1        4.3660   -0.4870   -5.1780 h1        1 GQG      0.089200
     34 HAS2        5.7770   -0.0730   -4.0840 h1        1 GQG      0.089200
     35 HAG         6.2500    2.3470   -3.5380 ha        1 GQG      0.136500
     36 HAF         3.4130    1.1710   -6.5960 ha        1 GQG      0.136500
     37 HAK         6.4210    4.6020   -4.5660 ha        1 GQG      0.155500
     38 HAJ         3.5960    3.4230   -7.6290 ha        1 GQG      0.155500
     39 HAI         3.0070    5.6310   -7.2350 ha        1 GQG      0.133500
     40 HAH         7.2690    5.6340   -6.4540 ha        1 GQG      0.133500
     41 HAE         3.2020    7.8810   -8.2780 ha        1 GQG      0.143500
     42 HAW         5.4220    9.0150   -8.4110 ha        1 GQG      0.145000
     43 HAD         7.4530    7.8850   -7.4970 ha        1 GQG      0.143500
@<TRIPOS>BOND
     1    1    2 1   
     2    1   23 1   
     3    1   24 1   
     4    1   25 1   
     5    2    3 1   
     6    2    4 2   
     7    3   26 1   
     8    3   27 1   
     9    3   28 1   
    10    4    5 1   
    11    4    7 1   
    12    5    6 2   
    13    5   29 1   
    14    6    9 1   
    15    6   31 1   
    16    7    8 2   
    17    7   30 1   
    18    8    9 1   
    19    8   32 1   
    20    9   10 1   
    21   10   11 1   
    22   10   33 1   
    23   10   34 1   
    24   11   12 ar  
    25   11   14 ar  
    26   12   13 ar  
    27   12   35 1   
    28   13   16 ar  
    29   13   37 1   
    30   14   15 ar  
    31   14   36 1   
    32   15   16 ar  
    33   15   38 1   
    34   16   17 1   
    35   17   18 ar  
    36   17   20 ar  
    37   18   19 ar  
    38   18   39 1   
    39   19   22 ar  
    40   19   41 1   
    41   20   21 ar  
    42   20   40 1   
    43   21   22 ar  
    44   21   43 1   
    45   22   42 1   
@<TRIPOS>SUBSTRUCTURE
     1 GQG         1 TEMP              0 ****  ****    0 ROOT
