@<TRIPOS>MOLECULE
GQG
   43    45     1     0     0
SMALL
bcc


@<TRIPOS>ATOM
      1 CAA         5.4740    2.3740    1.1960 c3        1 GQG     -0.002400
      2 NBE         5.4940    1.3790    0.1500 nh        1 GQG     -0.227100
      3 CAB         6.6570    1.2800   -0.7000 c3        1 GQG     -0.002400
      4 CBA         4.4340    0.5490   -0.0320 cc        1 GQG      0.431900
      5 CAM         3.2600    0.6170    0.7940 cc        1 GQG     -0.329600
      6 CAP         2.2000   -0.2410    0.5790 cd        1 GQG      0.121500
      7 CAL         4.4160   -0.4510   -1.0640 cc        1 GQG     -0.329600
      8 CAO         3.3210   -1.2770   -1.2230 cd        1 GQG      0.121500
      9 NBG         2.2140   -1.1880   -0.4150 na        1 GQG     -0.433200
     10 CAS         1.0810   -2.1070   -0.5990 c3        1 GQG      0.245100
     11 CAX        -0.2530   -1.4700   -0.3850 ca        1 GQG     -0.174300
     12 CAG        -0.8570   -0.7380   -1.4130 ca        1 GQG     -0.103500
     13 CAK        -2.1240   -0.1910   -1.2300 ca        1 GQG     -0.122000
     14 CAF        -0.9300   -1.6520    0.8260 ca        1 GQG     -0.103500
     15 CAJ        -2.1980   -1.1080    1.0070 ca        1 GQG     -0.122000
     16 CAZ        -2.8100   -0.3700   -0.0190 cp        1 GQG      0.022000
     17 CAY        -4.1420    0.1980    0.1700 cp        1 GQG     -0.075000
     18 CAI        -4.5050    0.7600    1.4030 ca        1 GQG     -0.108500
     19 CAE        -5.7760    1.3020    1.5800 ca        1 GQG     -0.126500
     20 CAH        -5.0730    0.1850   -0.8790 ca        1 GQG     -0.108500
     21 CAD        -6.3450    0.7240   -0.6950 ca        1 GQG     -0.126500
     22 CAW        -6.6980    1.2850    0.5330 ca        1 GQG     -0.105000
     23 HAA1        6.4310    2.9600    1.1870 h1        1 GQG      0.071200
     24 HAA2        4.6170    3.0830    1.0380 h1        1 GQG      0.071200
     25 HAA3        5.3650    1.8780    2.1990 h1        1 GQG      0.071200
     26 HAB1        7.1140    0.2570   -0.6130 h1        1 GQG      0.071200
     27 HAB2        6.3700    1.4680   -1.7710 h1        1 GQG      0.071200
     28 HAB3        7.4230    2.0420   -0.3950 h1        1 GQG      0.071200
     29 HAM         3.1820    1.3530    1.6100 ha        1 GQG      0.184000
     30 HAL         5.2720   -0.5780   -1.7460 ha        1 GQG      0.184000
     31 HAP         1.2820   -0.1990    1.2040 h4        1 GQG      0.200500
     32 HAO         3.3020   -2.0520   -2.0170 h4        1 GQG      0.200500
     33 HAS1        1.1380   -2.5170   -1.6500 h1        1 GQG      0.089200
     34 HAS2        1.2260   -2.9610    0.1260 h1        1 GQG      0.089200
     35 HAG        -0.3360   -0.5980   -2.3720 ha        1 GQG      0.136500
     36 HAF        -0.4720   -2.2440    1.6340 ha        1 GQG      0.136500
     37 HAK        -2.5930    0.3870   -2.0430 ha        1 GQG      0.155500
     38 HAJ        -2.7330   -1.2700    1.9560 ha        1 GQG      0.155500
     39 HAI        -3.7810    0.7810    2.2320 ha        1 GQG      0.133500
     40 HAH        -4.8030   -0.2640   -1.8470 ha        1 GQG      0.133500
     41 HAE        -6.0520    1.7450    2.5490 ha        1 GQG      0.143500
     42 HAW        -7.7030    1.7110    0.6760 ha        1 GQG      0.145000
     43 HAD        -7.0720    0.7050   -1.5210 ha        1 GQG      0.143500
@<TRIPOS>BOND
     1    1    2 1   
     2    1   23 1   
     3    1   24 1   
     4    1   25 1   
     5    2    3 1   
     6    2    4 2   
     7    3   26 1   
     8    3   27 1   
     9    3   28 1   
    10    4    5 1   
    11    4    7 1   
    12    5    6 2   
    13    5   29 1   
    14    6    9 1   
    15    6   31 1   
    16    7    8 2   
    17    7   30 1   
    18    8    9 1   
    19    8   32 1   
    20    9   10 1   
    21   10   11 1   
    22   10   33 1   
    23   10   34 1   
    24   11   12 ar  
    25   11   14 ar  
    26   12   13 ar  
    27   12   35 1   
    28   13   16 ar  
    29   13   37 1   
    30   14   15 ar  
    31   14   36 1   
    32   15   16 ar  
    33   15   38 1   
    34   16   17 1   
    35   17   18 ar  
    36   17   20 ar  
    37   18   19 ar  
    38   18   39 1   
    39   19   22 ar  
    40   19   41 1   
    41   20   21 ar  
    42   20   40 1   
    43   21   22 ar  
    44   21   43 1   
    45   22   42 1   
@<TRIPOS>SUBSTRUCTURE
     1 GQG         1 TEMP              0 ****  ****    0 ROOT
