@<TRIPOS>MOLECULE
GQG
   44    46     1     0     0
SMALL
bcc


@<TRIPOS>ATOM
      1 CAA        -0.1500   -0.7720   -0.1880 c3        1 GQG      0.082100
      2 NBE         1.0720   -0.0030    0.2000 n4        1 GQG     -0.568800
      3 CAB         1.7320   -0.6150    1.3930 c3        1 GQG      0.082100
      4 CBA         2.0110    0.1140   -0.9290 ca        1 GQG      0.066600
      5 CAM         2.3400    1.3780   -1.4450 ca        1 GQG     -0.129000
      6 CAP         3.2390    1.4660   -2.5250 ca        1 GQG      0.000700
      7 CAL         2.5930   -1.0310   -1.5090 ca        1 GQG     -0.129000
      8 CAO         3.4810   -0.8750   -2.5820 ca        1 GQG      0.000700
      9 NBG         3.7980    0.3580   -3.0830 na        1 GQG      0.063900
     10 CAS         4.7650    0.4530   -4.2220 c3        1 GQG      0.063600
     11 CAX         4.8210    1.7910   -4.8510 ca        1 GQG     -0.240300
     12 CAG         5.7660    2.7350   -4.4190 ca        1 GQG     -0.088500
     13 CAK         5.8920    3.9500   -5.0780 ca        1 GQG     -0.130500
     14 CAF         4.0080    2.0850   -5.9570 ca        1 GQG     -0.088500
     15 CAJ         4.1360    3.3010   -6.6150 ca        1 GQG     -0.130500
     16 CAZ         5.0810    4.2530   -6.1890 cp        1 GQG      0.073000
     17 CAY         5.2250    5.5220   -6.8890 cp        1 GQG     -0.106000
     18 CAI         4.1010    6.1700   -7.4260 ca        1 GQG     -0.098500
     19 CAE         4.2430    7.3810   -8.0980 ca        1 GQG     -0.124000
     20 CAH         6.4920    6.1070   -7.0430 ca        1 GQG     -0.098500
     21 CAD         6.6290    7.3150   -7.7220 ca        1 GQG     -0.124000
     22 CAW         5.5060    7.9560   -8.2490 ca        1 GQG     -0.084000
     23 HAA1       -0.8610   -0.7760    0.6850 hx        1 GQG      0.121700
     24 HAA2       -0.6390   -0.2790   -1.0710 hx        1 GQG      0.121700
     25 HAA3        0.1310   -1.8280   -0.4460 hx        1 GQG      0.121700
     26 HAB1        0.9950   -0.6210    2.2450 hx        1 GQG      0.121700
     27 HAB2        2.0410   -1.6680    1.1590 hx        1 GQG      0.121700
     28 HAB3        2.6330   -0.0060    1.6790 hx        1 GQG      0.121700
     29 HAM         1.9250    2.3220   -1.0430 ha        1 GQG      0.212000
     30 HAL         2.3790   -2.0560   -1.1520 ha        1 GQG      0.212000
     31 HAP         3.5220    2.4590   -2.9590 h4        1 GQG      0.248500
     32 HAO         3.9580   -1.7610   -3.0620 h4        1 GQG      0.248500
     33 HAS1        5.7710    0.1670   -3.7900 h1        1 GQG      0.116200
     34 HAS2        4.4430   -0.3280   -4.9730 h1        1 GQG      0.116200
     35 HAG         6.4310    2.5060   -3.5710 ha        1 GQG      0.139500
     36 HAF         3.2850    1.3410   -6.3270 ha        1 GQG      0.139500
     37 HAK         6.6390    4.6860   -4.7350 ha        1 GQG      0.170000
     38 HAJ         3.5100    3.5150   -7.4980 ha        1 GQG      0.170000
     39 HAI         3.1010    5.7260   -7.3100 ha        1 GQG      0.133000
     40 HAH         7.3860    5.6030   -6.6440 ha        1 GQG      0.133000
     41 HAE         3.3570    7.8850   -8.5130 ha        1 GQG      0.153500
     42 HAW         5.6170    8.9120   -8.7860 ha        1 GQG      0.157000
     43 HAD         7.6270    7.7640   -7.8460 ha        1 GQG      0.153500
     44 HBE1        0.7730    0.9530    0.4610 hn        1 GQG      0.473800
@<TRIPOS>BOND
     1    1    2 1   
     2    1   23 1   
     3    1   24 1   
     4    1   25 1   
     5    2    3 1   
     6    2    4 1   
     7    2   44 1   
     8    3   26 1   
     9    3   27 1   
    10    3   28 1   
    11    4    5 ar  
    12    4    7 ar  
    13    5    6 ar  
    14    5   29 1   
    15    6    9 1   
    16    6   31 1   
    17    7    8 ar  
    18    7   30 1   
    19    8    9 2   
    20    8   32 1   
    21    9   10 1   
    22   10   11 1   
    23   10   33 1   
    24   10   34 1   
    25   11   12 ar  
    26   11   14 ar  
    27   12   13 ar  
    28   12   35 1   
    29   13   16 ar  
    30   13   37 1   
    31   14   15 ar  
    32   14   36 1   
    33   15   16 ar  
    34   15   38 1   
    35   16   17 1   
    36   17   18 ar  
    37   17   20 ar  
    38   18   19 ar  
    39   18   39 1   
    40   19   22 ar  
    41   19   41 1   
    42   20   21 ar  
    43   20   40 1   
    44   21   22 ar  
    45   21   43 1   
    46   22   42 1   
@<TRIPOS>SUBSTRUCTURE
     1 GQG         1 TEMP              0 ****  ****    0 ROOT
