@<TRIPOS>MOLECULE
GQG
   43    39     1     0     0
SMALL
bcc


@<TRIPOS>ATOM
      1 CAA        -1.9810    2.7620    4.6630 c3        1 GQG     -0.101000
      2 NBE        -0.5730    2.9210    4.3730 n3        1 GQG     -0.211000
      3 CAB         0.2770    3.5070    5.3350 c3        1 GQG     -0.101000
      4 CBA        -0.0780    2.6440    3.0420 c2        1 GQG      0.204000
      5 CAM         1.1990    2.3960    2.8510 c2        1 GQG     -0.242000
      6 CAP         1.6860    2.1460    1.5350 c1        1 GQG      0.034000
      7 CAL        -0.9790    2.6620    1.9240 c1        1 GQG     -0.245000
      8 CAO        -0.5190    2.4250    0.6820 c1        1 GQG      0.045000
      9 NBG         0.8290    2.1640    0.4800 n2        1 GQG     -0.111000
     10 CAS         1.3220    1.9620   -0.8330 c3        1 GQG      0.001000
     11 CAX         0.8850    0.5620   -1.3360 c2        1 GQG     -0.167000
     12 CAG         1.8280   -0.5120   -1.3320 c2        1 GQG     -0.097000
     13 CAK         1.4990   -1.7480   -1.9270 c1        1 GQG     -0.122000
     14 CAF        -0.3480    0.3920   -1.9230 c1        1 GQG     -0.111000
     15 CAJ        -0.6850   -0.8520   -2.5250 c1        1 GQG     -0.123000
     16 CAZ         0.2550   -1.9220   -2.5200 c1        1 GQG      0.022000
     17 CAY        -0.1480   -3.3270   -3.0970 c2        1 GQG     -0.076000
     18 CAI        -0.0480   -3.5600   -4.4080 c2        1 GQG     -0.107000
     19 CAE        -0.4180   -4.8050   -4.9310 c1        1 GQG     -0.126000
     20 CAH        -0.6100   -4.3000   -2.2580 c1        1 GQG     -0.110000
     21 CAD        -0.9740   -5.5200   -2.7610 c1        1 GQG     -0.116000
     22 CAW        -0.8720   -5.7640   -4.1180 c1        1 GQG     -0.116000
     23 HAA1       -2.3170    1.8100    4.3100 h1        1 GQG      0.110667
     24 HAA2       -2.1260    2.8200    5.6560 h1        1 GQG      0.110667
     25 HAA3       -2.4950    3.4860    4.2070 h1        1 GQG      0.110667
     26 HAB1       -0.1870    4.1410    5.8100 h1        1 GQG      0.110667
     27 HAB2        1.0920    3.9610    4.8560 h1        1 GQG      0.110667
     28 HAB3        0.6230    2.7620    5.9900 h1        1 GQG      0.110667
     29 HAM         1.8190    2.3830    3.6200 ha        1 GQG      0.184000
     30 HAL        -1.8550    2.8320    2.0540 ha        1 GQG      0.184000
     31 HAP         2.6220    1.9650    1.3930 ha        1 GQG      0.195000
     32 HAO        -1.1500    2.4380   -0.0970 ha        1 GQG      0.207000
     33 HAS1        2.3820    2.0140   -0.8250 h1        1 GQG      0.128500
     34 HAS2        0.9620    2.6610   -1.4320 h1        1 GQG      0.128500
     35 HAG         2.7490   -0.3830   -0.8900 ha        1 GQG      0.137000
     36 HAF        -1.0040    1.1380   -1.9250 ha        1 GQG      0.137000
     37 HAK         2.1520   -2.4860   -1.9230 ha        1 GQG      0.156000
     38 HAJ        -1.6370   -0.9810   -2.9760 ha        1 GQG      0.155000
     39 HAI         0.2900   -2.8530   -5.0070 ha        1 GQG      0.136000
     40 HAH        -0.6790   -4.1220   -1.2910 ha        1 GQG      0.132000
     41 HAE        -0.3480   -4.9640   -5.8510 ha        1 GQG      0.144000
     42 HAW        -1.1200   -6.6020   -4.4680 ha        1 GQG      0.144000
     43 HAD        -1.3230   -6.2520   -2.1270 ha        1 GQG      0.144000
@<TRIPOS>BOND
     1    1    2 1   
     2    1   23 1   
     3    1   24 1   
     4    1   25 1   
     5    2    3 1   
     6    2    4 1   
     7    3   26 1   
     8    3   27 1   
     9    3   28 1   
    10    4    5 1   
    11    4    7 1   
    12    5    6 1   
    13    5   29 1   
    14    6   31 1   
    15    7   30 1   
    16    8    9 1   
    17    8   32 1   
    18    9   10 1   
    19   10   11 1   
    20   10   33 1   
    21   10   34 1   
    22   11   12 1   
    23   11   14 1   
    24   12   13 1   
    25   12   35 1   
    26   13   37 1   
    27   14   36 1   
    28   15   16 1   
    29   15   38 1   
    30   16   17 1   
    31   17   18 1   
    32   17   20 1   
    33   18   19 1   
    34   18   39 1   
    35   19   41 1   
    36   20   40 1   
    37   21   22 1   
    38   21   43 1   
    39   22   42 1   
@<TRIPOS>SUBSTRUCTURE
     1 GQG         1 TEMP              0 ****  ****    0 ROOT
