@<TRIPOS>MOLECULE
GQL
   41    34     1     0     0
SMALL
bcc


@<TRIPOS>ATOM
      1 C1          0.2790   -0.0760    2.3010 c1        1 GQL     -0.077000
      2 C2          1.6260   -0.0060    2.3890 c1        1 GQL      0.019000
      3 C3          2.8100    0.2370    1.7100 c1        1 GQL      0.019000
      4 C4          2.2360    0.1230    3.6350 c1        1 GQL     -0.167500
      5 C5          1.4320    0.1820    4.8300 c1        1 GQL     -0.076000
      6 C7         -0.5490   -0.0150    3.5370 c1        1 GQL      0.002000
      7 C9         -1.9780   -0.5080    1.8180 c1        1 GQL     -0.046000
      8 C10        -0.7670   -0.4210    1.1490 c1        1 GQL     -0.171000
      9 C11        -0.6050   -0.1810   -0.1660 c1        1 GQL      0.184000
     10 C13        -1.8170    0.0220   -1.0550 c1        1 GQL     -0.088000
     11 C14        -2.4290    1.2650   -1.1170 c2        1 GQL     -0.134000
     12 C15        -3.4760    1.4790   -2.0010 c1        1 GQL     -0.094000
     13 C19        -3.6900   -1.6420   -4.9260 c3        1 GQL     -0.078000
     14 O18        -3.7920   -1.8560   -3.5360 os        1 GQL     -0.206000
     15 C17        -3.3010   -0.7930   -2.7590 c2        1 GQL      0.084000
     16 C20        -2.2530   -1.0070   -1.8750 c2        1 GQL     -0.144000
     17 C16        -3.9120    0.4500   -2.8210 c1        1 GQL     -0.181000
     18 O12         0.6850   -0.1570   -0.7220 oh        1 GQL     -0.229000
     19 N8         -1.8910   -0.2990    3.0750 n1        1 GQL     -0.087000
     20 N6          0.0490    0.1100    4.7440 n2        1 GQL     -0.088000
     21 C27         3.1890    1.5410    1.4320 c1        1 GQL     -0.167500
     22 C25         4.2410    1.7870    0.5640 c1        1 GQL      0.111500
     23 F26         4.6240    3.0470    0.3160 f         1 GQL     -0.102000
     24 C24         4.9140    0.7290   -0.0260 c1        1 GQL     -0.183000
     25 C22         4.5350   -0.5750    0.2520 c1        1 GQL      0.111500
     26 F23         5.2020   -1.5980   -0.2970 f         1 GQL     -0.102000
     27 C21         3.4830   -0.8210    1.1200 c1        1 GQL     -0.183000
     28 H4          3.2080    0.1740    3.6990 ha        1 GQL      0.154000
     29 H5          1.8610    0.2720    5.7010 ha        1 GQL      0.164000
     30 H9         -2.8110   -0.3130    1.3480 ha        1 GQL      0.177000
     31 H14        -2.1230    1.9890   -0.5400 ha        1 GQL      0.152000
     32 H15        -3.9070    2.3540   -2.0450 ha        1 GQL      0.144000
     33 H19        -4.5360   -1.2770   -5.2630 h1        1 GQL      0.088333
     34 H19A       -2.9650   -1.0070   -5.1060 h1        1 GQL      0.088333
     35 H19B       -3.4980   -2.4940   -5.3750 h1        1 GQL      0.088333
     36 H20        -1.8080   -1.8750   -1.8480 ha        1 GQL      0.159000
     37 H16        -4.6500    0.6000   -3.4440 ha        1 GQL      0.146000
     38 HO12        0.8090   -0.8870   -1.2130 ho        1 GQL      0.234000
     39 H27         2.7040    2.2880    1.8370 ha        1 GQL      0.154000
     40 H24         5.6560    0.9020   -0.6380 ha        1 GQL      0.161500
     41 H21         3.2160   -1.7390    1.3160 ha        1 GQL      0.161500
@<TRIPOS>BOND
     1    1    6 1   
     2    1    8 1   
     3    2    4 1   
     4    3   21 1   
     5    4   28 1   
     6    5   20 1   
     7    5   29 1   
     8    6   20 1   
     9    7   19 1   
    10    7   30 1   
    11    8    9 1   
    12    9   18 1   
    13   10   11 1   
    14   10   16 1   
    15   11   12 1   
    16   11   31 1   
    17   12   32 1   
    18   13   14 1   
    19   13   33 1   
    20   13   34 1   
    21   13   35 1   
    22   14   15 1   
    23   15   16 1   
    24   15   17 1   
    25   16   36 1   
    26   17   37 1   
    27   18   38 1   
    28   21   39 1   
    29   22   23 1   
    30   22   24 1   
    31   24   40 1   
    32   25   26 1   
    33   25   27 1   
    34   27   41 1   
@<TRIPOS>SUBSTRUCTURE
     1 GQL         1 TEMP              0 ****  ****    0 ROOT
