@<TRIPOS>MOLECULE
GQL
   41    41     1     0     0
SMALL
bcc


@<TRIPOS>ATOM
      1 C1         -0.1930    0.0730   -0.1390 c2        1 GQL     -0.124000
      2 C2          1.1680    0.0170   -0.2090 c2        1 GQL      0.043000
      3 C3          1.9630    0.4660   -1.3590 c2        1 GQL      0.021000
      4 C4          1.9320   -0.5360    0.9430 c3        1 GQL     -0.272000
      5 C5          1.1500   -1.0200    2.1120 c1        1 GQL      0.003000
      6 C7         -0.8380   -0.4060    1.0830 c2        1 GQL      0.093000
      7 C9         -1.5430    1.8940   -1.0590 c1        1 GQL     -0.091000
      8 C10        -1.0750    0.5600   -1.2000 c2        1 GQL     -0.084000
      9 C11        -1.4820   -0.2150   -2.2440 c2        1 GQL      0.156000
     10 C13        -2.3850    0.2340   -3.3260 c2        1 GQL     -0.035000
     11 C14        -1.8020    1.2420   -4.2640 c3        1 GQL     -0.034000
     12 C15        -2.6950    1.5590   -5.4020 c2        1 GQL     -0.492000
     13 C19        -6.4660   -2.2140   -4.2250 c3        1 GQL     -0.080000
     14 C17        -4.8230   -0.6900   -3.5040 c2        1 GQL      0.056000
     15 C20        -3.5920   -0.2520   -3.4290 c1        1 GQL     -0.219000
     16 C16        -3.0160    2.7480   -5.8570 c1        1 GQL      0.208000
     17 O12        -1.0280   -1.5080   -2.3040 oh        1 GQL     -0.235000
     18 N8         -1.9240    2.9840   -0.9120 n1        1 GQL     -0.039000
     19 N6         -0.2050   -0.9140    2.1180 n2        1 GQL     -0.225000
     20 C27         1.8090    1.8440   -1.7790 c2        1 GQL     -0.192000
     21 C25         2.6020    2.4200   -2.7120 c2        1 GQL      0.027000
     22 F26         2.4500    3.7030   -3.0910 f         1 GQL     -0.104000
     23 C24         3.5770   -1.1800   -2.5180 c1        1 GQL     -0.193000
     24 C22         4.3770   -2.0640   -3.0860 c2        1 GQL      0.103000
     25 F23         5.1600   -1.7870   -4.1450 f         1 GQL     -0.095000
     26 C21         2.8020   -0.3730   -1.9490 c1        1 GQL     -0.047000
     27 H4          2.5730   -1.3980    0.5940 hc        1 GQL      0.169500
     28 H5          2.6490    0.2440    1.3350 hc        1 GQL      0.169500
     29 H9         -1.9440   -0.3400    1.1330 h4        1 GQL      0.161000
     30 H14        -1.5600    2.1730   -3.6800 hc        1 GQL      0.110000
     31 H15        -0.8320    0.8360   -4.6680 hc        1 GQL      0.110000
     32 H19        -7.1100   -1.4070   -4.6520 h1        1 GQL      0.089333
     33 H19A       -6.7830   -2.4570   -3.1830 h1        1 GQL      0.089333
     34 H19B       -6.4910   -3.1270   -4.8720 h1        1 GQL      0.089333
     35 H20        -5.6720   -0.1990   -2.9990 h4        1 GQL      0.161000
     36 H16        -3.1250    0.6730   -5.9170 ha        1 GQL      0.197000
     37 HO12       -1.4740   -1.9520   -3.0430 ho        1 GQL      0.239000
     38 H27         1.0020    2.4160   -1.2890 ha        1 GQL      0.159000
     39 H24         3.4260    1.8980   -3.2290 h4        1 GQL      0.153000
     40 H21         4.4620   -3.1070   -2.7260 h4        1 GQL      0.165000
     41 O18        -5.0930   -1.8240   -4.2510 os        1 GQL     -0.214000
@<TRIPOS>BOND
     1    1    2 1   
     2    1    6 1   
     3    1    8 1   
     4    2    3 1   
     5    2    4 1   
     6    3   20 1   
     7    3   26 1   
     8    4    5 1   
     9    4   27 1   
    10    4   28 1   
    11    5   19 1   
    12    6   19 1   
    13    6   29 1   
    14    7    8 1   
    15    7   18 1   
    16    8    9 1   
    17    9   10 1   
    18    9   17 1   
    19   10   11 1   
    20   10   15 1   
    21   11   12 1   
    22   11   30 1   
    23   11   31 1   
    24   12   16 1   
    25   12   36 1   
    26   13   32 1   
    27   13   33 1   
    28   13   34 1   
    29   13   41 1   
    30   14   15 1   
    31   14   35 1   
    32   14   41 1   
    33   17   37 1   
    34   20   21 1   
    35   20   38 1   
    36   21   22 1   
    37   21   39 1   
    38   23   24 1   
    39   23   26 1   
    40   24   25 1   
    41   24   40 1   
@<TRIPOS>SUBSTRUCTURE
     1 GQL         1 TEMP              0 ****  ****    0 ROOT
