@<TRIPOS>MOLECULE
GQL
   41    44     1     0     0
SMALL
bcc


@<TRIPOS>ATOM
      1 C1         -0.9320    1.7200    0.2920 ca        1 GQL     -0.155100
      2 C2         -2.2380    1.2710    0.1580 cp        1 GQL      0.014000
      3 C3         -2.6380   -0.1330   -0.0020 cp        1 GQL      0.023000
      4 C4         -3.2660    2.2380    0.1700 ca        1 GQL     -0.240300
      5 C5         -2.9510    3.5940    0.3070 ca        1 GQL      0.390200
      6 C7         -0.7130    3.1680    0.4240 ca        1 GQL      0.550300
      7 C9          1.3150    2.2950    0.4860 cc        1 GQL      0.458500
      8 C10         0.4020    1.1210    0.3340 cc        1 GQL     -0.243800
      9 C11         0.8460   -0.1590    0.2930 cf        1 GQL      0.237900
     10 C13         2.2680   -0.5350    0.3260 ca        1 GQL     -0.099800
     11 C14         2.7050   -1.4770    1.2710 ca        1 GQL     -0.152000
     12 C15         4.0450   -1.8500    1.3100 ca        1 GQL     -0.090000
     13 C19         6.7050   -0.1200   -1.4470 c3        1 GQL      0.110700
     14 C17         4.5200   -0.3720   -0.5340 ca        1 GQL      0.127100
     15 C20         3.1680    0.0210   -0.5820 ca        1 GQL     -0.125000
     16 C16         4.9630   -1.3050    0.4100 ca        1 GQL     -0.184000
     17 O12        -0.0610   -1.1830    0.2400 oh        1 GQL     -0.475100
     18 N8          0.7010    3.4520    0.5410 nd        1 GQL     -0.592700
     19 N6         -1.6980    4.0860    0.4320 nb        1 GQL     -0.614000
     20 C27        -3.0080   -0.8800    1.1210 ca        1 GQL     -0.159500
     21 C25        -3.4530   -2.2040    0.9560 ca        1 GQL      0.145900
     22 F26        -3.8080   -2.9310    2.0420 f         1 GQL     -0.136900
     23 C24        -3.5380   -2.7840   -0.3210 ca        1 GQL     -0.208000
     24 C22        -3.1610   -2.0150   -1.4340 ca        1 GQL      0.145900
     25 F23        -3.2340   -2.5590   -2.6730 f         1 GQL     -0.136900
     26 C21        -2.7140   -0.6910   -1.2810 ca        1 GQL     -0.159500
     27 H4         -4.3140    1.9230    0.0700 ha        1 GQL      0.149000
     28 H5         -3.7500    4.3590    0.3180 h4        1 GQL      0.027100
     29 H9          2.4050    2.1990    0.5570 h4        1 GQL      0.049800
     30 H14         1.9900   -1.9040    1.9890 ha        1 GQL      0.144000
     31 H15         4.3880   -2.5810    2.0580 ha        1 GQL      0.143000
     32 H19         7.1620    0.1580   -0.4670 h1        1 GQL      0.049367
     33 H19A        6.8370   -1.2110   -1.6490 h1        1 GQL      0.049367
     34 H19B        7.1440    0.4910   -2.2760 h1        1 GQL      0.049367
     35 H20         2.8420    0.7530   -1.3370 ha        1 GQL      0.167000
     36 H16         6.0170   -1.6120    0.4530 ha        1 GQL      0.146000
     37 HO12        0.4220   -2.0210    0.1610 ho        1 GQL      0.434000
     38 H27        -2.9500   -0.4450    2.1290 ha        1 GQL      0.159000
     39 H24        -3.8930   -3.8160   -0.4450 ha        1 GQL      0.163000
     40 H21        -2.4250   -0.1060   -2.1670 ha        1 GQL      0.159000
     41 O18         5.3260    0.2320   -1.4770 os        1 GQL     -0.320900
@<TRIPOS>BOND
     1    1    2 ar  
     2    1    6 ar  
     3    1    8 1   
     4    2    3 1   
     5    2    4 ar  
     6    3   20 ar  
     7    3   26 ar  
     8    4    5 ar  
     9    4   27 1   
    10    5   19 ar  
    11    5   28 1   
    12    6   18 1   
    13    6   19 ar  
    14    7    8 1   
    15    7   18 2   
    16    7   29 1   
    17    8    9 2   
    18    9   10 1   
    19    9   17 1   
    20   10   11 ar  
    21   10   15 ar  
    22   11   12 ar  
    23   11   30 1   
    24   12   16 ar  
    25   12   31 1   
    26   13   32 1   
    27   13   33 1   
    28   13   34 1   
    29   13   41 1   
    30   14   15 ar  
    31   14   16 ar  
    32   14   41 1   
    33   15   35 1   
    34   16   36 1   
    35   17   37 1   
    36   20   21 ar  
    37   20   38 1   
    38   21   22 1   
    39   21   23 ar  
    40   23   24 ar  
    41   23   39 1   
    42   24   25 1   
    43   24   26 ar  
    44   26   40 1   
@<TRIPOS>SUBSTRUCTURE
     1 GQL         1 TEMP              0 ****  ****    0 ROOT
