@<TRIPOS>MOLECULE
GQL
   41    41     1     0     0
SMALL
bcc


@<TRIPOS>ATOM
      1 C1         -0.2020    0.0860   -0.1380 c2        1 GQL     -0.124000
      2 C2          1.1590    0.0230   -0.2020 c2        1 GQL      0.043000
      3 C3          1.9610    0.4590   -1.3510 c2        1 GQL      0.021000
      4 C4          1.9160   -0.5260    0.9580 c3        1 GQL     -0.272000
      5 C5          1.1270   -0.9980    2.1270 c1        1 GQL      0.003000
      6 C7         -0.8540   -0.3820    1.0860 c2        1 GQL      0.093000
      7 C9         -1.5390    1.9070   -1.0750 c1        1 GQL     -0.091000
      8 C10        -1.0770    0.5700   -1.2060 c2        1 GQL     -0.084000
      9 C11        -1.4830   -0.2100   -2.2460 c2        1 GQL      0.156000
     10 C13        -2.3800    0.2360   -3.3340 c2        1 GQL     -0.035000
     11 C14        -1.7890    1.2360   -4.2760 c3        1 GQL     -0.034000
     12 C15        -2.6760    1.5490   -5.4200 c2        1 GQL     -0.492000
     13 C19        -6.4660   -2.2030   -4.2360 c3        1 GQL     -0.080000
     14 C17        -4.8210   -0.6810   -3.5180 c2        1 GQL      0.056000
     15 C20        -3.5880   -0.2460   -3.4390 c1        1 GQL     -0.219000
     16 C16        -2.9900    2.7370   -5.8830 c1        1 GQL      0.208000
     17 O12        -1.0340   -1.5060   -2.2950 oh        1 GQL     -0.235000
     18 N8         -1.9160    2.9990   -0.9370 n1        1 GQL     -0.039000
     19 N6         -0.2280   -0.8850    2.1270 n2        1 GQL     -0.225000
     20 C27         1.8150    1.8350   -1.7820 c2        1 GQL     -0.192000
     21 C25         2.6140    2.4010   -2.7150 c2        1 GQL      0.027000
     22 F26         2.4700    3.6810   -3.1050 f         1 GQL     -0.104000
     23 C24         3.5720   -1.2020   -2.4910 c1        1 GQL     -0.193000
     24 C22         4.3700   -2.0940   -3.0490 c2        1 GQL      0.103000
     25 F23         5.1590   -1.8290   -4.1070 f         1 GQL     -0.095000
     26 C21         2.7980   -0.3880   -1.9310 c1        1 GQL     -0.047000
     27 H4          2.5540   -1.3940    0.6170 hc        1 GQL      0.169500
     28 H5          2.6350    0.2530    1.3470 hc        1 GQL      0.169500
     29 H9         -1.9600   -0.3090    1.1300 h4        1 GQL      0.161000
     30 H14        -1.5440    2.1690   -3.6970 hc        1 GQL      0.110000
     31 H15        -0.8190    0.8230   -4.6740 hc        1 GQL      0.110000
     32 H19        -7.1050   -1.3960   -4.6710 h1        1 GQL      0.089333
     33 H19A       -6.7880   -2.4390   -3.1940 h1        1 GQL      0.089333
     34 H19B       -6.4920   -3.1190   -4.8780 h1        1 GQL      0.089333
     35 H20        -5.6700   -0.1830   -3.0190 h4        1 GQL      0.161000
     36 H16        -3.1070    0.6620   -5.9310 ha        1 GQL      0.197000
     37 HO12       -1.4800   -1.9530   -3.0330 ho        1 GQL      0.239000
     38 H27         1.0090    2.4140   -1.3000 ha        1 GQL      0.159000
     39 H24         3.4390    1.8710   -3.2260 h4        1 GQL      0.153000
     40 H21         4.4490   -3.1350   -2.6810 h4        1 GQL      0.165000
     41 O18        -5.0910   -1.8180   -4.2590 os        1 GQL     -0.214000
@<TRIPOS>BOND
     1    1    2 1   
     2    1    6 1   
     3    1    8 1   
     4    2    3 1   
     5    2    4 1   
     6    3   20 1   
     7    3   26 1   
     8    4    5 1   
     9    4   27 1   
    10    4   28 1   
    11    5   19 1   
    12    6   19 1   
    13    6   29 1   
    14    7    8 1   
    15    7   18 1   
    16    8    9 1   
    17    9   10 1   
    18    9   17 1   
    19   10   11 1   
    20   10   15 1   
    21   11   12 1   
    22   11   30 1   
    23   11   31 1   
    24   12   16 1   
    25   12   36 1   
    26   13   32 1   
    27   13   33 1   
    28   13   34 1   
    29   13   41 1   
    30   14   15 1   
    31   14   35 1   
    32   14   41 1   
    33   17   37 1   
    34   20   21 1   
    35   20   38 1   
    36   21   22 1   
    37   21   39 1   
    38   23   24 1   
    39   23   26 1   
    40   24   25 1   
    41   24   40 1   
@<TRIPOS>SUBSTRUCTURE
     1 GQL         1 TEMP              0 ****  ****    0 ROOT
