@<TRIPOS>MOLECULE
GR0
   58    53     1     0     0
SMALL
bcc


@<TRIPOS>ATOM
      1 C1         -0.2400   -2.6530   -7.3430 c3        1 GR0      0.036000
      2 O1         -1.3640   -2.5950   -8.1790 os        1 GR0     -0.728000
      3 C2         -0.6800   -2.5280   -5.8920 c2        1 GR0     -0.058000
      4 C3          0.2260   -2.6890   -4.8910 c1        1 GR0     -0.269000
      5 C4          1.6790   -2.9950   -5.2210 c2        1 GR0     -0.166333
      6 C5         -0.2180   -2.5620   -3.4260 c3        1 GR0     -0.092000
      7 C6          0.2280   -1.2040   -2.8720 c3        1 GR0     -0.133000
      8 C7         -0.9980   -0.3800   -2.4980 c2        1 GR0     -0.113000
      9 C8         -1.0420    0.2840   -1.2880 c1        1 GR0     -0.176000
     10 C9          0.1370    0.1950   -0.3250 c2        1 GR0     -0.107000
     11 PA         -1.1660   -2.8580   -9.7400 p5        1 GR0      1.544500
     12 C10        -2.2480    1.0940   -0.9220 c3        1 GR0     -0.168000
     13 C11         0.1040    1.4010    0.6460 c3        1 GR0     -0.138000
     14 C12         0.5720    0.9500    2.0440 c2        1 GR0     -0.141000
     15 C13         1.0240    1.8790    2.9520 c1        1 GR0     -0.147000
     16 C14         1.0620    3.3470    2.5770 c2        1 GR0     -0.166333
     17 C15         1.4890    1.4310    4.3380 c3        1 GR0     -0.114000
     18 C16         0.4760    1.8880    5.3890 c3        1 GR0     -0.131000
     19 C17         0.7480    1.1580    6.7110 c2        1 GR0     -0.157000
     20 C18         0.0730    1.5130    7.8350 c1        1 GR0     -0.134000
     21 C19        -0.9450    2.6270    7.7850 c2        1 GR0     -0.166333
     22 O1A        -2.5050   -2.7720  -10.4400 o         1 GR0     -0.933500
     23 C20         0.3430    0.7850    9.1480 c3        1 GR0     -0.173000
     24 O2A        -0.2330   -1.8180  -10.3110 o         1 GR0     -0.933500
     25 O3A        -0.5740   -4.2370   -9.9500 o         1 GR0     -0.933500
     26 H1          0.2190   -3.5070   -7.4720 h1        1 GR0      0.082500
     27 H1A         0.3620   -1.9280   -7.5610 h1        1 GR0      0.082500
     28 H2         -1.6160   -2.3300   -5.6800 ha        1 GR0      0.110000
     29 H4          1.7250   -3.8000   -5.7850 ha        1 GR0      0.071889
     30 H4A         2.1770   -3.1490   -4.3930 ha        1 GR0      0.071889
     31 H4B         2.0740   -2.2320   -5.7050 ha        1 GR0      0.071889
     32 H5          0.1900   -3.2810   -2.8970 hc        1 GR0      0.058500
     33 H5A        -1.1920   -2.6320   -3.3730 hc        1 GR0      0.058500
     34 H6          0.7810   -1.3410   -2.0800 hc        1 GR0      0.069000
     35 H6A         0.7450   -0.7290   -3.5510 hc        1 GR0      0.069000
     36 H7         -1.7560   -0.3220   -3.1160 ha        1 GR0      0.168000
     37 H9          0.9680    0.2070   -0.8280 ha        1 GR0      0.070000
     38 H9A         0.0790   -0.6330    0.1840 ha        1 GR0      0.070000
     39 H10        -2.0140    2.0460   -0.9210 hc        1 GR0      0.073000
     40 H10A       -2.9560    0.9350   -1.5720 hc        1 GR0      0.073000
     41 H10B       -2.5590    0.8330   -0.0300 hc        1 GR0      0.073000
     42 H11         0.7030    2.1080    0.3120 hc        1 GR0      0.099000
     43 H11A       -0.8070    1.7470    0.7040 hc        1 GR0      0.099000
     44 H12         0.5460    0.0050    2.2850 ha        1 GR0      0.115000
     45 H14         1.4250    3.8690    3.3300 ha        1 GR0      0.071889
     46 H14A        0.1550    3.6560    2.3720 ha        1 GR0      0.071889
     47 H14B        1.6320    3.4670    1.7930 ha        1 GR0      0.071889
     48 H15         2.3650    1.8290    4.5330 hc        1 GR0      0.078500
     49 H15A        1.5620    0.4560    4.3570 hc        1 GR0      0.078500
     50 H16        -0.4260    1.6820    5.0830 hc        1 GR0      0.092000
     51 H16A        0.5610    2.8550    5.5260 hc        1 GR0      0.092000
     52 H17         1.4050    0.4390    6.7440 ha        1 GR0      0.119000
     53 H19        -0.5010    3.4630    7.5530 ha        1 GR0      0.071889
     54 H19A       -1.6240    2.4200    7.1100 ha        1 GR0      0.071889
     55 H19B       -1.3750    2.7180    8.6630 ha        1 GR0      0.071889
     56 H20         1.2930    0.5360    9.1960 hc        1 GR0      0.073667
     57 H20A       -0.2110   -0.0260    9.1930 hc        1 GR0      0.073667
     58 H20B        0.1210    1.3730    9.8990 hc        1 GR0      0.073667
@<TRIPOS>BOND
     1    1    2 1   
     2    1    3 1   
     3    1   26 1   
     4    1   27 1   
     5    2   11 1   
     6    3    4 1   
     7    3   28 1   
     8    4    6 1   
     9    5   29 1   
    10    5   30 1   
    11    5   31 1   
    12    6    7 1   
    13    6   32 1   
    14    6   33 1   
    15    7    8 1   
    16    7   34 1   
    17    7   35 1   
    18    8    9 1   
    19    8   36 1   
    20    9   12 1   
    21   10   13 1   
    22   10   37 1   
    23   10   38 1   
    24   11   22 1   
    25   11   24 1   
    26   11   25 1   
    27   12   39 1   
    28   12   40 1   
    29   12   41 1   
    30   13   14 1   
    31   13   42 1   
    32   13   43 1   
    33   14   15 1   
    34   14   44 1   
    35   15   17 1   
    36   16   45 1   
    37   16   46 1   
    38   16   47 1   
    39   17   18 1   
    40   17   48 1   
    41   17   49 1   
    42   18   19 1   
    43   18   50 1   
    44   18   51 1   
    45   19   20 1   
    46   19   52 1   
    47   20   23 1   
    48   21   53 1   
    49   21   54 1   
    50   21   55 1   
    51   23   56 1   
    52   23   57 1   
    53   23   58 1   
@<TRIPOS>SUBSTRUCTURE
     1 GR0         1 TEMP              0 ****  ****    0 ROOT
