@<TRIPOS>MOLECULE
GR0
   58    57     1     0     0
SMALL
bcc


@<TRIPOS>ATOM
      1 C1         -2.1600   -0.4140   -0.8870 c3        1 GR0      0.225600
      2 O1         -1.6720   -1.5640   -0.3200 os        1 GR0     -0.564200
      3 C2         -1.5180    0.8130   -0.3110 c2        1 GR0     -0.082200
      4 C3         -1.9190    2.0790   -0.5230 c2        1 GR0     -0.264400
      5 C4         -3.0750    2.4360   -1.3760 c3        1 GR0     -0.020900
      6 C5         -1.2070    3.2310    0.1000 c3        1 GR0     -0.004200
      7 C6         -0.0440    3.7000   -0.7630 c3        1 GR0     -0.059200
      8 C7          0.6890    4.8300   -0.1430 c2        1 GR0     -0.155200
      9 C8          1.7110    4.7180    0.7200 c2        1 GR0     -0.140400
     10 C9          2.2320    3.4120    1.2100 c3        1 GR0     -0.045200
     11 PA         -0.7500   -2.5660   -1.3920 p5        1 GR0      1.328900
     12 C10         2.3920    5.9170    1.2700 c3        1 GR0     -0.047900
     13 C11         3.4710    2.9560    0.4510 c3        1 GR0     -0.010200
     14 C12         3.8160    1.5620    0.8120 c2        1 GR0     -0.289200
     15 C13         3.4300    0.4530    0.1510 c2        1 GR0     -0.019400
     16 C14         2.6220    0.4530   -1.0840 c3        1 GR0     -0.122900
     17 C15         3.7930   -0.8820    0.7230 c3        1 GR0     -0.033200
     18 C16         3.5970   -2.0500   -0.2220 c3        1 GR0     -0.090200
     19 C17         3.9110   -3.3350    0.4440 c2        1 GR0     -0.201200
     20 C18         3.3190   -4.4980    0.1230 c2        1 GR0     -0.094400
     21 C19         2.2980   -4.6190   -0.9400 c3        1 GR0     -0.076900
     22 O1A        -1.5310   -2.4320   -2.6700 o         1 GR0     -0.928167
     23 C20         3.6450   -5.7510    0.8520 c3        1 GR0     -0.076900
     24 O2A         0.5900   -1.8650   -1.3720 o         1 GR0     -0.928167
     25 O3A        -0.7440   -3.9020   -0.7070 o         1 GR0     -0.928167
     26 H1         -2.0050   -0.4200   -2.0100 h1        1 GR0      0.019700
     27 H1A        -3.2740   -0.3390   -0.6870 h1        1 GR0      0.019700
     28 H2         -0.6350    0.6040    0.3190 ha        1 GR0      0.133000
     29 H4         -3.9530    2.7290   -0.7450 hc        1 GR0      0.015033
     30 H4A        -2.8230    3.3040   -2.0370 hc        1 GR0      0.015033
     31 H4B        -3.3780    1.5750   -2.0230 hc        1 GR0      0.015033
     32 H5         -1.9190    4.0850    0.2560 hc        1 GR0      0.018200
     33 H5A        -0.8130    2.9380    1.1100 hc        1 GR0      0.018200
     34 H6          0.6450    2.8290   -0.9440 hc        1 GR0      0.057200
     35 H6A        -0.4390    4.0190   -1.7650 hc        1 GR0      0.057200
     36 H7          0.3360    5.8320   -0.4420 ha        1 GR0      0.090000
     37 H9          2.4820    3.4980    2.3020 hc        1 GR0      0.052200
     38 H9A         1.4400    2.6190    1.1130 hc        1 GR0      0.052200
     39 H10         2.2140    5.9880    2.3730 hc        1 GR0      0.023700
     40 H10A        3.4950    5.8400    1.1010 hc        1 GR0      0.023700
     41 H10B        2.0250    6.8590    0.7940 hc        1 GR0      0.023700
     42 H11         3.2870    3.0560   -0.6520 hc        1 GR0      0.024700
     43 H11A        4.3300    3.6360    0.7010 hc        1 GR0      0.024700
     44 H12         4.4070    1.4670    1.7370 ha        1 GR0      0.089000
     45 H14         2.2970    1.4780   -1.3830 hc        1 GR0      0.081367
     46 H14A        3.2100    0.0050   -1.9240 hc        1 GR0      0.081367
     47 H14B        1.6960   -0.1990   -0.9640 hc        1 GR0      0.081367
     48 H15         4.8570   -0.8550    1.0830 hc        1 GR0      0.025700
     49 H15A        3.1430   -1.0480    1.6270 hc        1 GR0      0.025700
     50 H16         2.5180   -2.0640   -0.6000 hc        1 GR0      0.104200
     51 H16A        4.2590   -1.9260   -1.1210 hc        1 GR0      0.104200
     52 H17         4.6580   -3.2930    1.2530 ha        1 GR0      0.071000
     53 H19         2.6620   -4.1480   -1.8870 hc        1 GR0      0.046700
     54 H19A        2.0440   -5.6870   -1.1390 hc        1 GR0      0.046700
     55 H19B        1.3290   -4.0740   -0.6660 hc        1 GR0      0.046700
     56 H20         4.3980   -5.5840    1.6610 hc        1 GR0      0.046700
     57 H20A        2.7140   -6.1670    1.3140 hc        1 GR0      0.046700
     58 H20B        4.0530   -6.5150    0.1450 hc        1 GR0      0.046700
@<TRIPOS>BOND
     1    1    2 1   
     2    1    3 1   
     3    1   26 1   
     4    1   27 1   
     5    2   11 1   
     6    3    4 2   
     7    3   28 1   
     8    4    5 1   
     9    4    6 1   
    10    5   29 1   
    11    5   30 1   
    12    5   31 1   
    13    6    7 1   
    14    6   32 1   
    15    6   33 1   
    16    7    8 1   
    17    7   34 1   
    18    7   35 1   
    19    8    9 2   
    20    8   36 1   
    21    9   10 1   
    22    9   12 1   
    23   10   13 1   
    24   10   37 1   
    25   10   38 1   
    26   11   22 1   
    27   11   24 1   
    28   11   25 1   
    29   12   39 1   
    30   12   40 1   
    31   12   41 1   
    32   13   14 1   
    33   13   42 1   
    34   13   43 1   
    35   14   15 2   
    36   14   44 1   
    37   15   16 1   
    38   15   17 1   
    39   16   45 1   
    40   16   46 1   
    41   16   47 1   
    42   17   18 1   
    43   17   48 1   
    44   17   49 1   
    45   18   19 1   
    46   18   50 1   
    47   18   51 1   
    48   19   20 2   
    49   19   52 1   
    50   20   21 1   
    51   20   23 1   
    52   21   53 1   
    53   21   54 1   
    54   21   55 1   
    55   23   56 1   
    56   23   57 1   
    57   23   58 1   
@<TRIPOS>SUBSTRUCTURE
     1 GR0         1 TEMP              0 ****  ****    0 ROOT
