@<TRIPOS>MOLECULE
GR0
   58    57     1     0     0
SMALL
bcc


@<TRIPOS>ATOM
      1 C1         -0.9910    0.8750    0.0700 c3        1 GR0      0.223600
      2 O1         -0.3820    2.0900   -0.1200 os        1 GR0     -0.564200
      3 C2         -1.2020    0.5760    1.5240 c2        1 GR0     -0.083200
      4 C3         -1.6500   -0.5850    2.0340 c2        1 GR0     -0.265400
      5 C4         -1.9830   -1.7670    1.2080 c3        1 GR0     -0.019900
      6 C5         -1.8580   -0.7520    3.5020 c3        1 GR0     -0.004200
      7 C6         -2.9390    0.1870    4.0150 c3        1 GR0     -0.065200
      8 C7         -3.1990    0.0050    5.4600 c2        1 GR0     -0.148200
      9 C8         -3.2530    0.9830    6.3780 c2        1 GR0     -0.149400
     10 C9         -2.9920    2.4180    6.0710 c3        1 GR0     -0.038200
     11 PA         -1.3870    3.3060   -0.8380 p5        1 GR0      1.329900
     12 C10        -3.5670    0.6880    7.7990 c3        1 GR0     -0.044900
     13 C11        -4.1520    3.0800    5.3420 c3        1 GR0     -0.018200
     14 C12        -3.7660    4.4290    4.8720 c2        1 GR0     -0.272200
     15 C13        -3.8910    4.9080    3.6210 c2        1 GR0     -0.024400
     16 C14        -4.4690    4.1700    2.4800 c3        1 GR0     -0.120900
     17 C15        -3.3970    6.2890    3.3170 c3        1 GR0     -0.029200
     18 C16        -2.8370    6.4180    1.9150 c3        1 GR0     -0.093200
     19 C17        -1.9660    7.6020    1.7550 c2        1 GR0     -0.189200
     20 C18        -1.3370    7.8820    0.5990 c2        1 GR0     -0.116400
     21 C19        -1.4970    7.0470   -0.6110 c3        1 GR0     -0.071400
     22 O1A        -2.1880    2.4950   -1.8180 o         1 GR0     -0.928500
     23 C20        -0.4240    9.0450    0.4780 c3        1 GR0     -0.071400
     24 O2A        -2.1570    3.8140    0.3600 o         1 GR0     -0.928500
     25 O3A        -0.3910    4.2870   -1.3870 o         1 GR0     -0.928500
     26 H1         -1.9890    0.8360   -0.4650 h1        1 GR0      0.019700
     27 H1A        -0.3310    0.0540   -0.3530 h1        1 GR0      0.019700
     28 H2         -0.9800    1.4290    2.1910 ha        1 GR0      0.134000
     29 H4         -1.9260   -1.5260    0.1180 hc        1 GR0      0.014367
     30 H4A        -1.2760   -2.6080    1.4230 hc        1 GR0      0.014367
     31 H4B        -3.0190   -2.1250    1.4350 hc        1 GR0      0.014367
     32 H5         -2.1420   -1.8120    3.7390 hc        1 GR0      0.011700
     33 H5A        -0.9010   -0.5390    4.0490 hc        1 GR0      0.011700
     34 H6         -2.6410    1.2450    3.7760 hc        1 GR0      0.069700
     35 H6A        -3.8940   -0.0110    3.4540 hc        1 GR0      0.069700
     36 H7         -3.3730   -1.0420    5.7670 ha        1 GR0      0.093000
     37 H9         -2.0700    2.5020    5.4330 hc        1 GR0      0.044200
     38 H9A        -2.7850    2.9790    7.0220 hc        1 GR0      0.044200
     39 H10        -4.4490    1.2930    8.1280 hc        1 GR0      0.022367
     40 H10A       -2.6980    0.9580    8.4500 hc        1 GR0      0.022367
     41 H10B       -3.8010   -0.3930    7.9570 hc        1 GR0      0.022367
     42 H11        -4.4630    2.4220    4.4880 hc        1 GR0      0.033700
     43 H11A       -5.0300    3.1590    6.0400 hc        1 GR0      0.033700
     44 H12        -3.3000    5.0560    5.6510 ha        1 GR0      0.089000
     45 H14        -5.1550    4.8350    1.8990 hc        1 GR0      0.078033
     46 H14A       -3.6350    3.8480    1.7700 hc        1 GR0      0.078033
     47 H14B       -5.0430    3.2680    2.7970 hc        1 GR0      0.078033
     48 H15        -4.2520    7.0060    3.4540 hc        1 GR0      0.012200
     49 H15A       -2.6090    6.5790    4.0640 hc        1 GR0      0.012200
     50 H16        -2.2580    5.4790    1.6170 hc        1 GR0      0.117700
     51 H16A       -3.6830    6.4680    1.1750 hc        1 GR0      0.117700
     52 H17        -1.8220    8.2400    2.6400 ha        1 GR0      0.074000
     53 H19        -0.9090    7.4530   -1.4680 hc        1 GR0      0.044200
     54 H19A       -1.1590    5.9670   -0.4430 hc        1 GR0      0.044200
     55 H19B       -2.5760    6.9970   -0.9040 hc        1 GR0      0.044200
     56 H20        -0.3530    9.6250    1.4310 hc        1 GR0      0.044200
     57 H20A        0.6010    8.6900    0.2030 hc        1 GR0      0.044200
     58 H20B       -0.7790    9.7350   -0.3270 hc        1 GR0      0.044200
@<TRIPOS>BOND
     1    1    2 1   
     2    1    3 1   
     3    1   26 1   
     4    1   27 1   
     5    2   11 1   
     6    3    4 2   
     7    3   28 1   
     8    4    5 1   
     9    4    6 1   
    10    5   29 1   
    11    5   30 1   
    12    5   31 1   
    13    6    7 1   
    14    6   32 1   
    15    6   33 1   
    16    7    8 1   
    17    7   34 1   
    18    7   35 1   
    19    8    9 2   
    20    8   36 1   
    21    9   10 1   
    22    9   12 1   
    23   10   13 1   
    24   10   37 1   
    25   10   38 1   
    26   11   22 1   
    27   11   24 1   
    28   11   25 1   
    29   12   39 1   
    30   12   40 1   
    31   12   41 1   
    32   13   14 1   
    33   13   42 1   
    34   13   43 1   
    35   14   15 2   
    36   14   44 1   
    37   15   16 1   
    38   15   17 1   
    39   16   45 1   
    40   16   46 1   
    41   16   47 1   
    42   17   18 1   
    43   17   48 1   
    44   17   49 1   
    45   18   19 1   
    46   18   50 1   
    47   18   51 1   
    48   19   20 2   
    49   19   52 1   
    50   20   21 1   
    51   20   23 1   
    52   21   53 1   
    53   21   54 1   
    54   21   55 1   
    55   23   56 1   
    56   23   57 1   
    57   23   58 1   
@<TRIPOS>SUBSTRUCTURE
     1 GR0         1 TEMP              0 ****  ****    0 ROOT
