@<TRIPOS>MOLECULE
GR0
   58    57     1     0     0
SMALL
bcc


@<TRIPOS>ATOM
      1 C1         -1.0130    0.8270    0.1800 c3        1 GR0      0.213600
      2 O1         -0.2850    1.9700   -0.0250 os        1 GR0     -0.567200
      3 C2         -1.3370    0.6310    1.6310 c2        1 GR0     -0.083200
      4 C3         -1.7980   -0.5060    2.1820 c2        1 GR0     -0.267400
      5 C4         -2.0530   -1.7390    1.4030 c3        1 GR0     -0.020900
      6 C5         -2.0790   -0.6020    3.6430 c3        1 GR0     -0.004200
      7 C6         -3.5260   -0.2490    3.9570 c3        1 GR0     -0.057200
      8 C7         -3.7960   -0.2280    5.4140 c2        1 GR0     -0.157200
      9 C8         -3.6140    0.8250    6.2260 c2        1 GR0     -0.137400
     10 C9         -3.0590    2.1310    5.7710 c3        1 GR0     -0.045200
     11 PA         -0.9980    3.1850   -1.0380 p5        1 GR0      1.329900
     12 C10        -3.9420    0.7500    7.6720 c3        1 GR0     -0.047900
     13 C11        -4.1460    3.1130    5.3600 c3        1 GR0     -0.013200
     14 C12        -3.5610    4.4000    4.9150 c2        1 GR0     -0.281200
     15 C13        -3.1560    4.6760    3.6610 c2        1 GR0     -0.028400
     16 C14        -3.2460    3.7250    2.5340 c3        1 GR0     -0.124900
     17 C15        -2.5390    6.0020    3.3570 c3        1 GR0     -0.033200
     18 C16        -2.7850    6.4680    1.9340 c3        1 GR0     -0.092200
     19 C17        -2.2840    7.8460    1.7310 c2        1 GR0     -0.171200
     20 C18        -1.6960    8.2900    0.6090 c2        1 GR0     -0.121400
     21 C19        -1.4630    7.4440   -0.5840 c3        1 GR0     -0.071900
     22 O1A        -2.1120    2.4330   -1.7170 o         1 GR0     -0.929500
     23 C20        -1.2280    9.6960    0.4960 c3        1 GR0     -0.071900
     24 O2A        -1.4590    4.1930   -0.0040 o         1 GR0     -0.929500
     25 O3A         0.1560    3.6110   -1.8930 o         1 GR0     -0.929500
     26 H1         -1.9810    0.8490   -0.4130 h1        1 GR0      0.025700
     27 H1A        -0.4100   -0.0730   -0.1560 h1        1 GR0      0.025700
     28 H2         -1.1770    1.5300    2.2540 ha        1 GR0      0.128000
     29 H4         -1.1990   -2.4550    1.5110 hc        1 GR0      0.015033
     30 H4A        -2.9800   -2.2510    1.7650 hc        1 GR0      0.015033
     31 H4B        -2.1800   -1.5060    0.3170 hc        1 GR0      0.015033
     32 H5         -1.8670   -1.6430    4.0070 hc        1 GR0      0.019700
     33 H5A        -1.4030    0.0930    4.2100 hc        1 GR0      0.019700
     34 H6         -3.7600    0.7520    3.5020 hc        1 GR0      0.052700
     35 H6A        -4.2000   -0.9990    3.4630 hc        1 GR0      0.052700
     36 H7         -4.1820   -1.1750    5.8290 ha        1 GR0      0.091000
     37 H9         -2.3690    1.9730    4.8960 hc        1 GR0      0.053200
     38 H9A        -2.4480    2.5830    6.5970 hc        1 GR0      0.053200
     39 H10        -4.6230    1.5920    7.9530 hc        1 GR0      0.024700
     40 H10A       -3.0090    0.8390    8.2830 hc        1 GR0      0.024700
     41 H10B       -4.4430   -0.2130    7.9360 hc        1 GR0      0.024700
     42 H11        -4.7640    2.6570    4.5400 hc        1 GR0      0.027200
     43 H11A       -4.8320    3.2910    6.2310 hc        1 GR0      0.027200
     44 H12        -3.4510    5.1540    5.7100 ha        1 GR0      0.089000
     45 H14        -4.1320    3.9750    1.8980 hc        1 GR0      0.083700
     46 H14A       -2.3390    3.7960    1.8520 hc        1 GR0      0.083700
     47 H14B       -3.3410    2.6700    2.8840 hc        1 GR0      0.083700
     48 H15        -2.9080    6.7740    4.0860 hc        1 GR0      0.026700
     49 H15A       -1.4290    5.9030    3.5110 hc        1 GR0      0.026700
     50 H16        -2.2950    5.7370    1.2060 hc        1 GR0      0.109200
     51 H16A       -3.8880    6.4470    1.7170 hc        1 GR0      0.109200
     52 H17        -2.4220    8.5310    2.5860 ha        1 GR0      0.073000
     53 H19        -0.6370    7.8570   -1.2120 hc        1 GR0      0.043700
     54 H19A       -1.2010    6.3780   -0.3020 hc        1 GR0      0.043700
     55 H19B       -2.3910    7.3990   -1.2070 hc        1 GR0      0.043700
     56 H20        -1.5000   10.3030    1.3940 hc        1 GR0      0.043700
     57 H20A       -0.1150    9.7180    0.3800 hc        1 GR0      0.043700
     58 H20B       -1.6790   10.1800   -0.4060 hc        1 GR0      0.043700
@<TRIPOS>BOND
     1    1    2 1   
     2    1    3 1   
     3    1   26 1   
     4    1   27 1   
     5    2   11 1   
     6    3    4 2   
     7    3   28 1   
     8    4    5 1   
     9    4    6 1   
    10    5   29 1   
    11    5   30 1   
    12    5   31 1   
    13    6    7 1   
    14    6   32 1   
    15    6   33 1   
    16    7    8 1   
    17    7   34 1   
    18    7   35 1   
    19    8    9 2   
    20    8   36 1   
    21    9   10 1   
    22    9   12 1   
    23   10   13 1   
    24   10   37 1   
    25   10   38 1   
    26   11   22 1   
    27   11   24 1   
    28   11   25 1   
    29   12   39 1   
    30   12   40 1   
    31   12   41 1   
    32   13   14 1   
    33   13   42 1   
    34   13   43 1   
    35   14   15 2   
    36   14   44 1   
    37   15   16 1   
    38   15   17 1   
    39   16   45 1   
    40   16   46 1   
    41   16   47 1   
    42   17   18 1   
    43   17   48 1   
    44   17   49 1   
    45   18   19 1   
    46   18   50 1   
    47   18   51 1   
    48   19   20 2   
    49   19   52 1   
    50   20   21 1   
    51   20   23 1   
    52   21   53 1   
    53   21   54 1   
    54   21   55 1   
    55   23   56 1   
    56   23   57 1   
    57   23   58 1   
@<TRIPOS>SUBSTRUCTURE
     1 GR0         1 TEMP              0 ****  ****    0 ROOT
