@<TRIPOS>MOLECULE
GR1
   70    72     1     0     0
SMALL
bcc


@<TRIPOS>ATOM
      1 N1         -0.4280    0.3400    0.4670 nx        1 GR1     -0.600200
      2 C7          0.8950    0.1600    1.1520 c3        1 GR1      0.120300
      3 O1         -0.7070    2.4940    1.3660 o         1 GR1     -0.420100
      4 C8         -4.4420   -0.3930    2.0720 cp        1 GR1     -0.003000
      5 C9         -5.3830    0.6210    1.8210 ca        1 GR1     -0.058000
      6 C17        -6.1830   -7.0380    2.4210 c3        1 GR1     -0.075400
      7 C18        -6.8850   -8.2070    1.7560 c3        1 GR1     -0.092400
      8 C19        -6.6280   -9.5140    2.4840 c3        1 GR1     -0.080400
      9 C20        -7.7470  -10.5140    2.2690 c3        1 GR1     -0.168700
     10 C21        -7.9450  -11.3920    3.5050 c2        1 GR1      0.582200
     11 N2         -7.5720  -12.6330    3.5990 n2        1 GR1     -0.830100
     12 N3         -8.5240  -10.7200    4.6070 nv        1 GR1     -0.910800
     13 O2         -7.1080   -7.7700    5.3820 oh        1 GR1     -0.619100
     14 O2A        -8.9370   -7.7480    4.1340 o         1 GR1     -0.551000
     15 O3         -6.6410   -5.0870    6.7250 oh        1 GR1     -0.593800
     16 C10        -6.2520   -5.3580    4.3170 c3        1 GR1     -0.060400
     17 C11        -6.1890   -2.9590    4.1620 ca        1 GR1     -0.064300
     18 C12        -5.7020   -4.1640    3.5990 ca        1 GR1     -0.053300
     19 C13        -7.1470   -4.7560    5.4470 c3        1 GR1      0.147100
     20 C14        -7.0930   -3.2200    5.3160 c3        1 GR1     -0.043100
     21 C22        -4.7740   -4.1180    2.5680 ca        1 GR1     -0.114000
     22 C23        -4.3650   -2.8760    2.0700 ca        1 GR1     -0.120000
     23 C24        -4.8720   -1.6860    2.6030 cp        1 GR1     -0.076000
     24 C25        -5.7930   -1.7290    3.6650 ca        1 GR1     -0.098000
     25 C3         -4.9730    1.8620    1.3390 ca        1 GR1     -0.120000
     26 C4         -3.6230    2.1150    1.1030 ca        1 GR1     -0.059000
     27 C26        -1.2680    1.4370    1.1130 c         1 GR1      0.576700
     28 C5         -2.6800    1.1020    1.3370 ca        1 GR1     -0.202600
     29 C6         -3.0870   -0.1470    1.8250 ca        1 GR1     -0.102000
     30 C27         1.9510    1.2030    0.8580 c3        1 GR1     -0.128100
     31 C1         -0.3080    0.5430   -1.0160 c3        1 GR1      0.120300
     32 C2         -0.2430    1.9860   -1.4720 c3        1 GR1     -0.128100
     33 C16        -7.0580   -6.3110    3.4390 c3        1 GR1     -0.095700
     34 C15        -7.7930   -7.3120    4.2970 c         1 GR1      0.643100
     35 H72         0.6830    0.1480    2.2610 hx        1 GR1      0.096450
     36 H71         1.2820   -0.8560    0.8450 hx        1 GR1      0.096450
     37 H9         -6.4520    0.4260    2.0120 ha        1 GR1      0.168000
     38 H172       -5.8960   -6.2930    1.6320 hc        1 GR1      0.052700
     39 H171       -5.2410   -7.3890    2.9200 hc        1 GR1      0.052700
     40 H182       -7.9880   -7.9970    1.7100 hc        1 GR1      0.054200
     41 H181       -6.5240   -8.2980    0.6980 hc        1 GR1      0.054200
     42 H192       -5.6580   -9.9530    2.1340 hc        1 GR1      0.053200
     43 H191       -6.5060   -9.3080    3.5830 hc        1 GR1      0.053200
     44 H202       -8.7110   -9.9860    2.0400 hc        1 GR1      0.058700
     45 H201       -7.5140  -11.1580    1.3810 hc        1 GR1      0.058700
     46 H2N        -7.0890  -12.9790    2.7990 hn        1 GR1      0.391400
     47 H32        -9.1880  -10.0240    4.3340 hn        1 GR1      0.401800
     48 H31        -8.8610  -11.3160    5.3330 hn        1 GR1      0.401800
     49 H3         -6.6790   -6.0520    6.8010 ho        1 GR1      0.422000
     50 H10        -5.4070   -5.9320    4.7920 hc        1 GR1      0.097700
     51 H13        -8.2050   -5.1230    5.3510 h1        1 GR1      0.049700
     52 H142       -8.1160   -2.8060    5.1390 hc        1 GR1      0.082700
     53 H141       -6.6870   -2.7670    6.2580 hc        1 GR1      0.082700
     54 H22        -4.3490   -5.0410    2.1470 ha        1 GR1      0.146000
     55 H23        -3.6440   -2.8420    1.2410 ha        1 GR1      0.118000
     56 H25        -6.1790   -0.7970    4.1040 ha        1 GR1      0.145000
     57 H3C1       -5.7180    2.6540    1.1510 ha        1 GR1      0.168000
     58 H4         -3.2950    3.1040    0.7430 ha        1 GR1      0.162000
     59 H6         -2.3600   -0.9360    2.0720 ha        1 GR1      0.135000
     60 H273        1.6120    2.2290    1.1460 hc        1 GR1      0.079367
     61 H272        2.2410    1.2040   -0.2210 hc        1 GR1      0.079367
     62 H271        2.8570    0.9490    1.4650 hc        1 GR1      0.079367
     63 H12        -1.2080    0.0510   -1.4880 hx        1 GR1      0.096450
     64 H11         0.6180   -0.0060   -1.3560 hx        1 GR1      0.096450
     65 H23A       -1.2060    2.5180   -1.2780 hc        1 GR1      0.079367
     66 H22A       -0.0520    1.9910   -2.5750 hc        1 GR1      0.079367
     67 H21         0.5800    2.5490   -0.9650 hc        1 GR1      0.079367
     68 H16        -7.8490   -5.7300    2.8840 hc        1 GR1      0.090700
     69 H111       -0.9400   -0.5440    0.5980 hn        1 GR1      0.448800
     70 H33        -7.6050   -8.4910    5.8080 ho        1 GR1      0.465000
@<TRIPOS>BOND
     1    1    2 1   
     2    1   27 1   
     3    1   31 1   
     4    1   69 1   
     5    2   30 1   
     6    2   35 1   
     7    2   36 1   
     8    3   27 2   
     9    4    5 ar  
    10    4   23 1   
    11    4   29 ar  
    12    5   25 ar  
    13    5   37 1   
    14    6    7 1   
    15    6   33 1   
    16    6   38 1   
    17    6   39 1   
    18    7    8 1   
    19    7   40 1   
    20    7   41 1   
    21    8    9 1   
    22    8   42 1   
    23    8   43 1   
    24    9   10 1   
    25    9   44 1   
    26    9   45 1   
    27   10   11 2   
    28   10   12 1   
    29   11   46 1   
    30   12   47 1   
    31   12   48 1   
    32   13   34 1   
    33   13   70 1   
    34   14   34 2   
    35   15   19 1   
    36   15   49 1   
    37   16   18 1   
    38   16   19 1   
    39   16   33 1   
    40   16   50 1   
    41   17   18 ar  
    42   17   20 1   
    43   17   24 ar  
    44   18   21 ar  
    45   19   20 1   
    46   19   51 1   
    47   20   52 1   
    48   20   53 1   
    49   21   22 ar  
    50   21   54 1   
    51   22   23 ar  
    52   22   55 1   
    53   23   24 ar  
    54   24   56 1   
    55   25   26 ar  
    56   25   57 1   
    57   26   28 ar  
    58   26   58 1   
    59   27   28 1   
    60   28   29 ar  
    61   29   59 1   
    62   30   60 1   
    63   30   61 1   
    64   30   62 1   
    65   31   32 1   
    66   31   63 1   
    67   31   64 1   
    68   32   65 1   
    69   32   66 1   
    70   32   67 1   
    71   33   34 1   
    72   33   68 1   
@<TRIPOS>SUBSTRUCTURE
     1 GR1         1 TEMP              0 ****  ****    0 ROOT
