@<TRIPOS>MOLECULE
GR1
   68    70     1     0     0
SMALL
bcc


@<TRIPOS>ATOM
      1 N1          1.0520   -0.8060    6.2520 n         1 GR1     -0.469800
      2 C7          1.7680   -1.6620    7.1710 c3        1 GR1      0.089500
      3 O1         -0.9680   -1.5030    7.0850 o         1 GR1     -0.604100
      4 C8         -1.7120    0.6560    3.0490 cp        1 GR1     -0.010000
      5 C9         -2.4900    1.7110    3.5500 ca        1 GR1     -0.112000
      6 C17         0.7000   -0.3700   -3.6610 c3        1 GR1     -0.057400
      7 C18         1.8510    0.4730   -4.1710 c3        1 GR1     -0.090400
      8 C19         2.9200   -0.3870   -4.8130 c3        1 GR1     -0.077400
      9 C20         4.0780    0.4620   -5.2980 c3        1 GR1     -0.125700
     10 C21         4.9770   -0.3470   -6.2320 c2        1 GR1      0.607200
     11 N2          6.1190   -0.7820   -5.7900 n2        1 GR1     -0.855100
     12 N3          4.4780   -0.4800   -7.5470 nh        1 GR1     -0.957800
     13 O2         -1.7410   -0.0820   -5.5270 o         1 GR1     -0.841800
     14 O2A        -0.8270    1.9470   -5.3700 o         1 GR1     -0.841800
     15 O3         -3.7610   -0.7450   -3.6560 oh        1 GR1     -0.642800
     16 C10        -1.5890   -0.2400   -2.6310 c3        1 GR1     -0.038400
     17 C11        -2.6730    0.3310   -0.5590 ca        1 GR1     -0.085300
     18 C12        -1.4390   -0.0360   -1.1530 ca        1 GR1     -0.037300
     19 C13        -3.0420    0.2340   -2.9360 c3        1 GR1      0.163100
     20 C14        -3.7530    0.4340   -1.5790 c3        1 GR1     -0.046100
     21 C22        -0.3140   -0.1760   -0.3530 ca        1 GR1     -0.128000
     22 C23        -0.4140    0.0460    1.0240 ca        1 GR1     -0.123000
     23 C24        -1.6310    0.4110    1.6110 cp        1 GR1     -0.077000
     24 C25        -2.7750    0.5530    0.8030 ca        1 GR1     -0.112000
     25 C3         -2.5550    1.9530    4.9200 ca        1 GR1     -0.137000
     26 C4         -1.8440    1.1530    5.8120 ca        1 GR1     -0.109000
     27 C26        -0.3410   -0.7770    6.2870 c         1 GR1      0.673700
     28 C5         -1.0620    0.1030    5.3200 ca        1 GR1     -0.130600
     29 C6         -1.0020   -0.1520    3.9490 ca        1 GR1     -0.101000
     30 C27         2.2910   -0.9970    8.4360 c3        1 GR1     -0.120600
     31 C1          1.8060    0.2130    5.5590 c3        1 GR1      0.089500
     32 C2          1.7880    1.5990    6.1890 c3        1 GR1     -0.120600
     33 C16        -0.5520    0.4780   -3.4790 c3        1 GR1     -0.184700
     34 C15        -1.0920    0.8070   -4.8990 c         1 GR1      0.913600
     35 H72         2.6420   -2.1050    6.6100 h1        1 GR1      0.055950
     36 H71         1.0810   -2.5080    7.4680 h1        1 GR1      0.055950
     37 H9         -3.0470    2.3530    2.8490 ha        1 GR1      0.142000
     38 H172        0.9930   -0.8660   -2.7000 hc        1 GR1      0.027700
     39 H171        0.4670   -1.1860   -4.3970 hc        1 GR1      0.027700
     40 H182        1.4530    1.2110   -4.9230 hc        1 GR1      0.058200
     41 H181        2.2950    1.0610   -3.3270 hc        1 GR1      0.058200
     42 H192        3.2940   -1.1470   -4.0780 hc        1 GR1      0.036700
     43 H191        2.4630   -0.9510   -5.6680 hc        1 GR1      0.036700
     44 H202        3.6940    1.3650   -5.8430 hc        1 GR1      0.067200
     45 H201        4.6690    0.8310   -4.4200 hc        1 GR1      0.067200
     46 H2N         6.6670   -1.3150   -6.4310 hn        1 GR1      0.365400
     47 H32         4.7840   -1.2740   -8.0610 hn        1 GR1      0.394800
     48 H31         3.5060   -0.2880   -7.6490 hn        1 GR1      0.394800
     49 H3         -3.3240   -0.8150   -4.5250 ho        1 GR1      0.458000
     50 H10        -1.5350   -1.3430   -2.8550 hc        1 GR1      0.075700
     51 H13        -3.0210    1.1970   -3.5150 h1        1 GR1      0.067700
     52 H142       -4.2590    1.4300   -1.5420 hc        1 GR1      0.056200
     53 H141       -4.5290   -0.3600   -1.4270 hc        1 GR1      0.056200
     54 H22         0.6580   -0.4490   -0.7890 ha        1 GR1      0.140000
     55 H23         0.4830   -0.0570    1.6530 ha        1 GR1      0.117000
     56 H25        -3.7380    0.8310    1.2540 ha        1 GR1      0.126000
     57 H3C1       -3.1720    2.7800    5.3010 ha        1 GR1      0.130000
     58 H4         -1.9020    1.3330    6.8950 ha        1 GR1      0.136000
     59 H6         -0.4050   -0.9960    3.5690 ha        1 GR1      0.146000
     60 H273        2.7820   -1.7720    9.0720 hc        1 GR1      0.040033
     61 H272        3.0410   -0.2070    8.1950 hc        1 GR1      0.040033
     62 H271        1.4590   -0.5330    9.0180 hc        1 GR1      0.040033
     63 H12         2.8760   -0.1370    5.4880 h1        1 GR1      0.055950
     64 H11         1.4030    0.2940    4.5070 h1        1 GR1      0.055950
     65 H23A        2.4010    2.2880    5.5600 hc        1 GR1      0.040033
     66 H22A        0.7440    1.9950    6.2400 hc        1 GR1      0.040033
     67 H21         2.2110    1.5820    7.2210 hc        1 GR1      0.040033
     68 H16        -0.2790    1.4490   -2.9850 hc        1 GR1      0.049700
@<TRIPOS>BOND
     1    1    2 1   
     2    1   27 1   
     3    1   31 1   
     4    2   30 1   
     5    2   35 1   
     6    2   36 1   
     7    3   27 2   
     8    4    5 ar  
     9    4   23 1   
    10    4   29 ar  
    11    5   25 ar  
    12    5   37 1   
    13    6    7 1   
    14    6   33 1   
    15    6   38 1   
    16    6   39 1   
    17    7    8 1   
    18    7   40 1   
    19    7   41 1   
    20    8    9 1   
    21    8   42 1   
    22    8   43 1   
    23    9   10 1   
    24    9   44 1   
    25    9   45 1   
    26   10   11 2   
    27   10   12 1   
    28   11   46 1   
    29   12   47 1   
    30   12   48 1   
    31   13   34 1   
    32   14   34 1   
    33   15   19 1   
    34   15   49 1   
    35   16   18 1   
    36   16   19 1   
    37   16   33 1   
    38   16   50 1   
    39   17   18 ar  
    40   17   20 1   
    41   17   24 ar  
    42   18   21 ar  
    43   19   20 1   
    44   19   51 1   
    45   20   52 1   
    46   20   53 1   
    47   21   22 ar  
    48   21   54 1   
    49   22   23 ar  
    50   22   55 1   
    51   23   24 ar  
    52   24   56 1   
    53   25   26 ar  
    54   25   57 1   
    55   26   28 ar  
    56   26   58 1   
    57   27   28 1   
    58   28   29 ar  
    59   29   59 1   
    60   30   60 1   
    61   30   61 1   
    62   30   62 1   
    63   31   32 1   
    64   31   63 1   
    65   31   64 1   
    66   32   65 1   
    67   32   66 1   
    68   32   67 1   
    69   33   34 1   
    70   33   68 1   
@<TRIPOS>SUBSTRUCTURE
     1 GR1         1 TEMP              0 ****  ****    0 ROOT
