@<TRIPOS>MOLECULE
GR1
   70    72     1     0     0
SMALL
bcc


@<TRIPOS>ATOM
      1 N1         -0.5790    0.5130    0.3450 n4        1 GR1     -0.601200
      2 C7          0.7900    0.3210    0.9260 c3        1 GR1      0.120300
      3 O1         -0.8200    2.6260    1.3460 o         1 GR1     -0.424100
      4 C8         -4.4360   -0.3790    2.2100 cp        1 GR1      0.007000
      5 C9         -5.4100    0.6290    2.0960 ca        1 GR1     -0.059000
      6 C17        -5.4010   -7.5520    2.9370 c3        1 GR1     -0.067400
      7 C18        -5.8850   -8.6580    2.0150 c3        1 GR1     -0.074400
      8 C19        -6.4340   -9.8620    2.7670 c3        1 GR1     -0.085400
      9 C20        -7.8530  -10.2010    2.3420 c3        1 GR1     -0.177700
     10 C21        -8.6150  -10.9060    3.4470 c2        1 GR1      0.542200
     11 N2         -8.8590  -12.1600    3.5890 n2        1 GR1     -0.760100
     12 N3         -9.1380   -9.9840    4.4850 n4        1 GR1     -0.857600
     13 O2         -7.4280   -7.9660    5.1370 o         1 GR1     -0.862300
     14 O2A        -8.7370   -7.5120    3.4240 o         1 GR1     -0.862300
     15 O3         -6.7700   -5.5160    6.6010 oh        1 GR1     -0.613800
     16 C10        -5.9600   -5.5090    4.2880 c3        1 GR1     -0.052400
     17 C11        -5.9950   -3.1060    4.2410 ca        1 GR1     -0.068300
     18 C12        -5.4850   -4.2640    3.6010 ca        1 GR1     -0.038300
     19 C13        -7.0210   -4.9980    5.3130 c3        1 GR1      0.156100
     20 C14        -6.8780   -3.4620    5.3860 c3        1 GR1     -0.047100
     21 C22        -4.6400   -4.1320    2.5100 ca        1 GR1     -0.121000
     22 C23        -4.2970   -2.8530    2.0590 ca        1 GR1     -0.120000
     23 C24        -4.7990   -1.7100    2.6890 cp        1 GR1     -0.091000
     24 C25        -5.6630   -1.8400    3.7930 ca        1 GR1     -0.100000
     25 C3         -5.0610    1.9050    1.6610 ca        1 GR1     -0.121000
     26 C4         -3.7390    2.2000    1.3310 ca        1 GR1     -0.062000
     27 C26        -1.3830    1.5690    1.1000 c         1 GR1      0.578700
     28 C5         -2.7640    1.1950    1.4250 ca        1 GR1     -0.203600
     29 C6         -3.1100   -0.0880    1.8710 ca        1 GR1     -0.106000
     30 C27         1.8110    1.3910    0.6080 c3        1 GR1     -0.127600
     31 C1         -0.5680    0.7840   -1.1320 c3        1 GR1      0.120300
     32 C2         -0.5490    2.2450   -1.5260 c3        1 GR1     -0.127600
     33 C16        -6.5040   -6.5810    3.3530 c3        1 GR1     -0.140700
     34 C15        -7.6210   -7.3790    4.0190 c         1 GR1      0.912600
     35 H72         0.6580    0.2540    2.0460 hx        1 GR1      0.095700
     36 H71         1.1660   -0.6740    0.5460 hx        1 GR1      0.095700
     37 H9         -6.4570    0.4000    2.3590 ha        1 GR1      0.169000
     38 H172       -4.9430   -7.9990    3.8590 hc        1 GR1      0.043200
     39 H171       -4.5970   -6.9750    2.4090 hc        1 GR1      0.043200
     40 H182       -6.6590   -8.2420    1.3180 hc        1 GR1      0.046200
     41 H181       -5.0220   -8.9960    1.3810 hc        1 GR1      0.046200
     42 H192       -6.4050   -9.6530    3.8720 hc        1 GR1      0.059700
     43 H191       -5.7740  -10.7510    2.5860 hc        1 GR1      0.059700
     44 H202       -7.8350  -10.8630    1.4350 hc        1 GR1      0.094700
     45 H201       -8.4000   -9.2550    2.0560 hc        1 GR1      0.094700
     46 H2N        -8.4930  -12.7670    2.8870 hn        1 GR1      0.446400
     47 H32        -8.3360   -9.6210    5.0600 hn        1 GR1      0.486800
     48 H31        -9.5290   -9.1260    4.0180 hn        1 GR1      0.486800
     49 H3         -6.9310   -6.4720    6.5510 ho        1 GR1      0.443000
     50 H10        -5.1020   -5.9410    4.8800 hc        1 GR1      0.086700
     51 H13        -8.0580   -5.2750    4.9780 h1        1 GR1      0.063700
     52 H142       -6.4160   -3.1640    6.3620 hc        1 GR1      0.075700
     53 H141       -7.8780   -2.9690    5.3060 hc        1 GR1      0.075700
     54 H22        -4.2420   -5.0170    1.9930 ha        1 GR1      0.143000
     55 H23        -3.6360   -2.7510    1.1860 ha        1 GR1      0.112000
     56 H25        -6.0600   -0.9460    4.2960 ha        1 GR1      0.140000
     57 H3C1       -5.8300    2.6910    1.5830 ha        1 GR1      0.166000
     58 H4         -3.4580    3.2150    1.0050 ha        1 GR1      0.160000
     59 H6         -2.3530   -0.8760    2.0140 ha        1 GR1      0.134000
     60 H273        2.0250    1.4460   -0.4870 hc        1 GR1      0.078867
     61 H272        2.7600    1.1240    1.1380 hc        1 GR1      0.078867
     62 H271        1.4800    2.3980    0.9650 hc        1 GR1      0.078867
     63 H12         0.3350    0.2610   -1.5620 hx        1 GR1      0.095700
     64 H11        -1.4960    0.3020   -1.5590 hx        1 GR1      0.095700
     65 H23A       -0.4370    2.3000   -2.6390 hc        1 GR1      0.078867
     66 H22A       -1.5010    2.7560   -1.2420 hc        1 GR1      0.078867
     67 H21         0.3020    2.7950   -1.0540 hc        1 GR1      0.078867
     68 H16        -6.9340   -6.0930    2.4360 hc        1 GR1      0.069700
     69 H111       -1.0710   -0.3830    0.4720 hn        1 GR1      0.450800
     70 H33        -9.8320  -10.4220    5.0870 hn        1 GR1      0.486800
@<TRIPOS>BOND
     1    1    2 1   
     2    1   27 1   
     3    1   31 1   
     4    1   69 1   
     5    2   30 1   
     6    2   35 1   
     7    2   36 1   
     8    3   27 2   
     9    4    5 ar  
    10    4   23 1   
    11    4   29 ar  
    12    5   25 ar  
    13    5   37 1   
    14    6    7 1   
    15    6   33 1   
    16    6   38 1   
    17    6   39 1   
    18    7    8 1   
    19    7   40 1   
    20    7   41 1   
    21    8    9 1   
    22    8   42 1   
    23    8   43 1   
    24    9   10 1   
    25    9   44 1   
    26    9   45 1   
    27   10   11 2   
    28   10   12 1   
    29   11   46 1   
    30   12   47 1   
    31   12   48 1   
    32   12   70 1   
    33   13   34 1   
    34   14   34 1   
    35   15   19 1   
    36   15   49 1   
    37   16   18 1   
    38   16   19 1   
    39   16   33 1   
    40   16   50 1   
    41   17   18 ar  
    42   17   20 1   
    43   17   24 ar  
    44   18   21 ar  
    45   19   20 1   
    46   19   51 1   
    47   20   52 1   
    48   20   53 1   
    49   21   22 ar  
    50   21   54 1   
    51   22   23 ar  
    52   22   55 1   
    53   23   24 ar  
    54   24   56 1   
    55   25   26 ar  
    56   25   57 1   
    57   26   28 ar  
    58   26   58 1   
    59   27   28 1   
    60   28   29 ar  
    61   29   59 1   
    62   30   60 1   
    63   30   61 1   
    64   30   62 1   
    65   31   32 1   
    66   31   63 1   
    67   31   64 1   
    68   32   65 1   
    69   32   66 1   
    70   32   67 1   
    71   33   34 1   
    72   33   68 1   
@<TRIPOS>SUBSTRUCTURE
     1 GR1         1 TEMP              0 ****  ****    0 ROOT
