@<TRIPOS>MOLECULE
GR1
   68    63     1     0     0
SMALL
bcc


@<TRIPOS>ATOM
      1 N1          4.1950    5.0560   -3.1700 n         1 GR1     -0.332000
      2 C7          5.2310    4.0230   -3.0130 c3        1 GR1     -0.021000
      3 O1          3.0920    5.9720   -1.3430 o         1 GR1     -0.370000
      4 C8          0.3340    2.4790   -1.8070 c1        1 GR1     -0.014000
      5 C9         -0.5610    2.8600   -2.8030 c1        1 GR1     -0.125000
      6 C17        -1.9860   -3.9080    1.4460 c3        1 GR1     -0.132000
      7 C18        -3.2130   -4.8280    1.4360 c3        1 GR1     -0.154000
      8 C19        -2.8220   -6.2120    1.9610 c3        1 GR1     -0.160000
      9 C20        -4.0780   -6.9120    2.5540 c3        1 GR1     -0.180000
     10 C21        -3.6360   -8.0010    3.5850 c2        1 GR1      0.102000
     11 N2         -3.2590   -9.1860    3.1680 n1        1 GR1     -0.380000
     12 N3         -3.6430   -7.7110    4.9590 n3        1 GR1     -0.338000
     13 O2         -3.5330   -2.6120    3.5950 o         1 GR1     -0.584000
     14 O2A        -4.6890   -1.8010    1.9350 o         1 GR1     -0.584000
     15 O3         -1.0390   -0.9060    4.2380 oh        1 GR1     -0.366000
     16 C10        -1.3270   -1.5740    1.9710 c3        1 GR1     -0.094000
     17 C11        -1.1040    0.6770    1.1440 c1        1 GR1     -0.078000
     18 C12        -0.8030   -0.6630    0.8150 c1        1 GR1     -0.031000
     19 C13        -1.8250   -0.7060    3.0460 c3        1 GR1      0.048000
     20 C14        -1.7010    0.6960    2.5930 c3        1 GR1     -0.130000
     21 C22        -0.1070   -0.9560   -0.3690 c1        1 GR1     -0.129000
     22 C23         0.2870    0.0770   -1.2220 c1        1 GR1     -0.123000
     23 C24        -0.0140    1.4240   -0.8950 c1        1 GR1     -0.075000
     24 C25        -0.7060    1.7190    0.2830 c1        1 GR1     -0.113000
     25 C3         -0.2670    3.9540   -3.6340 c1        1 GR1     -0.125000
     26 C4          0.9240    4.6610   -3.4630 c1        1 GR1     -0.100000
     27 C26         3.0860    5.1250   -2.2250 c2        1 GR1      0.347000
     28 C5          1.8230    4.2860   -2.4700 c2        1 GR1     -0.112000
     29 C6          1.5290    3.1890   -1.6350 c2        1 GR1     -0.103000
     30 C27         6.2060    4.4490   -1.9610 c3        1 GR1     -0.237500
     31 C1          4.2430    5.9620   -4.2890 c3        1 GR1     -0.021000
     32 C2          5.5070    6.8210   -4.1980 c3        1 GR1     -0.237500
     33 C16        -2.4470   -2.4490    1.4630 c3        1 GR1     -0.157000
     34 C15        -3.6350   -2.3130    2.3660 c2        1 GR1      0.325000
     35 H72         4.8160    3.1870   -2.7470 h1        1 GR1      0.090000
     36 H71         5.7030    3.8980   -3.8660 h1        1 GR1      0.090000
     37 H9         -1.3850    2.3720   -2.9230 ha        1 GR1      0.135000
     38 H172       -1.4550   -4.0880    2.2320 hc        1 GR1      0.060000
     39 H171       -1.4400   -4.0740    0.6310 hc        1 GR1      0.060000
     40 H182       -3.9190   -4.4420    2.0180 hc        1 GR1      0.078500
     41 H181       -3.5570   -4.9100    0.5080 hc        1 GR1      0.078500
     42 H192       -2.1420   -6.1170    2.6590 hc        1 GR1      0.089500
     43 H191       -2.4630   -6.7500    1.2240 hc        1 GR1      0.089500
     44 H202       -4.6450   -6.2410    3.0070 hc        1 GR1      0.102000
     45 H201       -4.5870   -7.3360    1.8290 hc        1 GR1      0.102000
     46 H2N        -3.2550   -9.3700    2.2970 DU        1 GR1      0.114000
     47 H32        -2.8940   -7.3840    5.3590 hn        1 GR1      0.221500
     48 H31        -4.4070   -7.8290    5.4460 hn        1 GR1      0.221500
     49 H3         -1.4580   -0.5150    4.9480 ho        1 GR1      0.255000
     50 H10        -0.5860   -2.1420    2.3150 hc        1 GR1      0.128000
     51 H13        -2.7470   -0.9100    3.2290 h1        1 GR1      0.099000
     52 H142       -1.1030    1.1600    3.1720 hc        1 GR1      0.097500
     53 H141       -2.5870    1.1070    2.5700 hc        1 GR1      0.097500
     54 H22         0.1030   -1.8910   -0.5980 ha        1 GR1      0.140000
     55 H23         0.7640   -0.1310   -2.0570 ha        1 GR1      0.120000
     56 H25        -0.8140    2.6790    0.5740 ha        1 GR1      0.128000
     57 H3C1       -0.8730    4.2100   -4.3050 ha        1 GR1      0.135000
     58 H4          1.1170    5.4580   -4.0350 ha        1 GR1      0.140000
     59 H6          2.1470    2.9120   -0.9950 ha        1 GR1      0.144000
     60 H273        5.7780    5.1010   -1.3600 hc        1 GR1      0.082500
     61 H272        6.4960    3.6520   -1.4350 hc        1 GR1      0.082500
     62 H271        6.9960    4.8650   -2.3920 hc        1 GR1      0.082500
     63 H12         4.2580    5.4450   -5.1310 h1        1 GR1      0.090000
     64 H11         3.4390    6.5510   -4.2740 h1        1 GR1      0.090000
     65 H23A        5.8140    6.8530   -3.2680 hc        1 GR1      0.082500
     66 H22A        6.2030    6.4330   -4.7550 hc        1 GR1      0.082500
     67 H21         5.3080    7.7310   -4.5080 hc        1 GR1      0.082500
     68 H16        -2.6880   -2.1770    0.5700 hc        1 GR1      0.090000
@<TRIPOS>BOND
     1    1    2 1   
     2    1   27 1   
     3    1   31 1   
     4    2   30 1   
     5    2   35 1   
     6    2   36 1   
     7    3   27 1   
     8    4   29 1   
     9    5   25 1   
    10    5   37 1   
    11    6    7 1   
    12    6   33 1   
    13    6   38 1   
    14    6   39 1   
    15    7    8 1   
    16    7   40 1   
    17    7   41 1   
    18    8    9 1   
    19    8   42 1   
    20    8   43 1   
    21    9   10 1   
    22    9   44 1   
    23    9   45 1   
    24   10   11 1   
    25   10   12 1   
    26   12   47 1   
    27   12   48 1   
    28   13   34 1   
    29   14   34 1   
    30   15   19 1   
    31   15   49 1   
    32   16   18 1   
    33   16   19 1   
    34   16   33 1   
    35   16   50 1   
    36   17   20 1   
    37   17   24 1   
    38   18   21 1   
    39   19   20 1   
    40   19   51 1   
    41   20   52 1   
    42   20   53 1   
    43   21   54 1   
    44   22   23 1   
    45   22   55 1   
    46   24   56 1   
    47   25   57 1   
    48   26   28 1   
    49   26   58 1   
    50   27   28 1   
    51   28   29 1   
    52   29   59 1   
    53   30   60 1   
    54   30   61 1   
    55   30   62 1   
    56   31   32 1   
    57   31   63 1   
    58   31   64 1   
    59   32   65 1   
    60   32   66 1   
    61   32   67 1   
    62   33   34 1   
    63   33   68 1   
@<TRIPOS>SUBSTRUCTURE
     1 GR1         1 TEMP              0 ****  ****    0 ROOT
