@<TRIPOS>MOLECULE
GR1
   70    72     1     0     0
SMALL
bcc


@<TRIPOS>ATOM
      1 N1         -0.5190    0.4450    0.3270 n4        1 GR1     -0.601200
      2 C7          0.8460    0.2590    0.9210 c3        1 GR1      0.120300
      3 O1         -0.7560    2.5770    1.2890 o         1 GR1     -0.424100
      4 C8         -4.4050   -0.3850    2.1590 cp        1 GR1      0.007000
      5 C9         -5.3700    0.6290    2.0150 ca        1 GR1     -0.059000
      6 C17        -5.4380   -7.5370    2.9950 c3        1 GR1     -0.067400
      7 C18        -5.9180   -8.6550    2.0860 c3        1 GR1     -0.074400
      8 C19        -6.4870   -9.8420    2.8510 c3        1 GR1     -0.085400
      9 C20        -7.9020  -10.1770    2.4130 c3        1 GR1     -0.177700
     10 C21        -8.6850  -10.8570    3.5210 c2        1 GR1      0.542200
     11 N2         -8.9400  -12.1060    3.6810 n2        1 GR1     -0.760100
     12 N3         -9.2130   -9.9120    4.5360 n4        1 GR1     -0.857600
     13 O2         -7.4960   -7.8970    5.1750 o         1 GR1     -0.862300
     14 O2A        -8.7790   -7.4630    3.4370 o         1 GR1     -0.862300
     15 O3         -6.8380   -5.4270    6.6060 oh        1 GR1     -0.613800
     16 C10        -5.9970   -5.4670    4.3040 c3        1 GR1     -0.052400
     17 C11        -6.0120   -3.0650    4.2160 ca        1 GR1     -0.068300
     18 C12        -5.5040   -4.2380    3.6020 ca        1 GR1     -0.038300
     19 C13        -7.0680   -4.9300    5.3060 c3        1 GR1      0.156100
     20 C14        -6.9130   -3.3940    5.3540 c3        1 GR1     -0.047100
     21 C22        -4.6430   -4.1310    2.5200 ca        1 GR1     -0.121000
     22 C23        -4.2830   -2.8620    2.0530 ca        1 GR1     -0.120000
     23 C24        -4.7850   -1.7040    2.6560 cp        1 GR1     -0.091000
     24 C25        -5.6650   -1.8090    3.7500 ca        1 GR1     -0.100000
     25 C3         -5.0050    1.8940    1.5630 ca        1 GR1     -0.121000
     26 C4         -3.6770    2.1730    1.2440 ca        1 GR1     -0.062000
     27 C26        -1.3240    1.5190    1.0540 c         1 GR1      0.578700
     28 C5         -2.7120    1.1620    1.3680 ca        1 GR1     -0.203600
     29 C6         -3.0730   -0.1110    1.8320 ca        1 GR1     -0.106000
     30 C27         1.8730    1.3170    0.5880 c3        1 GR1     -0.127600
     31 C1         -0.4960    0.6850   -1.1550 c3        1 GR1      0.120300
     32 C2         -0.4680    2.1390   -1.5780 c3        1 GR1     -0.127600
     33 C16        -6.5380   -6.5510    3.3810 c3        1 GR1     -0.140700
     34 C15        -7.6700   -7.3270    4.0450 c         1 GR1      0.912600
     35 H72         0.7050    0.2170    2.0410 hx        1 GR1      0.095700
     36 H71         1.2190   -0.7460    0.5650 hx        1 GR1      0.095700
     37 H9         -6.4220    0.4120    2.2680 ha        1 GR1      0.169000
     38 H172       -4.9950   -7.9710    3.9300 hc        1 GR1      0.043200
     39 H171       -4.6220   -6.9750    2.4680 hc        1 GR1      0.043200
     40 H182       -6.6810   -8.2440    1.3720 hc        1 GR1      0.046200
     41 H181       -5.0500   -9.0100    1.4690 hc        1 GR1      0.046200
     42 H192       -6.4710   -9.6140    3.9530 hc        1 GR1      0.059700
     43 H191       -5.8320  -10.7380    2.6940 hc        1 GR1      0.059700
     44 H202       -7.8780  -10.8540    1.5190 hc        1 GR1      0.094700
     45 H201       -8.4390   -9.2320    2.1040 hc        1 GR1      0.094700
     46 H2N        -8.5700  -12.7280    2.9940 hn        1 GR1      0.446400
     47 H32        -8.4160   -9.5460    5.1140 hn        1 GR1      0.486800
     48 H31        -9.5910   -9.0600    4.0480 hn        1 GR1      0.486800
     49 H3         -7.0060   -6.3830    6.5700 ho        1 GR1      0.443000
     50 H10        -5.1510   -5.8960    4.9150 hc        1 GR1      0.086700
     51 H13        -8.1020   -5.2040    4.9620 h1        1 GR1      0.063700
     52 H142       -7.9080   -2.8950    5.2530 hc        1 GR1      0.075700
     53 H141       -6.4620   -3.0830    6.3320 hc        1 GR1      0.075700
     54 H22        -4.2450   -5.0280    2.0240 ha        1 GR1      0.143000
     55 H23        -3.6110   -2.7810    1.1870 ha        1 GR1      0.112000
     56 H25        -6.0610   -0.9040    4.2330 ha        1 GR1      0.140000
     57 H3C1       -5.7670    2.6850    1.4620 ha        1 GR1      0.166000
     58 H4         -3.3840    3.1790    0.9050 ha        1 GR1      0.160000
     59 H6         -2.3250   -0.9020    1.9980 ha        1 GR1      0.134000
     60 H273        2.0950    1.3480   -0.5070 hc        1 GR1      0.078867
     61 H272        1.5460    2.3330    0.9220 hc        1 GR1      0.078867
     62 H271        2.8180    1.0560    1.1300 hc        1 GR1      0.078867
     63 H12         0.4070    0.1500   -1.5680 hx        1 GR1      0.095700
     64 H11        -1.4230    0.1990   -1.5790 hx        1 GR1      0.095700
     65 H23A       -0.3480    2.1720   -2.6910 hc        1 GR1      0.078867
     66 H22A       -1.4200    2.6600   -1.3100 hc        1 GR1      0.078867
     67 H21         0.3820    2.6950   -1.1110 hc        1 GR1      0.078867
     68 H16        -6.9520   -6.0740    2.4490 hc        1 GR1      0.069700
     69 H111       -1.0160   -0.4460    0.4680 hn        1 GR1      0.449800
     70 H33        -9.9190  -10.3350    5.1350 hn        1 GR1      0.486800
@<TRIPOS>BOND
     1    1    2 1   
     2    1   27 1   
     3    1   31 1   
     4    1   69 1   
     5    2   30 1   
     6    2   35 1   
     7    2   36 1   
     8    3   27 2   
     9    4    5 ar  
    10    4   23 1   
    11    4   29 ar  
    12    5   25 ar  
    13    5   37 1   
    14    6    7 1   
    15    6   33 1   
    16    6   38 1   
    17    6   39 1   
    18    7    8 1   
    19    7   40 1   
    20    7   41 1   
    21    8    9 1   
    22    8   42 1   
    23    8   43 1   
    24    9   10 1   
    25    9   44 1   
    26    9   45 1   
    27   10   11 2   
    28   10   12 1   
    29   11   46 1   
    30   12   47 1   
    31   12   48 1   
    32   12   70 1   
    33   13   34 1   
    34   14   34 1   
    35   15   19 1   
    36   15   49 1   
    37   16   18 1   
    38   16   19 1   
    39   16   33 1   
    40   16   50 1   
    41   17   18 ar  
    42   17   20 1   
    43   17   24 ar  
    44   18   21 ar  
    45   19   20 1   
    46   19   51 1   
    47   20   52 1   
    48   20   53 1   
    49   21   22 ar  
    50   21   54 1   
    51   22   23 ar  
    52   22   55 1   
    53   23   24 ar  
    54   24   56 1   
    55   25   26 ar  
    56   25   57 1   
    57   26   28 ar  
    58   26   58 1   
    59   27   28 1   
    60   28   29 ar  
    61   29   59 1   
    62   30   60 1   
    63   30   61 1   
    64   30   62 1   
    65   31   32 1   
    66   31   63 1   
    67   31   64 1   
    68   32   65 1   
    69   32   66 1   
    70   32   67 1   
    71   33   34 1   
    72   33   68 1   
@<TRIPOS>SUBSTRUCTURE
     1 GR1         1 TEMP              0 ****  ****    0 ROOT
