@<TRIPOS>MOLECULE
GR2
   36    39     1     0     0
SMALL
bcc


@<TRIPOS>ATOM
      1 C1         -0.1490   -0.3300   -0.0460 ca        1 GR2     -0.076300
      2 C2          1.2090   -0.1270   -0.2330 ca        1 GR2     -0.124000
      3 C3          1.9630    0.4040    0.8220 ca        1 GR2     -0.118000
      4 C4          1.3630    0.7240    2.0370 ca        1 GR2     -0.136000
      5 C5         -0.0100    0.5180    2.2320 ca        1 GR2     -0.084000
      6 C6         -0.7550   -0.0110    1.1910 ca        1 GR2     -0.114300
      7 C7         -2.2140   -0.3440    1.1680 c3        1 GR2      0.183400
      8 C8         -2.4930   -0.8510   -0.2920 c3        1 GR2     -0.033500
      9 C9         -1.1410   -0.8710   -1.0210 c3        1 GR2     -0.025100
     10 C10        -3.7450    1.1280    0.2420 c         1 GR2      0.736800
     11 C11        -3.4690    0.1450   -0.8240 ce        1 GR2     -0.262400
     12 C12        -4.0590    0.1990   -2.0300 c2        1 GR2      0.121100
     13 C13        -4.3700   -0.5850   -4.2290 c3        1 GR2      0.341100
     14 C14        -3.9760   -1.7440   -5.1330 c2        1 GR2     -0.154200
     15 C15        -5.0660   -2.5050   -5.3670 ce        1 GR2     -0.135400
     16 C16        -6.2190   -1.9050   -4.6270 c         1 GR2      0.711800
     17 C17        -5.2180   -3.7140   -6.1780 c3        1 GR2     -0.051900
     18 O1         -4.4650    2.1190    0.2940 o         1 GR2     -0.574500
     19 O2         -3.0350    0.8240    1.3910 os        1 GR2     -0.397900
     20 O3         -3.7410   -0.7630   -2.9680 os        1 GR2     -0.328900
     21 O4         -7.3980   -2.1870   -4.4990 o         1 GR2     -0.526500
     22 O5         -5.7780   -0.7490   -3.9710 os        1 GR2     -0.442900
     23 H1          1.6890   -0.3730   -1.1900 ha        1 GR2      0.134000
     24 H2          3.0420    0.5700    0.6840 ha        1 GR2      0.132000
     25 H3          1.9680    1.1450    2.8530 ha        1 GR2      0.135000
     26 H4         -0.4860    0.7800    3.1870 ha        1 GR2      0.145000
     27 H5         -2.5050   -1.0810    1.9580 h1        1 GR2      0.086700
     28 H6         -2.9450   -1.8740   -0.2780 hc        1 GR2      0.081700
     29 H7         -1.1790   -0.2490   -1.9510 hc        1 GR2      0.062200
     30 H8         -0.8740   -1.9170   -1.3190 hc        1 GR2      0.062200
     31 H9         -4.8060    0.9600   -2.3130 h4        1 GR2      0.174000
     32 H10        -4.2030    0.4370   -4.6530 h2        1 GR2      0.103700
     33 H12        -5.5670   -4.5640   -5.5370 hc        1 GR2      0.065033
     34 H13        -4.2510   -4.0000   -6.6600 hc        1 GR2      0.065033
     35 H14        -5.9860   -3.5490   -6.9770 hc        1 GR2      0.065033
     36 H11        -2.9510   -1.8680   -5.4770 ha        1 GR2      0.178000
@<TRIPOS>BOND
     1    1    2 ar  
     2    1    6 ar  
     3    1    9 1   
     4    2    3 ar  
     5    2   23 1   
     6    3    4 ar  
     7    3   24 1   
     8    4    5 ar  
     9    4   25 1   
    10    5    6 ar  
    11    5   26 1   
    12    6    7 1   
    13    7    8 1   
    14    7   19 1   
    15    7   27 1   
    16    8    9 1   
    17    8   11 1   
    18    8   28 1   
    19    9   29 1   
    20    9   30 1   
    21   10   11 1   
    22   10   18 2   
    23   10   19 1   
    24   11   12 2   
    25   12   20 1   
    26   12   31 1   
    27   13   14 1   
    28   13   20 1   
    29   13   22 1   
    30   13   32 1   
    31   14   15 2   
    32   14   36 1   
    33   15   16 1   
    34   15   17 1   
    35   16   21 2   
    36   16   22 1   
    37   17   33 1   
    38   17   34 1   
    39   17   35 1   
@<TRIPOS>SUBSTRUCTURE
     1 GR2         1 TEMP              0 ****  ****    0 ROOT
