@<TRIPOS>MOLECULE
GR6
   88    91     1     0     0
SMALL
bcc


@<TRIPOS>ATOM
      1 C1          1.7300    2.6020   -0.0840 ca        1 GR6      0.323100
      2 C2          2.8570    1.7820    0.1160 ca        1 GR6     -0.301000
      3 C3          2.9580    1.0260    1.2780 ca        1 GR6      0.358100
      4 C4          1.9700    1.0890    2.3310 ca        1 GR6     -0.714500
      5 C5          0.8150    1.9010    2.0360 ca        1 GR6      0.046000
      6 C6          0.6880    2.6320    0.8950 ca        1 GR6     -0.235000
      7 S7          2.0900    0.4350    3.7030 s4        1 GR6      1.688300
      8 O8          3.2530   -0.0940    4.1430 o         1 GR6     -0.425900
      9 O9          1.0230    0.5480    4.5410 o         1 GR6     -0.425900
     10 N10         1.2240   -2.2760    4.3990 n3        1 GR6     -0.870200
     11 C11         2.4460   -2.9530    4.8240 c3        1 GR6      0.125800
     12 C12         3.2670   -3.5780    3.6930 c3        1 GR6     -0.081400
     13 C13         4.7040   -3.1010    3.7580 c3        1 GR6     -0.078400
     14 C14         5.5760   -3.7490    2.7010 c3        1 GR6     -0.059200
     15 C15         0.2200   -3.1410    3.8190 c3        1 GR6      0.122800
     16 C16        -0.5930   -3.9940    4.8180 c3        1 GR6      0.085100
     17 O17        -1.6470   -3.2470    5.4090 oh        1 GR6     -0.623800
     18 C18        -1.2700   -5.1850    4.0960 c3        1 GR6      0.149500
     19 N19        -2.1260   -5.9700    5.0670 n4        1 GR6     -0.639800
     20 C20        -1.3320   -6.8690    5.9540 c         1 GR6      0.620100
     21 O21        -0.1100   -6.9280    5.9330 o         1 GR6     -0.437000
     22 O22        -2.1540   -7.5860    6.7430 os        1 GR6     -0.393900
     23 C23        -1.5050   -8.4540    7.7310 c3        1 GR6      0.131100
     24 C24        -1.0300   -7.6100    8.9270 c3        1 GR6      0.103400
     25 O25        -1.4920   -8.2410   10.1140 os        1 GR6     -0.387600
     26 C26        -2.4890   -9.2120    9.8220 c3        1 GR6      0.323900
     27 O27        -3.7060   -8.6410   10.2590 os        1 GR6     -0.399600
     28 C28        -4.5960   -8.4330    9.1550 c3        1 GR6      0.122400
     29 C29        -4.0140   -9.1410    7.9320 c3        1 GR6     -0.103400
     30 C30        -2.5580   -9.4250    8.2830 c3        1 GR6     -0.120700
     31 C31        -2.1270   -4.7180    2.9100 c3        1 GR6     -0.052100
     32 C32        -4.2750   -5.9590    2.5750 ca        1 GR6     -0.133000
     33 C33        -5.0150   -6.9770    1.9760 ca        1 GR6     -0.112000
     34 C34        -4.3950   -7.8730    1.1040 ca        1 GR6     -0.092000
     35 C35        -3.0320   -7.7470    0.8290 ca        1 GR6     -0.112000
     36 C36        -2.2890   -6.7290    1.4250 ca        1 GR6     -0.133000
     37 C37        -2.9060   -5.8310    2.3040 ca        1 GR6     -0.174300
     38 O38         1.7210    3.3100   -1.2280 os        1 GR6     -0.268900
     39 C39         0.6060    4.1810   -1.4860 c3        1 GR6      0.098700
     40 O40         3.9710    0.1680    1.5400 os        1 GR6     -0.332900
     41 C41         5.0160    0.0090    0.5400 c3        1 GR6      0.140400
     42 C42         5.8180   -1.2050    0.9770 c3        1 GR6     -0.061200
     43 C43         5.1720   -2.4740    0.5680 c2        1 GR6     -0.191200
     44 C44         5.0650   -3.5720    1.3210 c2        1 GR6     -0.143200
     45 H2          3.6420    1.7660   -0.6580 ha        1 GR6      0.198000
     46 H5          0.0070    1.9350    2.7960 ha        1 GR6      0.175000
     47 H6         -0.2080    3.2520    0.7220 ha        1 GR6      0.185000
     48 H11         2.2240   -3.7550    5.5870 h1        1 GR6      0.059700
     49 H11A        3.0740   -2.1690    5.3450 h1        1 GR6      0.059700
     50 H12         3.2350   -4.6950    3.7910 hc        1 GR6      0.047700
     51 H12A        2.8490   -3.3250    2.6830 hc        1 GR6      0.047700
     52 H13         4.7250   -1.9840    3.6390 hc        1 GR6      0.056700
     53 H13A        5.1330   -3.3370    4.7690 hc        1 GR6      0.056700
     54 H14         5.6640   -4.8480    2.9210 hc        1 GR6      0.063200
     55 H14A        6.6120   -3.3180    2.7820 hc        1 GR6      0.063200
     56 H15        -0.5110   -2.4850    3.2610 h1        1 GR6      0.078700
     57 H15A        0.7190   -3.8320    3.0820 h1        1 GR6      0.078700
     58 H16         0.0820   -4.3990    5.6280 h1        1 GR6      0.074700
     59 HO17       -1.2680   -2.4590    5.8190 ho        1 GR6      0.445000
     60 H18        -0.4600   -5.8860    3.7310 hx        1 GR6      0.123700
     61 HN19       -2.8060   -6.5410    4.5320 hn        1 GR6      0.490800
     62 H23        -0.6620   -8.9860    7.2150 h1        1 GR6      0.102700
     63 H24        -1.4520   -6.5730    8.8800 h1        1 GR6      0.070200
     64 H24A        0.0880   -7.5750    9.0010 h1        1 GR6      0.070200
     65 H26        -2.2690  -10.1120   10.4530 h2        1 GR6      0.131700
     66 H28        -5.5850   -8.8560    9.4690 h1        1 GR6      0.063200
     67 H28A       -4.6870   -7.3290    8.9950 h1        1 GR6      0.063200
     68 H29        -4.1290   -8.5200    7.0130 hc        1 GR6      0.066700
     69 H29A       -4.5500  -10.1090    7.7530 hc        1 GR6      0.066700
     70 H30        -2.2730  -10.4700    8.0030 hc        1 GR6      0.105700
     71 H31        -1.4210   -4.2900    2.1450 hc        1 GR6      0.092200
     72 H31A       -2.8070   -3.8880    3.2450 hc        1 GR6      0.092200
     73 H34        -4.9830   -8.6720    0.6230 ha        1 GR6      0.165000
     74 H35        -2.5440   -8.4460    0.1300 ha        1 GR6      0.161000
     75 H36        -1.2200   -6.6220    1.1880 ha        1 GR6      0.136500
     76 H39         0.8830    4.6390   -2.4730 h1        1 GR6      0.081700
     77 H39A        0.5320    4.9590   -0.6890 h1        1 GR6      0.081700
     78 H39B       -0.3340    3.5850   -1.5700 h1        1 GR6      0.081700
     79 H41         5.6350    0.9430    0.5530 h1        1 GR6      0.071700
     80 H41A        4.5450   -0.1470   -0.4650 h1        1 GR6      0.071700
     81 H42         6.8280   -1.1310    0.4820 hc        1 GR6      0.088700
     82 H42A        5.9820   -1.1670    2.0870 hc        1 GR6      0.088700
     83 H43         4.7860   -2.4820   -0.4670 ha        1 GR6      0.126000
     84 H44         4.5820   -4.4690    0.8910 ha        1 GR6      0.125000
     85 H32        -4.7800   -5.2310    3.2290 ha        1 GR6      0.136500
     86 H101        0.8300   -1.7930    5.1920 hn        1 GR6      0.369800
     87 H192       -2.6530   -5.3060    5.6570 hn        1 GR6      0.490800
     88 H33        -6.0950   -7.0650    2.1800 ha        1 GR6      0.161000
@<TRIPOS>BOND
     1    1    2 ar  
     2    1    6 ar  
     3    1   38 1   
     4    2    3 ar  
     5    2   45 1   
     6    3    4 ar  
     7    3   40 1   
     8    4    5 ar  
     9    4    7 1   
    10    5    6 ar  
    11    5   46 1   
    12    6   47 1   
    13    7    8 1   
    14    7    9 1   
    15   10   11 1   
    16   10   15 1   
    17   10   86 1   
    18   11   12 1   
    19   11   48 1   
    20   11   49 1   
    21   12   13 1   
    22   12   50 1   
    23   12   51 1   
    24   13   14 1   
    25   13   52 1   
    26   13   53 1   
    27   14   44 1   
    28   14   54 1   
    29   14   55 1   
    30   15   16 1   
    31   15   56 1   
    32   15   57 1   
    33   16   17 1   
    34   16   18 1   
    35   16   58 1   
    36   17   59 1   
    37   18   19 1   
    38   18   31 1   
    39   18   60 1   
    40   19   20 1   
    41   19   61 1   
    42   19   87 1   
    43   20   21 2   
    44   20   22 1   
    45   22   23 1   
    46   23   24 1   
    47   23   30 1   
    48   23   62 1   
    49   24   25 1   
    50   24   63 1   
    51   24   64 1   
    52   25   26 1   
    53   26   27 1   
    54   26   30 1   
    55   26   65 1   
    56   27   28 1   
    57   28   29 1   
    58   28   66 1   
    59   28   67 1   
    60   29   30 1   
    61   29   68 1   
    62   29   69 1   
    63   30   70 1   
    64   31   37 1   
    65   31   71 1   
    66   31   72 1   
    67   32   33 ar  
    68   32   37 ar  
    69   32   85 1   
    70   33   34 ar  
    71   33   88 1   
    72   34   35 ar  
    73   34   73 1   
    74   35   36 ar  
    75   35   74 1   
    76   36   37 ar  
    77   36   75 1   
    78   38   39 1   
    79   39   76 1   
    80   39   77 1   
    81   39   78 1   
    82   40   41 1   
    83   41   42 1   
    84   41   79 1   
    85   41   80 1   
    86   42   43 1   
    87   42   81 1   
    88   42   82 1   
    89   43   44 2   
    90   43   83 1   
    91   44   84 1   
@<TRIPOS>SUBSTRUCTURE
     1 GR6         1 TEMP              0 ****  ****    0 ROOT
