@<TRIPOS>MOLECULE
GR6
   86    83     1     0     0
SMALL
bcc


@<TRIPOS>ATOM
      1 C1         -3.5130    3.3480   -3.1410 c1        1 GR6      0.179000
      2 C2         -2.1250    3.3840   -3.1160 c2        1 GR6     -0.273000
      3 C3         -1.4370    3.3070   -1.8790 c1        1 GR6      0.239000
      4 C4         -2.1450    3.1970   -0.7050 c1        1 GR6     -0.896000
      5 C5         -3.5480    3.1600   -0.7340 c1        1 GR6      0.041000
      6 C6         -4.2260    3.2360   -1.9530 c1        1 GR6     -0.265000
      7 S7         -1.2670    3.4050    0.9190 s4        1 GR6      2.077800
      8 O8         -0.4820    4.5860    0.9930 o         1 GR6     -0.552400
      9 O9         -2.0950    3.2730    2.0130 o         1 GR6     -0.552400
     10 N10        -0.3610    2.0100    0.5790 n2        1 GR6     -0.827000
     11 C11         0.7620    1.9030    1.5590 c3        1 GR6     -0.013000
     12 C12         2.1380    1.6120    0.7730 c3        1 GR6     -0.177000
     13 C13         2.6520    2.9660    0.0510 c3        1 GR6     -0.164000
     14 C14         2.6900    2.7500   -1.4960 c3        1 GR6     -0.130000
     15 C15        -1.0410    0.7830    0.1040 c3        1 GR6     -0.053000
     16 C16        -1.1920   -0.1930    1.2550 c3        1 GR6      0.007000
     17 O17        -2.4220    0.0390    1.9110 oh        1 GR6     -0.357000
     18 C18        -1.1640   -1.6160    0.7190 c3        1 GR6      0.031000
     19 N19        -0.3770   -2.4510    1.6030 n         1 GR6     -0.332000
     20 C20         0.8950   -2.9430    1.1750 c2        1 GR6      0.388000
     21 O21         1.3080   -2.6540    0.1040 o         1 GR6     -0.398000
     22 O22         1.6060   -3.8300    1.9760 os        1 GR6     -0.274000
     23 C23         3.0710   -3.6410    1.9190 c3        1 GR6      0.020000
     24 C24         3.3820   -2.5130    2.3920 c3        1 GR6     -0.031000
     25 O25         4.7370   -2.7380    3.0910 os        1 GR6     -0.275000
     26 C26         4.9120   -4.2760    3.1590 c3        1 GR6      0.138000
     27 O27         5.2360   -4.7580    4.6470 os        1 GR6     -0.276000
     28 C28         4.1150   -4.7200    5.2850 c3        1 GR6     -0.025000
     29 C29         3.0630   -4.9140    4.2280 c3        1 GR6     -0.182000
     30 C30         3.8110   -4.7440    2.8660 c3        1 GR6     -0.169000
     31 C31        -2.5840   -2.1500    0.6430 c3        1 GR6     -0.141000
     32 C32        -3.5530   -4.2660    0.2180 c1        1 GR6     -0.134000
     33 C33        -4.0800   -5.3160   -0.5520 c1        1 GR6     -0.126250
     34 C34        -3.6920   -5.4670   -1.8670 c1        1 GR6     -0.126250
     35 C35        -2.7740   -4.5760   -2.4300 c1        1 GR6     -0.126250
     36 C36        -2.2460   -3.5240   -1.6560 c1        1 GR6     -0.126250
     37 C37        -2.6330   -3.3740   -0.3470 c1        1 GR6     -0.085000
     38 O38        -4.1720    3.2970   -4.3390 o         1 GR6     -0.204000
     39 C39        -4.8340    4.5080   -4.6840 c3        1 GR6     -0.079000
     40 O40         0.0410    3.3920   -1.8420 os        1 GR6     -0.211000
     41 C41         0.6370    3.9230   -3.0530 c3        1 GR6     -0.010000
     42 C42         1.3400    5.3380   -2.7350 c3        1 GR6     -0.143000
     43 C43         2.9260    5.1630   -2.7090 c2        1 GR6     -0.174000
     44 C44         3.5780    3.8160   -2.1220 c2        1 GR6     -0.149000
     45 H2         -1.6120    3.4640   -3.9700 ha        1 GR6      0.162000
     46 H5         -4.0530    3.0810    0.1060 ha        1 GR6      0.168000
     47 H6         -5.2430    3.2100   -1.9720 ha        1 GR6      0.148000
     48 H11         0.5740    1.1440    2.2020 h1        1 GR6      0.094500
     49 H11A        0.8470    2.7740    2.0790 h1        1 GR6      0.094500
     50 H12         1.9850    0.9140    0.0900 hc        1 GR6      0.087500
     51 H12A        2.8250    1.2990    1.4150 hc        1 GR6      0.087500
     52 H13         3.5340    3.1830    0.3660 hc        1 GR6      0.097500
     53 H13A        2.0380    3.7050    0.2650 hc        1 GR6      0.097500
     54 H14         3.0690    1.8260   -1.7040 hc        1 GR6      0.084500
     55 H14A        1.7580    2.8220   -1.8700 hc        1 GR6      0.084500
     56 H15        -0.4810    0.3470   -0.6460 h1        1 GR6      0.112000
     57 H15A       -1.8810    1.0020   -0.2240 h1        1 GR6      0.112000
     58 H16        -0.4330   -0.0630    1.9100 h1        1 GR6      0.092000
     59 HO17       -2.2840    0.1170    2.7730 ho        1 GR6      0.244000
     60 H18        -0.7660   -1.6200   -0.1750 h1        1 GR6      0.124000
     61 HN19       -0.6990   -2.6910    2.3690 hn        1 GR6      0.238000
     62 H23         3.3730   -3.7170    1.0380 h1        1 GR6      0.132000
     63 H24         3.4780   -1.8280    1.6430 h1        1 GR6      0.103000
     64 H24A        2.7310   -2.2280    3.0170 h1        1 GR6      0.103000
     65 H26         5.6130   -4.5830    2.5230 h2        1 GR6      0.141000
     66 H28         4.0720   -5.4540    5.9540 h1        1 GR6      0.090500
     67 H28A        3.9990   -3.8230    5.7350 h1        1 GR6      0.090500
     68 H29         2.3910   -4.2620    4.3150 hc        1 GR6      0.104500
     69 H29A        2.6670   -5.8350    4.2960 hc        1 GR6      0.104500
     70 H30         3.9040   -5.5960    2.4060 hc        1 GR6      0.125000
     71 H31        -3.1540   -1.4720    0.3330 hc        1 GR6      0.115000
     72 H31A       -2.8730   -2.4360    1.5260 hc        1 GR6      0.115000
     73 H32        -3.8380   -4.1540    1.1850 ha        1 GR6      0.129000
     74 H33        -4.7630   -5.9760   -0.1330 ha        1 GR6      0.134500
     75 H34        -4.0520   -6.1860   -2.3950 ha        1 GR6      0.134500
     76 H35        -2.5080   -4.6790   -3.3270 ha        1 GR6      0.134500
     77 H36        -1.6230   -2.9200   -2.0370 ha        1 GR6      0.134500
     78 H39        -4.1720    5.2360   -4.7550 h1        1 GR6      0.091000
     79 H39A       -5.5020    4.7350   -3.9790 h1        1 GR6      0.091000
     80 H39B       -5.2830    4.3980   -5.5270 h1        1 GR6      0.091000
     81 H41         1.3060    3.2960   -3.3870 h1        1 GR6      0.089500
     82 H41A       -0.0540    4.0480   -3.7270 h1        1 GR6      0.089500
     83 H42         1.0970    5.9830   -3.4240 hc        1 GR6      0.115000
     84 H42A        1.0470    5.6510   -1.9000 hc        1 GR6      0.115000
     85 H43         3.4940    5.8420   -3.1070 ha        1 GR6      0.117000
     86 H44         4.5370    3.7130   -2.1060 ha        1 GR6      0.116000
@<TRIPOS>BOND
     1    1    2 1   
     2    1    6 1   
     3    2    3 1   
     4    2   45 1   
     5    3   40 1   
     6    4    5 1   
     7    4    7 1   
     8    5   46 1   
     9    6   47 1   
    10    7    8 1   
    11    7    9 1   
    12   10   11 1   
    13   10   15 1   
    14   11   12 1   
    15   11   48 1   
    16   11   49 1   
    17   12   13 1   
    18   12   50 1   
    19   12   51 1   
    20   13   14 1   
    21   13   52 1   
    22   13   53 1   
    23   14   44 1   
    24   14   54 1   
    25   14   55 1   
    26   15   16 1   
    27   15   56 1   
    28   15   57 1   
    29   16   17 1   
    30   16   18 1   
    31   16   58 1   
    32   17   59 1   
    33   18   19 1   
    34   18   31 1   
    35   18   60 1   
    36   19   20 1   
    37   19   61 1   
    38   20   21 1   
    39   20   22 1   
    40   22   23 1   
    41   23   24 1   
    42   23   30 1   
    43   23   62 1   
    44   24   25 1   
    45   24   63 1   
    46   24   64 1   
    47   25   26 1   
    48   26   27 1   
    49   26   30 1   
    50   26   65 1   
    51   27   28 1   
    52   28   29 1   
    53   28   66 1   
    54   28   67 1   
    55   29   30 1   
    56   29   68 1   
    57   29   69 1   
    58   30   70 1   
    59   31   37 1   
    60   31   71 1   
    61   31   72 1   
    62   32   37 1   
    63   32   73 1   
    64   33   34 1   
    65   33   74 1   
    66   34   75 1   
    67   35   36 1   
    68   35   76 1   
    69   36   77 1   
    70   38   39 1   
    71   39   78 1   
    72   39   79 1   
    73   39   80 1   
    74   40   41 1   
    75   41   42 1   
    76   41   81 1   
    77   41   82 1   
    78   42   43 1   
    79   42   83 1   
    80   42   84 1   
    81   43   44 1   
    82   43   85 1   
    83   44   86 1   
@<TRIPOS>SUBSTRUCTURE
     1 GR6         1 TEMP              0 ****  ****    0 ROOT
