@<TRIPOS>MOLECULE
GR6
   86    90     1     0     0
SMALL
bcc


@<TRIPOS>ATOM
      1 C1          5.7050    3.0140    0.8630 ca        1 GR6      0.224100
      2 C2          5.8370    1.8210    0.1350 ca        1 GR6     -0.276000
      3 C3          4.9920    0.7480    0.4430 ca        1 GR6      0.285100
      4 C4          4.0210    0.8320    1.4700 ca        1 GR6     -0.450500
      5 C5          3.9270    2.0510    2.1630 ca        1 GR6      0.038000
      6 C6          4.7430    3.1340    1.8810 ca        1 GR6     -0.266000
      7 S7          3.0290   -0.4400    1.9450 sy        1 GR6      1.522200
      8 O8          3.7680   -1.6240    2.1200 o         1 GR6     -0.661300
      9 O9          2.3060   -0.0050    3.0910 o         1 GR6     -0.661300
     10 N10         1.9570   -0.5980    0.7210 n3        1 GR6     -0.808500
     11 C11         1.9220   -1.8210   -0.0440 c3        1 GR6      0.217800
     12 C12         1.1790   -1.7830   -1.3790 c3        1 GR6     -0.086400
     13 C13         1.2820   -3.1190   -2.0900 c3        1 GR6     -0.072400
     14 C14         2.4590   -3.2080   -3.0460 c3        1 GR6     -0.052200
     15 C15         0.9540    0.4010    0.4990 c3        1 GR6      0.198800
     16 C16        -0.4330    0.0680    1.0970 c3        1 GR6      0.089100
     17 O17        -0.5760    0.5980    2.4020 oh        1 GR6     -0.620800
     18 C18        -1.5620    0.6960    0.2300 c3        1 GR6      0.106700
     19 N19        -2.8760    0.1880    0.5800 n         1 GR6     -0.497900
     20 C20        -3.2200   -1.0820    0.1510 c         1 GR6      0.728100
     21 O21        -2.7030   -1.7530   -0.7590 o         1 GR6     -0.592000
     22 O22        -4.3230   -1.5830    0.8220 os        1 GR6     -0.432900
     23 C23        -4.8940   -2.7890    0.3060 c3        1 GR6      0.130100
     24 C24        -5.5360   -3.5140    1.5060 c3        1 GR6      0.121400
     25 O25        -6.7850   -4.0490    1.0670 os        1 GR6     -0.419600
     26 C26        -7.1910   -3.4450   -0.1540 c3        1 GR6      0.321900
     27 O27        -8.3060   -2.6370    0.1780 os        1 GR6     -0.420600
     28 C28        -7.9590   -1.2480    0.0890 c3        1 GR6      0.125400
     29 C29        -6.6380   -1.1350   -0.6700 c3        1 GR6     -0.104400
     30 C30        -6.0480   -2.5400   -0.6800 c3        1 GR6     -0.131700
     31 C31        -1.5080    2.2290    0.3400 c3        1 GR6     -0.037100
     32 C32        -3.5350    3.6410   -0.0700 ca        1 GR6     -0.124000
     33 C33        -4.4120    4.2950   -0.9340 ca        1 GR6     -0.127500
     34 C34        -4.2210    4.2240   -2.3130 ca        1 GR6     -0.130000
     35 C35        -3.1480    3.4950   -2.8280 ca        1 GR6     -0.127500
     36 C36        -2.2700    2.8420   -1.9660 ca        1 GR6     -0.124000
     37 C37        -2.4580    2.9080   -0.5800 ca        1 GR6     -0.076300
     38 O38         6.5720    4.0130    0.4930 os        1 GR6     -0.320900
     39 C39         6.4850    5.2350    1.2220 c3        1 GR6      0.110700
     40 O40         5.0310   -0.4500   -0.2230 os        1 GR6     -0.325900
     41 C41         6.0560   -0.6020   -1.2220 c3        1 GR6      0.136400
     42 C42         5.9060   -2.0110   -1.7760 c3        1 GR6     -0.052200
     43 C43         4.6570   -2.1560   -2.5590 c2        1 GR6     -0.180200
     44 C44         3.7560   -3.1160   -2.3330 c2        1 GR6     -0.153200
     45 H2          6.5980    1.7600   -0.6530 ha        1 GR6      0.162000
     46 H5          3.1760    2.1390    2.9720 ha        1 GR6      0.169000
     47 H6          4.6370    4.0660    2.4530 ha        1 GR6      0.149000
     48 H11         2.9960   -2.1250   -0.2410 h1        1 GR6      0.054200
     49 H11A        1.4460   -2.6260    0.5920 h1        1 GR6      0.054200
     50 H12         0.0940   -1.5510   -1.1950 hc        1 GR6      0.052200
     51 H12A        1.5950   -0.9730   -2.0320 hc        1 GR6      0.052200
     52 H13         1.3480   -3.9500   -1.3390 hc        1 GR6      0.048700
     53 H13A        0.3410   -3.2810   -2.6820 hc        1 GR6      0.048700
     54 H14         2.4100   -4.1930   -3.5870 hc        1 GR6      0.047200
     55 H14A        2.3730   -2.4000   -3.8210 hc        1 GR6      0.047200
     56 H15         1.3090    1.3650    0.9720 h1        1 GR6      0.058200
     57 H15A        0.8390    0.5860   -0.6070 h1        1 GR6      0.058200
     58 H16        -0.5810   -1.0510    1.1260 h1        1 GR6      0.055700
     59 HO17        0.1710    0.2810    2.9330 ho        1 GR6      0.443000
     60 H18        -1.3670    0.3920   -0.8440 h1        1 GR6      0.084700
     61 HN19       -3.2360    0.4770    1.4640 hn        1 GR6      0.325500
     62 H23        -4.0960   -3.4170   -0.1760 h1        1 GR6      0.092700
     63 H24        -4.9220   -4.3840    1.8460 h1        1 GR6      0.065200
     64 H24A       -5.7220   -2.8080    2.3550 h1        1 GR6      0.065200
     65 H26        -7.5490   -4.2620   -0.8300 h2        1 GR6      0.100700
     66 H28        -8.8080   -0.7510   -0.4430 h1        1 GR6      0.051200
     67 H28A       -7.8740   -0.8480    1.1320 h1        1 GR6      0.051200
     68 H29        -6.8160   -0.7850   -1.7180 hc        1 GR6      0.066200
     69 H29A       -5.9560   -0.4000   -0.1760 hc        1 GR6      0.066200
     70 H30        -5.7350   -2.8350   -1.7110 hc        1 GR6      0.084700
     71 H31        -1.6970    2.5320    1.4050 hc        1 GR6      0.066200
     72 H31A       -0.4590    2.5420    0.0860 hc        1 GR6      0.066200
     73 H33        -5.2570    4.8690   -0.5250 ha        1 GR6      0.131500
     74 H34        -4.9140    4.7400   -2.9940 ha        1 GR6      0.131000
     75 H35        -2.9950    3.4360   -3.9150 ha        1 GR6      0.131500
     76 H36        -1.4250    2.2680   -2.3750 ha        1 GR6      0.130000
     77 H39         7.2800    5.8690    0.7540 h1        1 GR6      0.052367
     78 H39A        5.4780    5.7000    1.0880 h1        1 GR6      0.052367
     79 H39B        6.7000    5.0630    2.3040 h1        1 GR6      0.052367
     80 H41         5.9050    0.1690   -2.0220 h1        1 GR6      0.048200
     81 H41A        7.0590   -0.4700   -0.7400 h1        1 GR6      0.048200
     82 H42         6.7940   -2.2110   -2.4350 hc        1 GR6      0.067700
     83 H42A        5.9330   -2.7450   -0.9260 hc        1 GR6      0.067700
     84 H43         4.4950   -1.3890   -3.3350 ha        1 GR6      0.120000
     85 H44         3.9240   -3.8880   -1.5630 ha        1 GR6      0.128000
     86 H32        -3.6920    3.7000    1.0170 ha        1 GR6      0.130000
@<TRIPOS>BOND
     1    1    2 ar  
     2    1    6 ar  
     3    1   38 1   
     4    2    3 ar  
     5    2   45 1   
     6    3    4 ar  
     7    3   40 1   
     8    4    5 ar  
     9    4    7 1   
    10    5    6 ar  
    11    5   46 1   
    12    6   47 1   
    13    7    8 2   
    14    7    9 2   
    15    7   10 1   
    16   10   11 1   
    17   10   15 1   
    18   11   12 1   
    19   11   48 1   
    20   11   49 1   
    21   12   13 1   
    22   12   50 1   
    23   12   51 1   
    24   13   14 1   
    25   13   52 1   
    26   13   53 1   
    27   14   44 1   
    28   14   54 1   
    29   14   55 1   
    30   15   16 1   
    31   15   56 1   
    32   15   57 1   
    33   16   17 1   
    34   16   18 1   
    35   16   58 1   
    36   17   59 1   
    37   18   19 1   
    38   18   31 1   
    39   18   60 1   
    40   19   20 1   
    41   19   61 1   
    42   20   21 2   
    43   20   22 1   
    44   22   23 1   
    45   23   24 1   
    46   23   30 1   
    47   23   62 1   
    48   24   25 1   
    49   24   63 1   
    50   24   64 1   
    51   25   26 1   
    52   26   27 1   
    53   26   30 1   
    54   26   65 1   
    55   27   28 1   
    56   28   29 1   
    57   28   66 1   
    58   28   67 1   
    59   29   30 1   
    60   29   68 1   
    61   29   69 1   
    62   30   70 1   
    63   31   37 1   
    64   31   71 1   
    65   31   72 1   
    66   32   33 ar  
    67   32   37 ar  
    68   32   86 1   
    69   33   34 ar  
    70   33   73 1   
    71   34   35 ar  
    72   34   74 1   
    73   35   36 ar  
    74   35   75 1   
    75   36   37 ar  
    76   36   76 1   
    77   38   39 1   
    78   39   77 1   
    79   39   78 1   
    80   39   79 1   
    81   40   41 1   
    82   41   42 1   
    83   41   80 1   
    84   41   81 1   
    85   42   43 1   
    86   42   82 1   
    87   42   83 1   
    88   43   44 2   
    89   43   84 1   
    90   44   85 1   
@<TRIPOS>SUBSTRUCTURE
     1 GR6         1 TEMP              0 ****  ****    0 ROOT
