@<TRIPOS>MOLECULE
GR6
   88    91     1     0     0
SMALL
bcc


@<TRIPOS>ATOM
      1 C1          1.7110    2.5710   -0.1450 ca        1 GR6      0.323100
      2 C2          2.8460    1.7720    0.0900 ca        1 GR6     -0.301000
      3 C3          2.9350    1.0340    1.2640 ca        1 GR6      0.358100
      4 C4          1.9230    1.0950    2.2960 ca        1 GR6     -0.714500
      5 C5          0.7620    1.8860    1.9650 ca        1 GR6      0.046000
      6 C6          0.6480    2.5980    0.8120 ca        1 GR6     -0.235000
      7 S7          2.0250    0.4630    3.6790 s4        1 GR6      1.688300
      8 O8          3.1860   -0.0410    4.1510 o         1 GR6     -0.425900
      9 O9          0.9380    0.5710    4.4930 o         1 GR6     -0.425900
     10 N10         1.1870   -2.2510    4.3960 n7        1 GR6     -0.870200
     11 C11         2.4100   -2.9020    4.8570 c3        1 GR6      0.125800
     12 C12         3.2630   -3.5310    3.7520 c3        1 GR6     -0.081400
     13 C13         4.6910   -3.0310    3.8400 c3        1 GR6     -0.078400
     14 C14         5.5950   -3.6790    2.8110 c3        1 GR6     -0.059200
     15 C15         0.2080   -3.1400    3.8080 c3        1 GR6      0.122800
     16 C16        -0.6130   -3.9910    4.8030 c3        1 GR6      0.085100
     17 O17        -1.6900   -3.2540    5.3610 oh        1 GR6     -0.623800
     18 C18        -1.2560   -5.2040    4.0850 c3        1 GR6      0.149500
     19 N19        -2.1190   -5.9880    5.0490 ny        1 GR6     -0.639800
     20 C20        -1.3310   -6.8610    5.9660 c         1 GR6      0.620100
     21 O21        -0.1070   -6.9010    5.9710 o         1 GR6     -0.437000
     22 O22        -2.1580   -7.5800    6.7480 os        1 GR6     -0.393900
     23 C23        -1.5160   -8.4230    7.7610 c3        1 GR6      0.131100
     24 C24        -1.0780   -7.5550    8.9540 c3        1 GR6      0.103400
     25 O25        -1.5550   -8.1750   10.1420 os        1 GR6     -0.387600
     26 C26        -2.5310   -9.1660    9.8430 c3        1 GR6      0.323900
     27 O27        -3.7660   -8.6080   10.2470 os        1 GR6     -0.399600
     28 C28        -4.6360   -8.4290    9.1220 c3        1 GR6      0.122400
     29 C29        -4.0180   -9.1460    7.9210 c3        1 GR6     -0.103400
     30 C30        -2.5650   -9.4020    8.3060 c3        1 GR6     -0.120700
     31 C31        -2.0950   -4.7670    2.8740 c3        1 GR6     -0.052100
     32 C32        -4.2150   -6.0470    2.5140 ca        1 GR6     -0.133000
     33 C33        -4.9260   -7.0860    1.9140 ca        1 GR6     -0.112000
     34 C34        -4.2740   -7.9840    1.0680 ca        1 GR6     -0.092000
     35 C35        -2.9080   -7.8400    0.8190 ca        1 GR6     -0.112000
     36 C36        -2.1940   -6.8020    1.4160 ca        1 GR6     -0.133000
     37 C37        -2.8430   -5.9010    2.2690 ca        1 GR6     -0.174300
     38 O38         1.7150    3.2630   -1.2990 os        1 GR6     -0.268900
     39 C39         0.5920    4.1120   -1.5930 c3        1 GR6      0.098700
     40 O40         3.9540    0.1950    1.5610 os        1 GR6     -0.332900
     41 C41         5.0220    0.0380    0.5850 c3        1 GR6      0.140400
     42 C42         5.8340   -1.1560    1.0550 c3        1 GR6     -0.061200
     43 C43         5.2160   -2.4400    0.6520 c2        1 GR6     -0.191200
     44 C44         5.1100   -3.5300    1.4170 c2        1 GR6     -0.143200
     45 H2          3.6480    1.7570   -0.6670 ha        1 GR6      0.198000
     46 H5         -0.0610    1.9170    2.7080 ha        1 GR6      0.175000
     47 H6         -0.2530    3.2010    0.6110 ha        1 GR6      0.185000
     48 H11         2.1840   -3.6970    5.6260 h1        1 GR6      0.059700
     49 H11A        3.0140   -2.1010    5.3790 h1        1 GR6      0.059700
     50 H12         3.2470   -4.6460    3.8650 hc        1 GR6      0.047700
     51 H12A        2.8630   -3.2990    2.7300 hc        1 GR6      0.047700
     52 H13         5.1020   -3.2450    4.8620 hc        1 GR6      0.056700
     53 H13A        4.6970   -1.9150    3.7060 hc        1 GR6      0.056700
     54 H14         5.6960   -4.7740    3.0480 hc        1 GR6      0.063200
     55 H14A        6.6220   -3.2310    2.9070 hc        1 GR6      0.063200
     56 H15        -0.5210   -2.5040    3.2260 h1        1 GR6      0.078700
     57 H15A        0.7330   -3.8340    3.0920 h1        1 GR6      0.078700
     58 H16         0.0520   -4.3740    5.6330 h1        1 GR6      0.074700
     59 HO17       -1.3310   -2.4530    5.7680 ho        1 GR6      0.445000
     60 H18        -0.4280   -5.8970    3.7470 hx        1 GR6      0.123700
     61 HN19       -2.6690   -5.3250    5.6190 hn        1 GR6      0.490800
     62 H23        -0.6550   -8.9500    7.2710 h1        1 GR6      0.102700
     63 H24        -1.5140   -6.5250    8.8830 h1        1 GR6      0.070200
     64 H24A        0.0370   -7.5030    9.0500 h1        1 GR6      0.070200
     65 H26        -2.3110  -10.0530   10.4920 h2        1 GR6      0.131700
     66 H28        -4.7400   -7.3290    8.9440 h1        1 GR6      0.063200
     67 H28A       -5.6250   -8.8620    9.4210 h1        1 GR6      0.063200
     68 H29        -4.1240   -8.5400    6.9920 hc        1 GR6      0.066700
     69 H29A       -4.5350  -10.1240    7.7460 hc        1 GR6      0.066700
     70 H30        -2.2590  -10.4470    8.0480 hc        1 GR6      0.105700
     71 H31        -1.3800   -4.3400    2.1190 hc        1 GR6      0.092200
     72 H31A       -2.7940   -3.9430    3.1830 hc        1 GR6      0.092200
     73 H34        -4.8400   -8.7990    0.5870 ha        1 GR6      0.165000
     74 H35        -2.3950   -8.5410    0.1410 ha        1 GR6      0.161000
     75 H36        -1.1210   -6.6810    1.2000 ha        1 GR6      0.136500
     76 H39         0.4900    4.9000   -0.8090 h1        1 GR6      0.081700
     77 H39A       -0.3360    3.5000   -1.6880 h1        1 GR6      0.081700
     78 H39B        0.8840    4.5610   -2.5800 h1        1 GR6      0.081700
     79 H41         4.5750   -0.1380   -0.4270 h1        1 GR6      0.071700
     80 H41A        5.6270    0.9830    0.5970 h1        1 GR6      0.071700
     81 H42         5.9740   -1.1000    2.1680 hc        1 GR6      0.088700
     82 H42A        6.8520   -1.0730    0.5800 hc        1 GR6      0.088700
     83 H43         4.8530   -2.4700   -0.3910 ha        1 GR6      0.126000
     84 H44         4.6500   -4.4400    0.9910 ha        1 GR6      0.125000
     85 H32        -4.7450   -5.3180    3.1460 ha        1 GR6      0.136500
     86 H101        0.7680   -1.7630    5.1740 hn        1 GR6      0.369800
     87 H192       -2.7790   -6.5770    4.5090 hn        1 GR6      0.490800
     88 H33        -6.0080   -7.1880    2.0970 ha        1 GR6      0.161000
@<TRIPOS>BOND
     1    1    2 ar  
     2    1    6 ar  
     3    1   38 1   
     4    2    3 ar  
     5    2   45 1   
     6    3    4 ar  
     7    3   40 1   
     8    4    5 ar  
     9    4    7 1   
    10    5    6 ar  
    11    5   46 1   
    12    6   47 1   
    13    7    8 1   
    14    7    9 1   
    15   10   11 1   
    16   10   15 1   
    17   10   86 1   
    18   11   12 1   
    19   11   48 1   
    20   11   49 1   
    21   12   13 1   
    22   12   50 1   
    23   12   51 1   
    24   13   14 1   
    25   13   52 1   
    26   13   53 1   
    27   14   44 1   
    28   14   54 1   
    29   14   55 1   
    30   15   16 1   
    31   15   56 1   
    32   15   57 1   
    33   16   17 1   
    34   16   18 1   
    35   16   58 1   
    36   17   59 1   
    37   18   19 1   
    38   18   31 1   
    39   18   60 1   
    40   19   20 1   
    41   19   61 1   
    42   19   87 1   
    43   20   21 2   
    44   20   22 1   
    45   22   23 1   
    46   23   24 1   
    47   23   30 1   
    48   23   62 1   
    49   24   25 1   
    50   24   63 1   
    51   24   64 1   
    52   25   26 1   
    53   26   27 1   
    54   26   30 1   
    55   26   65 1   
    56   27   28 1   
    57   28   29 1   
    58   28   66 1   
    59   28   67 1   
    60   29   30 1   
    61   29   68 1   
    62   29   69 1   
    63   30   70 1   
    64   31   37 1   
    65   31   71 1   
    66   31   72 1   
    67   32   33 ar  
    68   32   37 ar  
    69   32   85 1   
    70   33   34 ar  
    71   33   88 1   
    72   34   35 ar  
    73   34   73 1   
    74   35   36 ar  
    75   35   74 1   
    76   36   37 ar  
    77   36   75 1   
    78   38   39 1   
    79   39   76 1   
    80   39   77 1   
    81   39   78 1   
    82   40   41 1   
    83   41   42 1   
    84   41   79 1   
    85   41   80 1   
    86   42   43 1   
    87   42   81 1   
    88   42   82 1   
    89   43   44 2   
    90   43   83 1   
    91   44   84 1   
@<TRIPOS>SUBSTRUCTURE
     1 GR6         1 TEMP              0 ****  ****    0 ROOT
