@<TRIPOS>MOLECULE
GR9
   57    60     1     0     0
SMALL
bcc


@<TRIPOS>ATOM
      1 C1          0.3520   -0.0060   -0.0590 c3        1 GR9      0.162300
      2 N2          1.7850   -0.1210    0.1500 n3        1 GR9     -0.730600
      3 C3          2.5380    0.9410   -0.4740 c3        1 GR9      0.159100
      4 C4          2.1380   -0.3300    1.5440 c3        1 GR9      0.162300
      5 C5          1.3480   -1.4880    2.1880 c3        1 GR9      0.218300
      6 N6         -0.0780   -1.4000    1.9690 n3        1 GR9     -0.828500
      7 S7         -1.1580   -1.6340    3.1250 sy        1 GR9      1.489200
      8 O8         -2.4050   -2.0080    2.6000 o         1 GR9     -0.622800
      9 O9         -0.6170   -2.3550    4.2030 o         1 GR9     -0.622800
     10 C10        -1.4250   -0.0190    3.7720 ca        1 GR9     -0.240500
     11 C11        -2.3090    0.8620    3.1450 ca        1 GR9     -0.030500
     12 C12        -2.6280    2.0870    3.7240 ca        1 GR9     -0.094500
     13 C13        -2.0570    2.4470    4.9590 cp        1 GR9     -0.199500
     14 C14        -1.1390    1.5790    5.5750 ca        1 GR9     -0.094500
     15 C15        -0.8360    0.3550    4.9810 ca        1 GR9     -0.030500
     16 C16        -2.4550    3.6930    5.6010 cp        1 GR9      0.490500
     17 C17        -3.7960    4.2150    5.3720 ca        1 GR9      0.385900
     18 N18        -4.2310    5.3360    5.9330 nb        1 GR9     -0.597000
     19 C19        -3.3650    6.0100    6.7630 ca        1 GR9      0.379900
     20 C20        -2.0540    5.5150    7.0070 ca        1 GR9      0.269500
     21 N21        -1.6190    4.3660    6.4220 nb        1 GR9     -0.666000
     22 C22        -1.1090    6.2340    7.9160 c         1 GR9      0.449600
     23 O23        -1.4060    7.2510    8.5320 o         1 GR9     -0.429100
     24 N24         0.2690    5.6560    8.0670 n4        1 GR9     -0.488200
     25 C25         1.1740    6.4590    8.8850 ca        1 GR9     -0.221700
     26 C26         1.3190    6.2000   10.2660 ca        1 GR9     -0.051000
     27 C27         2.2270    6.9690   10.9850 ca        1 GR9     -0.209300
     28 C28         2.9540    7.9780   10.3130 ca        1 GR9      0.483200
     29 N29         2.8160    8.2310    8.9960 nb        1 GR9     -0.612000
     30 C30         1.9480    7.4920    8.2910 ca        1 GR9      0.457200
     31 N31        -3.8860    7.2470    7.3650 n4        1 GR9     -0.814300
     32 C6         -0.4370   -1.1630    0.5880 c3        1 GR9      0.218300
     33 H11C        0.1610   -0.0450   -1.1690 h1        1 GR9      0.038700
     34 H12C       -0.0520    0.9750    0.3280 h1        1 GR9      0.038700
     35 H61C       -0.2460   -2.1060   -0.0030 h1        1 GR9      0.070950
     36 H62C       -1.5380   -0.9250    0.5250 h1        1 GR9      0.070950
     37 H31C        2.3280    1.9530   -0.0310 h1        1 GR9      0.040367
     38 H32C        2.2850    0.9670   -1.5670 h1        1 GR9      0.040367
     39 H33C        3.6320    0.7200   -0.3630 h1        1 GR9      0.040367
     40 H41C        3.2310   -0.6000    1.5860 h1        1 GR9      0.038700
     41 H42C        1.9880    0.6050    2.1610 h1        1 GR9      0.038700
     42 H51C        1.5550   -1.4910    3.2960 h1        1 GR9      0.070950
     43 H52C        1.7210   -2.4630    1.7570 h1        1 GR9      0.070950
     44 H11        -2.7870    0.5680    2.1910 ha        1 GR9      0.183000
     45 H15        -0.1430   -0.3450    5.4870 ha        1 GR9      0.183000
     46 H12        -3.3160    2.7670    3.1980 ha        1 GR9      0.141000
     47 H14        -0.6800    1.8360    6.5410 ha        1 GR9      0.141000
     48 H17        -4.5190    3.6720    4.7210 h4        1 GR9      0.110100
     49 H311       -3.6990    7.2430    8.3790 hn        1 GR9      0.491133
     50 H312       -3.4110    8.0570    6.9430 hn        1 GR9      0.491133
     51 H24         0.6830    5.5460    7.1260 hn        1 GR9      0.489300
     52 H26         0.7450    5.4080   10.7740 ha        1 GR9      0.164000
     53 H30         1.8840    7.7380    7.2130 h4        1 GR9      0.046100
     54 H27         2.3830    6.7980   12.0640 ha        1 GR9      0.197000
     55 H28         3.6870    8.6160   10.8520 h4        1 GR9      0.082100
     56 H242        0.1790    4.7160    8.4890 hn        1 GR9      0.489300
     57 H313       -4.9050    7.3330    7.2040 hn        1 GR9      0.491133
@<TRIPOS>BOND
     1    1    2 1   
     2    1   32 1   
     3    1   33 1   
     4    1   34 1   
     5    2    3 1   
     6    2    4 1   
     7    3   37 1   
     8    3   38 1   
     9    3   39 1   
    10    4    5 1   
    11    4   40 1   
    12    4   41 1   
    13    5    6 1   
    14    5   42 1   
    15    5   43 1   
    16    6    7 1   
    17    6   32 1   
    18    7    8 2   
    19    7    9 2   
    20    7   10 1   
    21   10   11 ar  
    22   10   15 ar  
    23   11   12 ar  
    24   11   44 1   
    25   12   13 ar  
    26   12   46 1   
    27   13   14 ar  
    28   13   16 1   
    29   14   15 ar  
    30   14   47 1   
    31   15   45 1   
    32   16   17 ar  
    33   16   21 ar  
    34   17   18 ar  
    35   17   48 1   
    36   18   19 ar  
    37   19   20 ar  
    38   19   31 1   
    39   20   21 ar  
    40   20   22 1   
    41   22   23 2   
    42   22   24 1   
    43   24   25 1   
    44   24   51 1   
    45   24   56 1   
    46   25   26 ar  
    47   25   30 ar  
    48   26   27 ar  
    49   26   52 1   
    50   27   28 ar  
    51   27   54 1   
    52   28   29 ar  
    53   28   55 1   
    54   29   30 ar  
    55   30   53 1   
    56   31   49 1   
    57   31   50 1   
    58   31   57 1   
    59   32   35 1   
    60   32   36 1   
@<TRIPOS>SUBSTRUCTURE
     1 GR9         1 TEMP              0 ****  ****    0 ROOT
