@<TRIPOS>MOLECULE
GR9
   55    51     1     0     0
SMALL
bcc


@<TRIPOS>ATOM
      1 C1          2.6020    4.4630   -3.1930 c3        1 GR9     -0.077000
      2 N2          1.6850    4.8120   -3.9420 n3        1 GR9     -0.253000
      3 C3          1.6490    6.2240   -4.0120 c3        1 GR9     -0.122000
      4 C4          0.4690    4.3410   -3.9710 c3        1 GR9     -0.077000
      5 C5          0.4570    2.8850   -3.7800 c3        1 GR9     -0.036000
      6 N6          1.8590    2.2210   -4.0780 n3        1 GR9     -0.835000
      7 S7          2.0050    0.5590   -4.2190 s4        1 GR9      2.064800
      8 O8          1.2720    0.0450   -5.4460 o         1 GR9     -0.537400
      9 O9          3.3580    0.1820   -4.5250 o         1 GR9     -0.537400
     10 C10         1.4200   -0.2610   -2.7050 c1        1 GR9     -0.816000
     11 C11         2.2850   -0.4590   -1.6750 c2        1 GR9     -0.022000
     12 C12         1.9050   -1.2540   -0.5780 c1        1 GR9     -0.129000
     13 C13         0.6360   -1.8420   -0.5440 c1        1 GR9      0.043000
     14 C14        -0.2390   -1.6370   -1.5940 c1        1 GR9     -0.153000
     15 C15         0.1420   -0.8500   -2.6780 c1        1 GR9     -0.018000
     16 C16         0.3260   -2.9380    0.5090 c2        1 GR9     -0.116000
     17 C17         0.8370   -4.2230    0.3500 c2        1 GR9     -0.017000
     18 N18         0.5810   -5.1210    1.2220 n1        1 GR9     -0.186000
     19 C19        -0.1890   -4.8200    2.3030 c1        1 GR9      0.164000
     20 C20        -0.6870   -3.5600    2.4560 c1        1 GR9     -0.197000
     21 N21        -0.4280   -2.6460    1.5690 n1        1 GR9     -0.051000
     22 C22        -1.4790   -3.2050    3.7050 c2        1 GR9      0.384000
     23 O23        -1.6690   -4.0720    4.5930 o         1 GR9     -0.374000
     24 N24        -2.0600   -1.8900    3.8470 n         1 GR9     -0.292000
     25 C25        -2.8570   -1.5730    5.0130 c2        1 GR9      0.018000
     26 C26        -4.0400   -0.9690    4.8660 c2        1 GR9     -0.145000
     27 C27        -4.7690   -0.6090    5.9690 c1        1 GR9     -0.155000
     28 C28        -4.2640   -0.8800    7.2810 c1        1 GR9     -0.096000
     29 N29        -3.0960   -1.4750    7.4280 n1        1 GR9     -0.117000
     30 C30        -2.3570   -1.8400    6.3050 c1        1 GR9     -0.087000
     31 N31        -0.4480   -5.8130    3.2870 n3        1 GR9     -0.328000
     32 C6          2.6100    2.9580   -2.9940 c3        1 GR9     -0.036000
     33 H11C        3.4330    4.7300   -3.5710 h1        1 GR9      0.094250
     34 H12C        2.4890    4.9010   -2.3250 h1        1 GR9      0.094250
     35 H61C        3.5200    2.6550   -2.9870 h1        1 GR9      0.093000
     36 H62C        2.1690    2.7340   -2.0600 h1        1 GR9      0.093000
     37 H31C        2.5820    6.5790   -4.2340 h1        1 GR9      0.072667
     38 H32C        1.0150    6.5050   -4.7170 h1        1 GR9      0.072667
     39 H33C        1.3390    6.6170   -3.0820 h1        1 GR9      0.072667
     40 H41C       -0.0470    4.7600   -3.2670 h1        1 GR9      0.094250
     41 H42C        0.0750    4.5450   -4.8080 h1        1 GR9      0.094250
     42 H51C       -0.2190    2.4890   -4.3830 h1        1 GR9      0.093000
     43 H52C        0.2320    2.7110   -2.9470 h1        1 GR9      0.093000
     44 H11         3.1290   -0.0710   -1.6970 ha        1 GR9      0.154000
     45 H15        -0.4850   -0.7020   -3.4270 ha        1 GR9      0.156000
     46 H12         2.5340   -1.3960    0.1670 ha        1 GR9      0.155000
     47 H14        -1.1820   -2.0720   -1.5760 ha        1 GR9      0.141000
     48 H17         1.4180   -4.4510   -0.4670 h4        1 GR9      0.180000
     49 H311       -0.1970   -6.6430    3.1450 hn        1 GR9      0.247500
     50 H312       -0.9870   -5.6160    4.0040 hn        1 GR9      0.247500
     51 H24        -1.9250   -1.2310    3.1640 hn        1 GR9      0.248000
     52 H26        -4.3940   -0.7770    3.9510 ha        1 GR9      0.137000
     53 H30        -1.5610   -2.2450    6.4020 ha        1 GR9      0.197000
     54 H27        -5.6530   -0.1580    5.8560 ha        1 GR9      0.144000
     55 H28        -4.7990   -0.6150    8.0890 ha        1 GR9      0.162000
@<TRIPOS>BOND
     1    1    2 1   
     2    1   32 1   
     3    1   33 1   
     4    1   34 1   
     5    2    3 1   
     6    2    4 1   
     7    3   37 1   
     8    3   38 1   
     9    3   39 1   
    10    4    5 1   
    11    4   40 1   
    12    4   41 1   
    13    5    6 1   
    14    5   42 1   
    15    5   43 1   
    16    6    7 1   
    17    6   32 1   
    18    7    8 1   
    19    7    9 1   
    20   10   11 1   
    21   10   15 1   
    22   11   12 1   
    23   11   44 1   
    24   12   46 1   
    25   13   14 1   
    26   13   16 1   
    27   14   47 1   
    28   15   45 1   
    29   16   17 1   
    30   16   21 1   
    31   17   18 1   
    32   17   48 1   
    33   19   20 1   
    34   19   31 1   
    35   20   22 1   
    36   22   23 1   
    37   22   24 1   
    38   24   25 1   
    39   24   51 1   
    40   25   26 1   
    41   25   30 1   
    42   26   27 1   
    43   26   52 1   
    44   27   54 1   
    45   28   29 1   
    46   28   55 1   
    47   30   53 1   
    48   31   49 1   
    49   31   50 1   
    50   32   35 1   
    51   32   36 1   
@<TRIPOS>SUBSTRUCTURE
     1 GR9         1 TEMP              0 ****  ****    0 ROOT
