@<TRIPOS>MOLECULE
GR9
   55    58     1     0     0
SMALL
bcc


@<TRIPOS>ATOM
      1 C1          0.7860    0.5570    0.4570 c3        1 GR9      0.152800
      2 N2          2.1330    0.3620    0.9740 n3        1 GR9     -0.728600
      3 C3          2.9440    1.5530    0.8650 c3        1 GR9      0.157100
      4 C4          2.1460   -0.2000    2.3170 c3        1 GR9      0.152800
      5 C5          1.2520   -1.4510    2.4540 c3        1 GR9      0.226800
      6 N6         -0.0750   -1.2690    1.9250 n3        1 GR9     -0.814500
      7 S7         -1.4190   -1.6300    2.7610 sy        1 GR9      1.506200
      8 O8         -2.4820   -1.8830    1.8660 o         1 GR9     -0.649300
      9 O9         -1.1300   -2.6270    3.7190 o         1 GR9     -0.649300
     10 C10        -1.7720   -0.1950    3.5920 ca        1 GR9     -0.371500
     11 C11        -2.6360    0.7570    3.0390 ca        1 GR9     -0.019500
     12 C12        -2.9560    1.9210    3.7280 ca        1 GR9     -0.141000
     13 C13        -2.4130    2.1550    5.0000 cp        1 GR9     -0.066500
     14 C14        -1.5480    1.2080    5.5650 ca        1 GR9     -0.141000
     15 C15        -1.2380    0.0470    4.8620 ca        1 GR9     -0.019500
     16 C16        -2.7690    3.3780    5.7290 cp        1 GR9      0.256500
     17 C17        -4.1160    3.8630    5.6750 ca        1 GR9      0.382900
     18 N18        -4.5230    4.9610    6.3040 nb        1 GR9     -0.711000
     19 C19        -3.5760    5.6610    7.0410 ca        1 GR9      0.617900
     20 C20        -2.2160    5.1550    7.1060 ca        1 GR9      0.155500
     21 N21        -1.8400    4.0360    6.4540 nb        1 GR9     -0.577000
     22 C22        -1.1970    5.8630    7.9610 c         1 GR9      0.601600
     23 O23        -1.5310    6.3570    9.0570 o         1 GR9     -0.617100
     24 N24         0.0840    5.9530    7.4490 ns        1 GR9     -0.438100
     25 C25         1.2040    6.5060    8.0840 ca        1 GR9     -0.052700
     26 C26         1.1720    7.1570    9.3360 ca        1 GR9     -0.121000
     27 C27         2.3560    7.6820    9.8530 ca        1 GR9     -0.219300
     28 C28         3.5460    7.5500    9.1200 ca        1 GR9      0.365200
     29 N29         3.6050    6.9320    7.9240 nb        1 GR9     -0.642000
     30 C30         2.4710    6.4250    7.4230 ca        1 GR9      0.351200
     31 N31        -3.9390    6.8450    7.6280 nv        1 GR9     -0.931500
     32 C6         -0.1010   -0.6980    0.6030 c3        1 GR9      0.226800
     33 H11C        0.2700    1.4290    0.9540 h1        1 GR9      0.038450
     34 H12C        0.8730    0.7880   -0.6410 h1        1 GR9      0.038450
     35 H61C        0.2500   -1.4750   -0.1370 h1        1 GR9      0.060700
     36 H62C       -1.1610   -0.4160    0.3410 h1        1 GR9      0.060700
     37 H31C        3.9890    1.3080    1.1920 h1        1 GR9      0.034700
     38 H32C        2.9670    1.8760   -0.2080 h1        1 GR9      0.034700
     39 H33C        2.5660    2.4090    1.4890 h1        1 GR9      0.034700
     40 H41C        3.2040   -0.5090    2.5470 h1        1 GR9      0.038450
     41 H42C        1.8330    0.5610    3.0910 h1        1 GR9      0.038450
     42 H51C        1.7470   -2.3080    1.9130 h1        1 GR9      0.060700
     43 H52C        1.1830   -1.7190    3.5470 h1        1 GR9      0.060700
     44 H11        -3.0810    0.5680    2.0460 ha        1 GR9      0.154500
     45 H15        -0.5740   -0.7080    5.3210 ha        1 GR9      0.154500
     46 H12        -3.6310    2.6600    3.2710 ha        1 GR9      0.148000
     47 H14        -1.1160    1.3770    6.5630 ha        1 GR9      0.148000
     48 H17        -4.8890    3.3140    5.1040 h4        1 GR9      0.043100
     49 H311       -3.3520    7.2090    8.3460 hn        1 GR9      0.451300
     50 H312       -4.8990    7.0990    7.6460 hn        1 GR9      0.451300
     51 H24         0.2740    5.4830    6.5880 hn        1 GR9      0.336500
     52 H26         0.2340    7.2540    9.9060 ha        1 GR9      0.177000
     53 H30         2.5710    5.9270    6.4410 h4        1 GR9      0.020100
     54 H27         2.3550    8.1930   10.8260 ha        1 GR9      0.147000
     55 H28         4.5000    7.9540    9.5000 h4        1 GR9      0.025100
@<TRIPOS>BOND
     1    1    2 1   
     2    1   32 1   
     3    1   33 1   
     4    1   34 1   
     5    2    3 1   
     6    2    4 1   
     7    3   37 1   
     8    3   38 1   
     9    3   39 1   
    10    4    5 1   
    11    4   40 1   
    12    4   41 1   
    13    5    6 1   
    14    5   42 1   
    15    5   43 1   
    16    6    7 1   
    17    6   32 1   
    18    7    8 2   
    19    7    9 2   
    20    7   10 1   
    21   10   11 ar  
    22   10   15 ar  
    23   11   12 ar  
    24   11   44 1   
    25   12   13 ar  
    26   12   46 1   
    27   13   14 ar  
    28   13   16 1   
    29   14   15 ar  
    30   14   47 1   
    31   15   45 1   
    32   16   17 ar  
    33   16   21 ar  
    34   17   18 ar  
    35   17   48 1   
    36   18   19 ar  
    37   19   20 ar  
    38   19   31 1   
    39   20   21 ar  
    40   20   22 1   
    41   22   23 2   
    42   22   24 1   
    43   24   25 1   
    44   24   51 1   
    45   25   26 ar  
    46   25   30 ar  
    47   26   27 ar  
    48   26   52 1   
    49   27   28 ar  
    50   27   54 1   
    51   28   29 ar  
    52   28   55 1   
    53   29   30 ar  
    54   30   53 1   
    55   31   49 1   
    56   31   50 1   
    57   32   35 1   
    58   32   36 1   
@<TRIPOS>SUBSTRUCTURE
     1 GR9         1 TEMP              0 ****  ****    0 ROOT
