@<TRIPOS>MOLECULE
GR9
   55    58     1     0     0
SMALL
bcc


@<TRIPOS>ATOM
      1 C1          0.7780    0.5620    0.4560 c3        1 GR9      0.152800
      2 N2          2.1300    0.3790    0.9640 n3        1 GR9     -0.728600
      3 C3          2.9300    1.5780    0.8490 c3        1 GR9      0.157100
      4 C4          2.1580   -0.1810    2.3070 c3        1 GR9      0.152800
      5 C5          1.2760   -1.4400    2.4500 c3        1 GR9      0.226800
      6 N6         -0.0560   -1.2710    1.9300 n3        1 GR9     -0.814500
      7 S7         -1.3910   -1.6440    2.7760 sy        1 GR9      1.506200
      8 O8         -2.4580   -1.9090    1.8880 o         1 GR9     -0.649300
      9 O9         -1.0860   -2.6370    3.7320 o         1 GR9     -0.649300
     10 C10        -1.7520   -0.2120    3.6080 ca        1 GR9     -0.371500
     11 C11        -2.6300    0.7300    3.0600 ca        1 GR9     -0.019500
     12 C12        -2.9570    1.8920    3.7510 ca        1 GR9     -0.141000
     13 C13        -2.4060    2.1330    5.0180 cp        1 GR9     -0.066500
     14 C14        -1.5270    1.1960    5.5770 ca        1 GR9     -0.141000
     15 C15        -1.2100    0.0370    4.8730 ca        1 GR9     -0.019500
     16 C16        -2.7690    3.3540    5.7480 cp        1 GR9      0.256500
     17 C17        -4.1220    3.8230    5.7050 ca        1 GR9      0.382900
     18 N18        -4.5340    4.9180    6.3370 nb        1 GR9     -0.711000
     19 C19        -3.5890    5.6290    7.0640 ca        1 GR9      0.617900
     20 C20        -2.2230    5.1380    7.1180 ca        1 GR9      0.155500
     21 N21        -1.8400    4.0220    6.4640 nb        1 GR9     -0.577000
     22 C22        -1.2040    5.8590    7.9620 c         1 GR9      0.601600
     23 O23        -1.5330    6.3510    9.0600 o         1 GR9     -0.617100
     24 N24         0.0710    5.9620    7.4380 n         1 GR9     -0.438100
     25 C25         1.1910    6.5280    8.0630 ca        1 GR9     -0.052700
     26 C26         1.1630    7.1790    9.3140 ca        1 GR9     -0.121000
     27 C27         2.3460    7.7170    9.8200 ca        1 GR9     -0.219300
     28 C28         3.5310    7.5970    9.0770 ca        1 GR9      0.365200
     29 N29         3.5850    6.9790    7.8800 nb        1 GR9     -0.642000
     30 C30         2.4520    6.4600    7.3900 ca        1 GR9      0.351200
     31 N31        -3.9600    6.8100    7.6530 nh        1 GR9     -0.931500
     32 C6         -0.0960   -0.7010    0.6080 c3        1 GR9      0.226800
     33 H11C        0.8550    0.7930   -0.6430 h1        1 GR9      0.038450
     34 H12C        0.2570    1.4300    0.9560 h1        1 GR9      0.038450
     35 H61C        0.2560   -1.4750   -0.1340 h1        1 GR9      0.060450
     36 H62C       -1.1610   -0.4290    0.3540 h1        1 GR9      0.060450
     37 H31C        2.9420    1.9010   -0.2250 h1        1 GR9      0.034700
     38 H32C        3.9790    1.3430    1.1680 h1        1 GR9      0.034700
     39 H33C        2.5480    2.4310    1.4750 h1        1 GR9      0.034700
     40 H41C        3.2200   -0.4810    2.5300 h1        1 GR9      0.038450
     41 H42C        1.8420    0.5760    3.0820 h1        1 GR9      0.038450
     42 H51C        1.2170   -1.7090    3.5440 h1        1 GR9      0.060450
     43 H52C        1.7760   -2.2930    1.9050 h1        1 GR9      0.060450
     44 H11        -3.0810    0.5350    2.0710 ha        1 GR9      0.154500
     45 H15        -0.5350   -0.7110    5.3270 ha        1 GR9      0.154500
     46 H12        -3.6430    2.6240    3.2980 ha        1 GR9      0.148000
     47 H14        -1.0890    1.3710    6.5720 ha        1 GR9      0.148000
     48 H17        -4.8940    3.2660    5.1410 h4        1 GR9      0.043100
     49 H311       -3.3700    7.1810    8.3640 hn        1 GR9      0.451300
     50 H312       -4.9230    7.0540    7.6790 hn        1 GR9      0.451300
     51 H24         0.2580    5.4930    6.5770 hn        1 GR9      0.336500
     52 H26         0.2300    7.2660    9.8930 ha        1 GR9      0.177000
     53 H30         2.5480    5.9630    6.4070 h4        1 GR9      0.020100
     54 H27         2.3500    8.2280   10.7930 ha        1 GR9      0.147000
     55 H28         4.4840    8.0110    9.4470 h4        1 GR9      0.025100
@<TRIPOS>BOND
     1    1    2 1   
     2    1   32 1   
     3    1   33 1   
     4    1   34 1   
     5    2    3 1   
     6    2    4 1   
     7    3   37 1   
     8    3   38 1   
     9    3   39 1   
    10    4    5 1   
    11    4   40 1   
    12    4   41 1   
    13    5    6 1   
    14    5   42 1   
    15    5   43 1   
    16    6    7 1   
    17    6   32 1   
    18    7    8 2   
    19    7    9 2   
    20    7   10 1   
    21   10   11 ar  
    22   10   15 ar  
    23   11   12 ar  
    24   11   44 1   
    25   12   13 ar  
    26   12   46 1   
    27   13   14 ar  
    28   13   16 1   
    29   14   15 ar  
    30   14   47 1   
    31   15   45 1   
    32   16   17 ar  
    33   16   21 ar  
    34   17   18 ar  
    35   17   48 1   
    36   18   19 ar  
    37   19   20 ar  
    38   19   31 1   
    39   20   21 ar  
    40   20   22 1   
    41   22   23 2   
    42   22   24 1   
    43   24   25 1   
    44   24   51 1   
    45   25   26 ar  
    46   25   30 ar  
    47   26   27 ar  
    48   26   52 1   
    49   27   28 ar  
    50   27   54 1   
    51   28   29 ar  
    52   28   55 1   
    53   29   30 ar  
    54   30   53 1   
    55   31   49 1   
    56   31   50 1   
    57   32   35 1   
    58   32   36 1   
@<TRIPOS>SUBSTRUCTURE
     1 GR9         1 TEMP              0 ****  ****    0 ROOT
