@<TRIPOS>MOLECULE
GR9
   55    58     1     0     0
SMALL
bcc


@<TRIPOS>ATOM
      1 C1          4.7250   -1.0440    2.2180 c3        1 GR9      0.152800
      2 N2          4.4990   -2.4490    1.9120 n3        1 GR9     -0.728600
      3 C3          3.6760   -3.1040    2.9030 c3        1 GR9      0.157100
      4 C4          4.0130   -2.6600    0.5570 c3        1 GR9      0.152800
      5 C5          4.8630   -1.9330   -0.5070 c3        1 GR9      0.226800
      6 N6          5.1070   -0.5470   -0.1980 n3        1 GR9     -0.814500
      7 S7          4.8360    0.6570   -1.2530 sy        1 GR9      1.506200
      8 O8          5.6440    1.7690   -0.9230 o         1 GR9     -0.649300
      9 O9          4.9270    0.1620   -2.5720 o         1 GR9     -0.649300
     10 C10         3.2220    1.0850   -0.9660 ca        1 GR9     -0.371500
     11 C11         2.9030    2.1040   -0.0600 ca        1 GR9     -0.019500
     12 C12         1.5830    2.4840    0.1560 ca        1 GR9     -0.141000
     13 C13         0.5460    1.8460   -0.5410 cp        1 GR9     -0.066500
     14 C14         0.8540    0.8260   -1.4510 ca        1 GR9     -0.141000
     15 C15         2.1800    0.4580   -1.6580 ca        1 GR9     -0.019500
     16 C16        -0.8430    2.2640   -0.3200 cp        1 GR9      0.256500
     17 C17        -1.1420    3.6570   -0.1620 ca        1 GR9      0.382900
     18 N18        -2.3720    4.1200    0.0420 nb        1 GR9     -0.711000
     19 C19        -3.4010    3.1910    0.1070 ca        1 GR9      0.617900
     20 C20        -3.0940    1.7820   -0.0700 ca        1 GR9      0.155500
     21 N21        -1.8330    1.3480   -0.2760 nb        1 GR9     -0.577000
     22 C22        -4.2100    0.7700   -0.0750 c         1 GR9      0.601600
     23 O23        -5.3060    1.0460   -0.6030 o         1 GR9     -0.617100
     24 N24        -3.9540   -0.4340    0.5530 n         1 GR9     -0.438100
     25 C25        -4.8110   -1.5420    0.6220 ca        1 GR9     -0.052700
     26 C26        -6.1330   -1.5620    0.1300 ca        1 GR9     -0.121000
     27 C27        -6.8890   -2.7240    0.2760 ca        1 GR9     -0.219300
     28 C28        -6.3200   -3.8420    0.9060 ca        1 GR9      0.365200
     29 N29        -5.0600   -3.8500    1.3840 nb        1 GR9     -0.642000
     30 C30        -4.3290   -2.7370    1.2460 ca        1 GR9      0.351200
     31 N31        -4.6670    3.6250    0.4050 nh        1 GR9     -0.931500
     32 C6          5.5720   -0.3240    1.1470 c3        1 GR9      0.226800
     33 H11C        3.7540   -0.4840    2.3530 h1        1 GR9      0.038450
     34 H12C        5.2900   -0.9930    3.1910 h1        1 GR9      0.038450
     35 H61C        5.5580    0.7820    1.3670 h1        1 GR9      0.060700
     36 H62C        6.6380   -0.6850    1.2290 h1        1 GR9      0.060700
     37 H31C        2.6290   -2.6950    2.9550 h1        1 GR9      0.034700
     38 H32C        3.6200   -4.1970    2.6580 h1        1 GR9      0.034700
     39 H33C        4.1570   -2.9820    3.9090 h1        1 GR9      0.034700
     40 H41C        4.0700   -3.7640    0.3420 h1        1 GR9      0.038450
     41 H42C        2.9360   -2.3410    0.4440 h1        1 GR9      0.038450
     42 H51C        5.8540   -2.4650   -0.6020 h1        1 GR9      0.060700
     43 H52C        4.3300   -2.0040   -1.4980 h1        1 GR9      0.060700
     44 H11         3.7180    2.6220    0.4760 ha        1 GR9      0.154500
     45 H15         2.4200   -0.3300   -2.3940 ha        1 GR9      0.154500
     46 H12         1.3540    3.2810    0.8790 ha        1 GR9      0.148000
     47 H14         0.0500    0.3190   -2.0070 ha        1 GR9      0.148000
     48 H17        -0.3390    4.4150   -0.2230 h4        1 GR9      0.043100
     49 H311       -4.8500    4.6020    0.4160 hn        1 GR9      0.451300
     50 H312       -5.4280    3.0140    0.2090 hn        1 GR9      0.451300
     51 H24        -3.0320   -0.5900    0.9030 hn        1 GR9      0.336500
     52 H26        -6.5710   -0.6810   -0.3670 ha        1 GR9      0.177000
     53 H30        -3.3020   -2.7940    1.6520 h4        1 GR9      0.020100
     54 H27        -7.9210   -2.7630   -0.1000 ha        1 GR9      0.147000
     55 H28        -6.8910   -4.7770    1.0390 h4        1 GR9      0.025100
@<TRIPOS>BOND
     1    1    2 1   
     2    1   32 1   
     3    1   33 1   
     4    1   34 1   
     5    2    3 1   
     6    2    4 1   
     7    3   37 1   
     8    3   38 1   
     9    3   39 1   
    10    4    5 1   
    11    4   40 1   
    12    4   41 1   
    13    5    6 1   
    14    5   42 1   
    15    5   43 1   
    16    6    7 1   
    17    6   32 1   
    18    7    8 2   
    19    7    9 2   
    20    7   10 1   
    21   10   11 ar  
    22   10   15 ar  
    23   11   12 ar  
    24   11   44 1   
    25   12   13 ar  
    26   12   46 1   
    27   13   14 ar  
    28   13   16 1   
    29   14   15 ar  
    30   14   47 1   
    31   15   45 1   
    32   16   17 ar  
    33   16   21 ar  
    34   17   18 ar  
    35   17   48 1   
    36   18   19 ar  
    37   19   20 ar  
    38   19   31 1   
    39   20   21 ar  
    40   20   22 1   
    41   22   23 2   
    42   22   24 1   
    43   24   25 1   
    44   24   51 1   
    45   25   26 ar  
    46   25   30 ar  
    47   26   27 ar  
    48   26   52 1   
    49   27   28 ar  
    50   27   54 1   
    51   28   29 ar  
    52   28   55 1   
    53   29   30 ar  
    54   30   53 1   
    55   31   49 1   
    56   31   50 1   
    57   32   35 1   
    58   32   36 1   
@<TRIPOS>SUBSTRUCTURE
     1 GR9         1 TEMP              0 ****  ****    0 ROOT
