@<TRIPOS>MOLECULE
GRB
   36    34     1     0     0
SMALL
bcc


@<TRIPOS>ATOM
      1 P          -3.2960   -1.3490    2.7630 p3        1 GRB      2.528000
      2 BR         -0.9470   -1.1350   -3.5530 br        1 GRB      0.218000
      3 N1          3.8630   -2.4180   -0.4160 n3        1 GRB     -0.340000
      4 C2          3.7050   -1.4010    0.5720 c2        1 GRB      0.162000
      5 N2          4.6830   -1.2510    1.6060 n3        1 GRB     -0.307000
      6 N3          2.5650   -0.5120    0.5200 n1        1 GRB     -0.190000
      7 C4          1.5730   -0.6530   -0.5450 c1        1 GRB     -0.098500
      8 C5          1.7220   -1.6260   -1.4920 c1        1 GRB     -0.098500
      9 C6          2.9120   -2.5550   -1.4390 c1        1 GRB      0.395000
     10 O6          3.0160   -3.4580   -2.2500 o         1 GRB     -0.365000
     11 N7          0.6800   -1.5310   -2.3560 n2        1 GRB     -0.085000
     12 C8         -0.1140   -0.5020   -1.9480 c2        1 GRB     -0.129000
     13 N9          0.4390    0.0390   -0.8290 n2        1 GRB     -0.085000
     14 C1'         0.3160    1.3350   -0.2240 c2        1 GRB      0.121000
     15 C2'        -0.6890    2.2540   -1.0830 c3        1 GRB     -0.009000
     16 O2'        -0.4510    3.6710   -0.7910 oh        1 GRB     -0.349000
     17 C3'        -1.8850    1.9180   -0.7140 c3        1 GRB      0.021000
     18 O3'        -2.7890    3.1120   -0.7370 oh        1 GRB     -0.419000
     19 C4'        -1.7230    1.3990    0.7260 c3        1 GRB     -0.047000
     20 O4'        -0.2010    1.2290    0.9440 os        1 GRB     -0.285000
     21 C5'        -2.3770    0.1690    0.8770 c3        1 GRB      0.082000
     22 O5'        -2.2610   -0.2660    2.2230 os        1 GRB     -0.720000
     23 OP1        -2.9560   -1.7030    4.1930 os        1 GRB     -1.226000
     24 OP2        -3.2190   -2.5920    1.9040 o         1 GRB     -1.260000
     25 OP3        -4.6970   -0.7810    2.7030 o         1 GRB     -1.260000
     26 HN1         4.5860   -2.9810   -0.3840 hn        1 GRB      0.238000
     27 HN2         5.3820   -1.8430    1.6660 hn        1 GRB      0.182500
     28 HN2A        4.6130   -0.5620    2.2070 hn        1 GRB      0.182500
     29 H1'         1.1980    1.7650   -0.1640 h4        1 GRB      0.125000
     30 H2'        -0.5700    2.0800   -2.0440 h1        1 GRB      0.106000
     31 HO2'       -0.0970    4.0680   -1.5080 ho        1 GRB      0.233000
     32 H3'        -2.2380    1.2090   -1.2970 h1        1 GRB      0.161000
     33 HO3'       -3.3620    3.0380   -1.4170 ho        1 GRB      0.319000
     34 H4'        -2.0850    2.0550    1.3640 h1        1 GRB      0.107000
     35 H5'        -1.9670   -0.4940    0.2820 h1        1 GRB      0.045500
     36 H5'A       -3.3280    0.2730    0.6460 h1        1 GRB      0.045500
@<TRIPOS>BOND
     1    1   22 1   
     2    1   24 1   
     3    1   25 1   
     4    2   12 1   
     5    3    4 1   
     6    3    9 1   
     7    3   26 1   
     8    4    5 1   
     9    4    6 1   
    10    5   27 1   
    11    5   28 1   
    12    7    8 1   
    13    7   13 1   
    14    8   11 1   
    15    9   10 1   
    16   11   12 1   
    17   12   13 1   
    18   14   15 1   
    19   14   20 1   
    20   14   29 1   
    21   15   16 1   
    22   15   17 1   
    23   15   30 1   
    24   16   31 1   
    25   17   18 1   
    26   17   19 1   
    27   17   32 1   
    28   18   33 1   
    29   19   20 1   
    30   19   21 1   
    31   19   34 1   
    32   21   22 1   
    33   21   35 1   
    34   21   36 1   
@<TRIPOS>SUBSTRUCTURE
     1 GRB         1 TEMP              0 ****  ****    0 ROOT
