@<TRIPOS>MOLECULE
GRB
   36    39     1     0     0
SMALL
bcc


@<TRIPOS>ATOM
      1 P          -4.2950   -0.9560    0.3590 p5        1 GRB      1.944000
      2 BR         -1.0780   -1.6880    0.1730 br        1 GRB      0.313000
      3 N1          5.3250   -0.5470    0.5970 n         1 GRB     -0.323000
      4 C2          4.8710    0.7840    0.6950 c2        1 GRB      0.083000
      5 N2          5.9120    1.7830    0.8530 nh        1 GRB     -0.297000
      6 N3          3.5850    1.1550    0.6440 n2        1 GRB     -0.167000
      7 C4          2.6820    0.1230    0.4590 c2        1 GRB     -0.066000
      8 C5          3.0410   -1.2700    0.3520 c2        1 GRB     -0.174000
      9 C6          4.4410   -1.6370    0.4130 c2        1 GRB      0.377000
     10 O6          4.9610   -2.7680    0.3270 o         1 GRB     -0.394000
     11 N7          1.9010   -2.0460    0.1960 n2        1 GRB     -0.159000
     12 C8          0.8500   -1.1870    0.2020 c2        1 GRB     -0.184000
     13 N9          1.2770    0.1590    0.3480 na        1 GRB     -0.143000
     14 C1'         0.5620    1.4160    0.3390 c3        1 GRB      0.177000
     15 C2'         0.3590    2.0320   -1.0840 c3        1 GRB     -0.050000
     16 O2'         1.3570    3.0230   -1.2600 oh        1 GRB     -0.328000
     17 C3'        -1.0530    2.6480   -1.0440 c3        1 GRB     -0.040000
     18 O3'        -0.9670    4.0610   -0.9640 oh        1 GRB     -0.344000
     19 C4'        -1.7380    2.0110    0.1780 c3        1 GRB     -0.014000
     20 O4'        -0.7290    1.3490    0.9610 os        1 GRB     -0.231000
     21 C5'        -2.8810    1.0960   -0.2940 c3        1 GRB      0.064000
     22 O5'        -3.5580    0.5260    0.7590 os        1 GRB     -0.720000
     23 OP1        -4.8870   -0.6600   -0.9730 o         1 GRB     -0.878500
     24 OP2        -3.0290   -1.8950    0.2080 os        1 GRB     -1.090000
     25 OP3        -5.1390   -1.3020    1.5270 o         1 GRB     -0.878500
     26 HN2         6.0130    1.9900    1.8300 hn        1 GRB      0.159500
     27 HN2A        5.6510    2.6220    0.3680 hn        1 GRB      0.159500
     28 H1'         1.1630    2.1480    0.9650 h2        1 GRB      0.109000
     29 H2'         0.4440    1.2640   -1.8960 h1        1 GRB      0.117000
     30 HO2'        1.0100    3.6500   -1.9090 ho        1 GRB      0.199000
     31 H3'        -1.6230    2.4560   -1.9920 h1        1 GRB      0.139000
     32 HO3'       -0.5600    4.2690   -0.1130 ho        1 GRB      0.201000
     33 H4'        -2.1560    2.7940    0.8700 h1        1 GRB      0.097000
     34 H5'        -3.5750    1.7740   -0.8780 h1        1 GRB      0.055000
     35 H5'A       -2.4840    0.3080   -0.9930 h1        1 GRB      0.055000
     36 HN1         6.3010   -0.7320    0.6090 hn        1 GRB      0.230000
@<TRIPOS>BOND
     1    1   22 1   
     2    1   23 1   
     3    1   24 1   
     4    1   25 1   
     5    2   12 1   
     6    2   24 1   
     7    3    4 1   
     8    3    9 1   
     9    3   36 1   
    10    4    5 1   
    11    4    6 1   
    12    5   26 1   
    13    5   27 1   
    14    6    7 1   
    15    7    8 1   
    16    7   13 1   
    17    8    9 1   
    18    8   11 1   
    19    9   10 1   
    20   11   12 1   
    21   12   13 1   
    22   13   14 1   
    23   14   15 1   
    24   14   20 1   
    25   14   28 1   
    26   15   16 1   
    27   15   17 1   
    28   15   29 1   
    29   16   30 1   
    30   17   18 1   
    31   17   19 1   
    32   17   31 1   
    33   18   32 1   
    34   19   20 1   
    35   19   21 1   
    36   19   33 1   
    37   21   22 1   
    38   21   34 1   
    39   21   35 1   
@<TRIPOS>SUBSTRUCTURE
     1 GRB         1 TEMP              0 ****  ****    0 ROOT
