@<TRIPOS>MOLECULE
GRD
   82    84     1     0     0
SMALL
bcc


@<TRIPOS>ATOM
      1 C4        500.8190 -851.2550  162.2920 c2        1 GRD      0.078000
      2 C5        499.6830 -851.9750  162.9980 c2        1 GRD      0.351000
      3 C6        499.4560 -851.6150  164.4920 c3        1 GRD      0.002000
      4 C8        498.1370 -853.6820  161.9370 c1        1 GRD      0.549000
      5 N1        500.1360 -850.4140  164.9380 n2        1 GRD     -0.148000
      6 N3        501.4330 -850.2430  162.8860 n2        1 GRD     -0.151000
      7 CAN      -477.3320  625.9430  261.7950 c2        1 GRD     -0.243000
      8 CAL      -476.8760  624.6810  262.0400 c2        1 GRD      0.171000
      9 CAU       503.9570 -849.9660  159.1180 c3        1 GRD     -0.131000
     10 CBM      -478.5580  625.6750  259.6320 c2        1 GRD     -0.315000
     11 CAQ      -478.1080  626.4130  260.7120 c2        1 GRD      0.154000
     12 CAS       508.0130 -850.9490  156.7130 c3        1 GRD     -0.158000
     13 CAT       503.3500 -850.8940  160.1650 c3        1 GRD     -0.220000
     14 N7        498.9430 -852.8860  162.4010 n2        1 GRD     -0.390000
     15 N9        501.0610 -851.6070  160.9650 n3        1 GRD     -0.287000
     16 C2        501.0280 -849.8580  164.1760 c2        1 GRD      0.009000
     17 N6        498.0500 -851.7440  164.8230 n3        1 GRD     -0.327000
     18 CBK       506.0610 -849.0400  158.0870 c2        1 GRD      0.256000
     19 N1C       505.4440 -850.0060  159.0890 n4        1 GRD     -0.105000
     20 CAV       501.8230 -850.7640  160.0790 c3        1 GRD     -0.031000
     21 CBU       507.5820 -848.8960  158.1290 c3        1 GRD      0.036000
     22 OAJ       508.0510 -849.5440  159.2980 oh        1 GRD     -0.365000
     23 CBS       508.1820 -849.4500  156.8410 c3        1 GRD     -0.212000
     24 N1E      -483.3100  626.7950  255.0350 n3        1 GRD     -0.324000
     25 CBJ      -482.0850  627.0070  254.3410 cx        1 GRD      0.020000
     26 CBR      -481.0590  627.8480  255.1030 c3        1 GRD     -0.041000
     27 CAY      -481.9600  626.9360  252.8480 cx        1 GRD     -0.043000
     28 CBP      -812.2480    0.7860-1436.9180 c3        1 GRD     -0.283000
     29 CAB      -811.3420    0.3930-1437.8530 c3        1 GRD     -0.244000
     30 CAC      -812.0320    0.4990-1436.3160 DU        1 GRD      0.279000
     31 N1D      -480.3810  627.2370  256.2030 n2        1 GRD     -0.221000
     32 CBI      -480.4930  626.0110  256.5530 c2        1 GRD      0.207000
     33 OBF      -479.7190  625.4730  257.6290 os        1 GRD     -0.119000
     34 CAW      -479.3260  626.2690  258.6250 c2        1 GRD      0.253000
     35 CAP      -477.1990  622.5080  260.6620 c1        1 GRD     -0.032000
     36 CAM      -477.0710  623.5370  261.2710 c1        1 GRD     -0.237000
     37 H8        501.1010 -852.5860  160.7720 hn        1 GRD      0.243000
     38 HAN      -478.3680  627.4940  260.7540 ha        1 GRD      0.152000
     39 HAL      -476.2720  624.5150  262.9630 ha        1 GRD      0.178000
     40 HAU       503.6490 -848.8980  159.3200 hx        1 GRD      0.157500
     41 HAUA      503.5880 -850.2420  158.0860 hx        1 GRD      0.157500
     42 HAQ      -477.0670  626.7180  262.5450 ha        1 GRD      0.173000
     43 HAA       509.7410 -851.2410  155.4320 hc        1 GRD      0.099000
     44 HAAA      508.1820 -850.9780  154.5470 hc        1 GRD      0.099000
     45 HAAB      508.5070 -852.5650  155.3630 hc        1 GRD      0.099000
     46 HAS       508.4780 -851.4590  157.5990 hc        1 GRD      0.066000
     47 HASA      506.9190 -851.2020  156.7180 hc        1 GRD      0.066000
     48 HAT       503.6580 -851.9560  159.9740 hc        1 GRD      0.116000
     49 HATA      503.7020 -850.6100  161.1920 hc        1 GRD      0.116000
     50 H2        501.5740 -848.9610  164.5640 h5        1 GRD      0.249000
     51 HN6       500.0220 -852.4800  165.0210 h2        1 GRD      0.212000
     52 HN6A      497.9280 -852.1240  165.7450 hn        1 GRD      0.212000
     53 HN1C      505.8290 -849.7740  160.0160 hn        1 GRD      0.266000
     54 HAV       501.5360 -849.6880  160.2590 h1        1 GRD      0.133000
     55 HAVA      501.4920 -851.0440  159.0340 h1        1 GRD      0.133000
     56 HBU       507.7830 -847.7840  158.2150 h1        1 GRD      0.166000
     57 HOAJ      509.0040 -849.6950  159.1920 ho        1 GRD      0.273000
     58 HBS       507.7120 -848.9290  155.9650 hc        1 GRD      0.140000
     59 HN1E      509.2770 -849.1910  156.8320 hc        1 GRD      0.140000
     60 HBR      -483.2200  626.0720  255.7240 hn        1 GRD      0.180500
     61 HAY      -482.8320  626.6650  252.2220 h1        1 GRD      0.135000
     62 HAYA     -481.1870  627.5290  252.3240 h1        1 GRD      0.135000
     63 HBP      -813.1720    0.3460-1436.6430 DU        1 GRD      0.248000
     64 HAB      -811.0100    0.4100-1437.4710 DU        1 GRD      0.119000
     65 HABA     -810.4330    0.7800-1438.0880 hc        1 GRD      0.129000
     66 HABB     -811.8840    0.6300-1438.8230 hc        1 GRD      0.129000
     67 HAC      -812.0360    0.5930-1435.1840 ha        1 GRD      0.184000
     68 HACA     -811.0860    0.9890-1436.6330 DU        1 GRD      0.192000
     69 HACB     -812.9100    0.8140-1436.5360 DU        1 GRD      0.248000
     70 HN1D     -480.2520  628.1780  254.3820 h1        1 GRD      0.150000
     71 HAW      -480.9330  624.5930  255.3450 ho        1 GRD      0.285000
     72 HAWA     -479.6130  627.3410  258.6290 h4        1 GRD      0.192000
     73 HAP      -478.3220  624.5980  259.5430 ha        1 GRD      0.190000
     74 HAM      -477.3090  621.5930  260.1250 ha        1 GRD      0.254000
     75 OAH      -481.4530  625.8690  253.6570 os        1 GRD     -0.339000
     76 OAG      -481.2550  624.9340  256.2040 oh        1 GRD     -0.247000
     77 OAI       505.2960 -848.4580  157.3400 o         1 GRD     -0.154000
     78 H63       497.5510 -850.8770  164.7420 hn        1 GRD      0.212000
     79 H1C2      505.7750 -850.9490  158.8490 hn        1 GRD      0.266000
     80 H1E2     -484.0640  626.5890  254.4100 hn        1 GRD      0.180500
     81 H1D2     -481.5710  628.7700  255.5120 h1        1 GRD      0.150000
     82 CAA       508.6460 -851.4590  155.4430 c3        1 GRD     -0.220000
@<TRIPOS>BOND
     1    1    2 1   
     2    1    6 1   
     3    1   15 1   
     4    2    3 1   
     5    2   14 1   
     6    3    5 1   
     7    3   17 1   
     8    3   51 1   
     9    4   14 1   
    10    5   16 1   
    11    6   16 1   
    12    7    8 1   
    13    7   11 1   
    14    7   42 1   
    15    8   36 1   
    16    8   39 1   
    17    9   13 1   
    18    9   19 1   
    19    9   40 1   
    20    9   41 1   
    21   10   11 1   
    22   10   34 1   
    23   10   73 1   
    24   11   38 1   
    25   12   23 1   
    26   12   46 1   
    27   12   47 1   
    28   12   82 1   
    29   13   20 1   
    30   13   48 1   
    31   13   49 1   
    32   15   20 1   
    33   15   37 1   
    34   16   50 1   
    35   17   52 1   
    36   17   78 1   
    37   18   19 1   
    38   18   21 1   
    39   18   77 1   
    40   19   53 1   
    41   19   79 1   
    42   20   54 1   
    43   20   55 1   
    44   21   22 1   
    45   21   23 1   
    46   21   56 1   
    47   22   57 1   
    48   23   58 1   
    49   23   59 1   
    50   24   25 1   
    51   24   60 1   
    52   24   80 1   
    53   25   26 1   
    54   25   27 1   
    55   25   75 1   
    56   26   31 1   
    57   26   70 1   
    58   26   81 1   
    59   27   61 1   
    60   27   62 1   
    61   27   75 1   
    62   28   29 1   
    63   28   63 1   
    64   28   68 1   
    65   28   69 1   
    66   29   30 1   
    67   29   65 1   
    68   29   66 1   
    69   30   63 1   
    70   30   67 1   
    71   30   68 1   
    72   30   69 1   
    73   31   32 1   
    74   32   33 1   
    75   32   76 1   
    76   33   34 1   
    77   34   72 1   
    78   35   36 1   
    79   35   74 1   
    80   43   82 1   
    81   44   82 1   
    82   45   82 1   
    83   63   69 1   
    84   71   76 1   
@<TRIPOS>SUBSTRUCTURE
     1 GRD         1 TEMP              0 ****  ****    0 ROOT
