@<TRIPOS>MOLECULE
GRD
   78    80     1     0     0
SMALL
bcc


@<TRIPOS>ATOM
      1 C4          5.6250   -2.0870   -0.1640 ca        1 GRD      0.458800
      2 C5          5.7120   -3.2390    0.7280 ca        1 GRD     -0.235200
      3 C6          5.9050   -4.5260    0.1210 ca        1 GRD      0.762200
      4 C8          5.4260   -1.4940    1.9980 cc        1 GRD      0.400700
      5 N1          6.0060   -4.6030   -1.2490 nb        1 GRD     -0.797000
      6 N3          5.7190   -2.1740   -1.5260 nb        1 GRD     -0.734000
      7 CAN        -6.3000   -4.5740    0.5430 ca        1 GRD     -0.131000
      8 CAL        -6.2960   -5.3710   -0.6020 ca        1 GRD     -0.121000
      9 CAU         3.6440    2.2390   -0.1900 c3        1 GRD      0.088000
     10 CBM        -5.6530   -2.6580   -0.7850 ca        1 GRD     -0.101300
     11 CAQ        -5.9820   -3.2200    0.4530 ca        1 GRD     -0.109500
     12 CAS        -0.9870    2.0340   -3.0860 c3        1 GRD     -0.091400
     13 CAT         3.7440    0.7470    0.1380 c3        1 GRD     -0.131400
     14 N7          5.5840   -2.8230    2.0610 nd        1 GRD     -0.543100
     15 N9          5.4640   -0.9770    0.6780 na        1 GRD     -0.263000
     16 C2          5.9050   -3.4440   -1.9530 ca        1 GRD      0.686900
     17 N6          5.9640   -5.6530    0.8980 nh        1 GRD     -0.959500
     18 CBK         1.7850    3.1770   -1.5060 c         1 GRD      0.625100
     19 N1C         2.2970    2.7210   -0.3150 n         1 GRD     -0.553900
     20 CAV         5.2220    0.3780    0.2830 c3        1 GRD      0.049300
     21 CBU         0.3000    3.5680   -1.5270 c3        1 GRD      0.062100
     22 OAJ         0.0410    4.4700   -2.5750 oh        1 GRD     -0.583800
     23 CBS        -0.5570    2.2660   -1.6320 c3        1 GRD      0.084700
     24 N1E        -1.6780    2.2840   -0.7190 n         1 GRD     -0.554900
     25 CBJ        -1.5070    2.1580    0.6350 c         1 GRD      0.631100
     26 CBR        -2.8020    2.1070    1.4920 c3        1 GRD      0.049700
     27 CAY        -2.4660    2.4630    2.9480 c3        1 GRD     -0.079400
     28 CBP        -2.1670    3.9480    3.1010 c3        1 GRD     -0.065700
     29 CAB        -3.4340    4.7780    3.0920 c3        1 GRD     -0.093100
     30 CAC        -1.4010    4.1830    4.3880 c3        1 GRD     -0.093100
     31 N1D        -3.4460    0.8190    1.3860 n         1 GRD     -0.535900
     32 CBI        -4.1400    0.4820    0.2430 c         1 GRD      0.742100
     33 OBF        -4.5600   -0.8300    0.2390 os        1 GRD     -0.433900
     34 CAW        -5.3480   -1.2040   -0.9130 c3        1 GRD      0.198700
     35 CAP        -5.6410   -3.4610   -1.9310 ca        1 GRD     -0.109500
     36 CAM        -5.9680   -4.8130   -1.8380 ca        1 GRD     -0.131000
     37 H8          5.2970   -0.8290    2.8600 h5        1 GRD      0.071800
     38 HAN        -6.5550   -5.0130    1.5190 ha        1 GRD      0.134500
     39 HAL        -6.5500   -6.4390   -0.5310 ha        1 GRD      0.134000
     40 HAU         4.1440    2.8240    0.6360 h1        1 GRD      0.062700
     41 HAUA        4.1990    2.4460   -1.1510 h1        1 GRD      0.062700
     42 HAQ        -5.9780   -2.5870    1.3540 ha        1 GRD      0.138000
     43 HAA        -1.8800    0.5440   -4.3640 hc        1 GRD      0.040700
     44 HAAA       -1.1050   -0.1220   -2.8680 hc        1 GRD      0.040700
     45 HAAB       -2.7020    0.7300   -2.7630 hc        1 GRD      0.040700
     46 HAS        -0.0520    2.0450   -3.7090 hc        1 GRD      0.062700
     47 HASA       -1.6310    2.8850   -3.4320 hc        1 GRD      0.062700
     48 HAT         3.1910    0.5210    1.0870 hc        1 GRD      0.062200
     49 HATA        3.2780    0.1390   -0.6800 hc        1 GRD      0.062200
     50 H2          5.9890   -3.5660   -3.0550 h5        1 GRD      0.052100
     51 HN6         5.9740   -5.5510    1.8820 hn        1 GRD      0.447300
     52 HN6A        6.1710   -6.5320    0.4930 hn        1 GRD      0.447300
     53 HN1C        1.6610    2.5110    0.4250 hn        1 GRD      0.341500
     54 HAV         5.7400    0.5530   -0.7050 h1        1 GRD      0.071200
     55 HAVA        5.6950    1.0490    1.0580 h1        1 GRD      0.071200
     56 HBU         0.0390    4.1450   -0.5920 h1        1 GRD      0.099700
     57 HOAJ        0.5700    4.2030   -3.3430 ho        1 GRD      0.427000
     58 HBS         0.1020    1.3980   -1.3190 h1        1 GRD      0.063700
     59 HN1E       -2.5950    2.3640   -1.1040 hn        1 GRD      0.348500
     60 HBR        -3.5250    2.8810    1.0850 h1        1 GRD      0.093700
     61 HAY        -3.3240    2.1880    3.6150 hc        1 GRD      0.065200
     62 HAYA       -1.5680    1.8690    3.2680 hc        1 GRD      0.065200
     63 HBP        -1.5140    4.2690    2.2390 hc        1 GRD      0.056700
     64 HAB        -3.9920    4.6470    2.1340 hc        1 GRD      0.037533
     65 HABA       -4.1040    4.4820    3.9350 hc        1 GRD      0.037533
     66 HABB       -3.1830    5.8600    3.2050 hc        1 GRD      0.037533
     67 HAC        -0.4300    3.6320    4.3700 hc        1 GRD      0.037533
     68 HACA       -1.1900    5.2720    4.5160 hc        1 GRD      0.037533
     69 HACB       -1.9940    3.8320    5.2670 hc        1 GRD      0.037533
     70 HN1D       -3.1450    0.0890    1.9900 hn        1 GRD      0.335500
     71 HAW        -4.7590   -0.9760   -1.8400 h1        1 GRD      0.065200
     72 HAWA       -6.2890   -0.5900   -0.9090 h1        1 GRD      0.065200
     73 HAP        -5.3770   -3.0260   -2.9060 ha        1 GRD      0.138000
     74 HAM        -5.9620   -5.4410   -2.7410 ha        1 GRD      0.134500
     75 CAA        -1.7080    0.7260   -3.2750 c3        1 GRD     -0.099100
     76 OAH        -0.3720    2.0710    1.1530 o         1 GRD     -0.644100
     77 OAG        -4.4350    1.2180   -0.7170 o         1 GRD     -0.608000
     78 OAI         2.4730    3.3190   -2.5390 o         1 GRD     -0.621100
@<TRIPOS>BOND
     1    1    2 ar  
     2    1    6 ar  
     3    1   15 1   
     4    2    3 ar  
     5    2   14 1   
     6    3    5 ar  
     7    3   17 1   
     8    4   14 2   
     9    4   15 1   
    10    4   37 1   
    11    5   16 ar  
    12    6   16 ar  
    13    7    8 ar  
    14    7   11 ar  
    15    7   38 1   
    16    8   36 ar  
    17    8   39 1   
    18    9   13 1   
    19    9   19 1   
    20    9   40 1   
    21    9   41 1   
    22   10   11 ar  
    23   10   34 1   
    24   10   35 ar  
    25   11   42 1   
    26   12   23 1   
    27   12   46 1   
    28   12   47 1   
    29   12   75 1   
    30   13   20 1   
    31   13   48 1   
    32   13   49 1   
    33   15   20 1   
    34   16   50 1   
    35   17   51 1   
    36   17   52 1   
    37   18   19 1   
    38   18   21 1   
    39   18   78 2   
    40   19   53 1   
    41   20   54 1   
    42   20   55 1   
    43   21   22 1   
    44   21   23 1   
    45   21   56 1   
    46   22   57 1   
    47   23   24 1   
    48   23   58 1   
    49   24   25 1   
    50   24   59 1   
    51   25   26 1   
    52   25   76 2   
    53   26   27 1   
    54   26   31 1   
    55   26   60 1   
    56   27   28 1   
    57   27   61 1   
    58   27   62 1   
    59   28   29 1   
    60   28   30 1   
    61   28   63 1   
    62   29   64 1   
    63   29   65 1   
    64   29   66 1   
    65   30   67 1   
    66   30   68 1   
    67   30   69 1   
    68   31   32 1   
    69   31   70 1   
    70   32   33 1   
    71   32   77 2   
    72   33   34 1   
    73   34   71 1   
    74   34   72 1   
    75   35   36 ar  
    76   35   73 1   
    77   36   74 1   
    78   43   75 1   
    79   44   75 1   
    80   45   75 1   
@<TRIPOS>SUBSTRUCTURE
     1 GRD         1 TEMP              0 ****  ****    0 ROOT
