@<TRIPOS>MOLECULE
GRD
   81    76     1     0     0
SMALL
bcc


@<TRIPOS>ATOM
      1 C4        145.4030 -424.3140  -85.1790 c2        1 GRD      0.119000
      2 C5        145.4820 -424.2680  -83.7490 c2        1 GRD     -0.114000
      3 C6        144.3910 -424.8860  -82.9970 c2        1 GRD      0.217000
      4 C8        147.4410 -423.1610  -82.5340 c1        1 GRD      0.185000
      5 N1        143.3570 -425.5050  -83.6730 n2        1 GRD     -0.224000
      6 N3        144.3550 -424.9280  -85.8120 n2        1 GRD     -0.314000
      7 CAN      -116.4480  661.5390    0.5020 c3        1 GRD      0.084000
      8 CAL      -115.8320  660.7300    0.7090 c3        1 GRD     -0.259000
      9 CAU       146.1710 -424.4020  -88.9480 c3        1 GRD     -0.114000
     10 CBM      -199.7180  472.7060 -252.9800 c1        1 GRD     -0.256000
     11 CAQ      -199.5490  472.3210 -254.1010 c1        1 GRD     -0.130000
     12 CAS       141.2410 -424.6460  -89.9450 c1        1 GRD     -0.041000
     13 CAT       146.7690 -425.3000  -87.8780 c3        1 GRD     -0.187000
     14 N7        146.5340 -423.6710  -83.1040 n2        1 GRD     -0.316000
     15 N9        146.3760 -423.6660  -86.0070 nh        1 GRD     -0.307000
     16 C2        143.4120 -425.4860  -85.0140 c2        1 GRD      0.044000
     17 N6        144.3670 -424.8730  -81.6340 nh        1 GRD     -0.332000
     18 CBK       144.2520 -422.9290  -89.5880 c2        1 GRD      0.202000
     19 N1C       144.8810 -423.7800  -88.5280 n4        1 GRD     -0.100000
     20 CAV       147.3270 -424.5360  -86.6810 c3        1 GRD     -0.075000
     21 CBU       142.7650 -422.5770  -89.3590 c3        1 GRD      0.179000
     22 OAJ       142.4760 -421.4250  -90.1040 oh        1 GRD     -0.261000
     23 CBS       141.9670 -423.7310  -89.6830 c1        1 GRD     -0.318000
     24 N1E      -196.4000  469.4400 -248.2350 n         1 GRD     -0.398000
     25 CBJ      -196.9580  470.1210 -249.2610 c2        1 GRD      0.300000
     26 CBR      -202.3470  470.3400 -248.7960 c2        1 GRD     -0.133000
     27 CAY      -203.1460  470.0070 -249.8360 c2        1 GRD      0.057000
     28 CBP      -204.5200  469.8080 -249.6700 c1        1 GRD     -0.218000
     29 CAB         4.9930   47.2550   35.5070 c3        1 GRD     -0.266000
     30 CAC      -205.7010  469.6290 -249.5610 c1        1 GRD     -0.054000
     31 N1D      -200.9330  470.4460 -248.9200 n3        1 GRD     -0.147000
     32 CBI      -200.2820  471.4670 -248.4130 c1        1 GRD      0.505000
     33 OBF      -199.6610  472.2420 -250.6450 oh        1 GRD     -0.408000
     34 CAW      -199.9340  473.2130 -251.6520 c3        1 GRD      0.102000
     35 CAP      -116.3310  660.0420    0.2640 c1        1 GRD      0.262000
     36 CAM      -116.1140  660.3720    0.3980 c2        1 GRD      0.029000
     37 H8        146.8610 -422.9500  -85.4970 hn        1 GRD      0.211000
     38 HAN      -199.3980  471.9860 -255.0980 ha        1 GRD      0.238000
     39 HAL      -114.9070  660.2260    0.1560 DU        1 GRD      0.302500
     40 HAU       145.9720 -424.9990  -89.8850 hx        1 GRD      0.143500
     41 HAUA      146.8850 -423.5670  -89.2060 hx        1 GRD      0.143500
     42 HAQ      -116.9000  662.1970    0.2320 hc        1 GRD      0.277000
     43 HAA       -16.7250   -3.7130   12.8340 hc        1 GRD      0.066000
     44 HAAA      -17.3850   -5.2930   13.4360 hc        1 GRD      0.066000
     45 HAAB      -17.6220   -4.8120   11.7020 hc        1 GRD      0.066000
     46 HAS       -18.5170   -3.9370   13.0170 hc        1 GRD      0.066000
     47 HASA      140.5970 -425.4640  -90.1780 ha        1 GRD      0.254000
     48 HAT       147.6290 -425.8480  -88.3560 hc        1 GRD      0.131500
     49 HATA      146.0300 -426.0750  -87.5460 hc        1 GRD      0.131500
     50 H2        142.5700 -425.9960  -85.5340 h5        1 GRD      0.200000
     51 HN6       143.6240 -425.3110  -81.1400 hn        1 GRD      0.259000
     52 HN6A      145.0990 -424.4520  -81.1170 hn        1 GRD      0.259000
     53 HN1C      145.0550 -423.1930  -87.6920 hn        1 GRD      0.279000
     54 HAV       147.7720 -425.2970  -85.9750 h1        1 GRD      0.109500
     55 HAVA      148.1680 -423.8740  -87.0410 h1        1 GRD      0.109500
     56 HBU       142.6110 -422.2580  -88.2810 h1        1 GRD      0.172000
     57 HOAJ      142.3980 -421.6580  -91.0420 ho        1 GRD      0.242000
     58 HBS      -196.2980  470.3280 -250.1360 h5        1 GRD      0.155000
     59 HN1E     -195.4530  469.1490 -248.2720 hn        1 GRD      0.242000
     60 HBR      -202.7150  470.4950 -247.7640 h4        1 GRD      0.192000
     61 HAY       229.8990 -665.2190  166.5460 ha        1 GRD      0.000000
     62 HAYA     -202.7600  469.8600 -250.8660 ha        1 GRD      0.166000
     63 HBP       230.2020 -665.3320  167.1400 ha        1 GRD      0.000000
     64 HAB         4.1400   46.5420   35.4910 hc        1 GRD      0.066000
     65 HABA        5.9310   46.7170   35.2490 hc        1 GRD      0.066000
     66 HABB        4.8140   48.0630   34.7650 hc        1 GRD      0.066000
     67 HAC      -206.7500  469.4700 -249.4690 ha        1 GRD      0.250000
     68 HACA       -9.4240   27.2610   -1.9070 ha        1 GRD      0.000000
     69 HACB       -9.4470   27.2470   -2.5830 ha        1 GRD      0.000000
     70 HN1D        5.0870   47.6980   36.5220 hc        1 GRD      0.066000
     71 HAW      -198.7470  471.9460 -250.7510 ho        1 GRD      0.236000
     72 HAWA     -201.0170  473.4830 -251.4960 h1        1 GRD      0.112500
     73 HAP      -199.2920  474.1220 -251.4730 h1        1 GRD      0.112500
     74 HAM      -116.5270  659.7500    0.2520 DU        1 GRD      0.302500
     75 OAH      -198.1580  470.5000 -249.2350 o         1 GRD     -0.528000
     76 OAG      -199.6660  472.2730 -247.8330 o         1 GRD      0.037000
     77 OAI       144.9360 -422.5670  -90.5320 o         1 GRD     -0.164000
     78 H1C2      144.2190 -424.5190  -88.2530 hn        1 GRD      0.279000
     79 H1E2     -196.9190  469.2150 -247.4200 hn        1 GRD      0.242000
     80 H1D2     -200.4670  470.0220 -249.7210 hn        1 GRD      0.324000
     81 CAA       -17.5620   -4.4390   12.7470 c3        1 GRD     -0.266000
@<TRIPOS>BOND
     1    1    2 1   
     2    1    6 1   
     3    1   15 1   
     4    2    3 1   
     5    2   14 1   
     6    3    5 1   
     7    3   17 1   
     8    4   14 1   
     9    5   16 1   
    10    6   16 1   
    11    7    8 1   
    12    7   35 1   
    13    7   36 1   
    14    7   42 1   
    15    8   35 1   
    16    8   39 1   
    17    8   74 1   
    18    9   13 1   
    19    9   19 1   
    20    9   40 1   
    21    9   41 1   
    22   10   11 1   
    23   10   34 1   
    24   11   38 1   
    25   12   23 1   
    26   12   47 1   
    27   13   20 1   
    28   13   48 1   
    29   13   49 1   
    30   15   20 1   
    31   15   37 1   
    32   16   50 1   
    33   17   51 1   
    34   17   52 1   
    35   18   19 1   
    36   18   21 1   
    37   18   77 1   
    38   19   53 1   
    39   19   78 1   
    40   20   54 1   
    41   20   55 1   
    42   21   22 1   
    43   21   23 1   
    44   21   56 1   
    45   22   57 1   
    46   24   25 1   
    47   24   59 1   
    48   24   79 1   
    49   25   58 1   
    50   25   75 1   
    51   26   27 1   
    52   26   31 1   
    53   26   60 1   
    54   27   28 1   
    55   27   62 1   
    56   28   30 1   
    57   29   64 1   
    58   29   65 1   
    59   29   66 1   
    60   29   70 1   
    61   30   67 1   
    62   31   32 1   
    63   31   80 1   
    64   32   76 1   
    65   33   34 1   
    66   33   71 1   
    67   34   72 1   
    68   34   73 1   
    69   36   39 1   
    70   36   74 1   
    71   43   81 1   
    72   44   81 1   
    73   45   81 1   
    74   46   81 1   
    75   61   63 1   
    76   68   69 1   
@<TRIPOS>SUBSTRUCTURE
     1 GRD         1 TEMP              0 ****  ****    0 ROOT
