@<TRIPOS>MOLECULE
GRD
   78    69     1     0     0
SMALL
bcc


@<TRIPOS>ATOM
      1 C4         -2.8600   -5.4910   -2.2020 c1        1 GRD      0.063000
      2 C5         -4.0040   -5.1780   -2.8450 c1        1 GRD     -0.242000
      3 C6         -5.1240   -4.7820   -2.1190 c1        1 GRD      0.241000
      4 C8         -2.5690   -5.9360   -4.3430 c1        1 GRD     -0.052000
      5 N1         -5.0630   -4.7140   -0.7730 n1        1 GRD     -0.272000
      6 N3         -2.8020   -5.4210   -0.8360 n1        1 GRD     -0.214000
      7 CAN        -3.1890    4.1370    6.5190 c1        1 GRD     -0.121750
      8 CAL        -2.8680    5.3140    7.1580 c1        1 GRD     -0.121750
      9 CAU         1.5500   -5.2480   -2.6570 c3        1 GRD     -0.028000
     10 CBM        -2.0480    4.8930    4.5500 c1        1 GRD     -0.092000
     11 CAQ        -2.7810    3.9230    5.2140 c1        1 GRD     -0.121750
     12 CAA         1.3520   -2.0310    1.9330 c3        1 GRD     -0.215000
     13 OAH         3.6310    1.0990    0.6020 o         1 GRD     -0.368000
     14 OAG        -0.4390    3.9830    0.7740 o         1 GRD     -0.417000
     15 CAS         0.8840   -1.7930    0.5130 c3        1 GRD     -0.167000
     16 CAT         0.4090   -5.4710   -3.6140 c3        1 GRD     -0.211000
     17 N7         -3.8310   -5.4510   -4.1720 n1        1 GRD     -0.148000
     18 N9         -1.9650   -5.9640   -3.1350 n1        1 GRD     -0.148000
     19 C2         -3.9000   -5.0330   -0.1230 c1        1 GRD      0.022000
     20 N6         -6.3940   -4.3360   -2.5300 n3        1 GRD     -0.357000
     21 OAI         2.5560   -3.6050   -0.5540 o         1 GRD     -0.369000
     22 CBK         2.1970   -3.0840   -1.5780 c1        1 GRD      0.265000
     23 N1C         2.0130   -3.8830   -2.7670 n2        1 GRD     -0.369000
     24 CAV        -0.6110   -6.4830   -2.9850 c2        1 GRD     -0.010000
     25 CBU         2.1030   -1.5980   -1.6620 c3        1 GRD     -0.015000
     26 OAJ         0.9720   -1.2410   -2.4410 oh        1 GRD     -0.320000
     27 CBS         1.9600   -1.0150   -0.2560 c3        1 GRD      0.044000
     28 N1E         1.5910    0.3380   -0.3440 n         1 GRD     -0.368000
     29 CBJ         2.5040    1.4010    0.1860 c2        1 GRD      0.265000
     30 CBR         2.0060    2.8450    0.3050 c3        1 GRD      0.016000
     31 CAY         3.1710    3.8170    0.0640 c3        1 GRD     -0.158000
     32 CBP         3.0550    4.4260   -1.3650 c3        1 GRD     -0.104000
     33 CAB         2.3200    5.7280   -1.2950 c3        1 GRD     -0.210500
     34 CAC         4.4690    4.6660   -1.9410 c3        1 GRD     -0.210500
     35 N1D         1.4800    3.0550    1.5930 n         1 GRD     -0.338000
     36 CBI         0.2050    3.6800    1.7480 c2        1 GRD      0.394000
     37 OBF        -0.2700    4.0420    3.0720 os        1 GRD     -0.273000
     38 CAW        -1.5930    4.6550    3.0800 c3        1 GRD      0.040000
     39 CAP        -1.7270    6.0680    5.1880 c1        1 GRD     -0.118000
     40 CAM        -2.1370    6.2820    6.4960 c1        1 GRD     -0.121750
     41 H8         -2.1560   -6.1780   -5.1990 DU        1 GRD      0.203000
     42 HAN        -3.6980    3.4630    6.9800 ha        1 GRD      0.135750
     43 HAL        -3.1590    5.4670    8.0900 ha        1 GRD      0.135750
     44 HAU         2.2710   -5.8500   -2.8710 h1        1 GRD      0.103000
     45 HAUA        1.2450   -5.4170   -1.7390 h1        1 GRD      0.103000
     46 HAQ        -3.0040    3.1040    4.7700 ha        1 GRD      0.135750
     47 HAA         2.3240   -2.0990    1.9480 hc        1 GRD      0.080000
     48 HAAA        1.0660   -1.2770    2.5070 hc        1 GRD      0.080000
     49 HAAB        0.9630   -2.8610    2.2680 hc        1 GRD      0.080000
     50 HAS         0.0440   -1.2710    0.5260 hc        1 GRD      0.097500
     51 HASA        0.7270   -2.6510    0.0750 hc        1 GRD      0.097500
     52 HAT         0.7610   -5.8420   -4.4700 hc        1 GRD      0.102500
     53 HATA       -0.0300   -4.6420   -3.7820 hc        1 GRD      0.102500
     54 H2         -3.8550   -4.9830    0.8570 ha        1 GRD      0.186000
     55 HN6        -7.0170   -4.0860   -1.9050 hn        1 GRD      0.242500
     56 HN6A       -6.5860   -4.2760   -3.4060 hn        1 GRD      0.242500
     57 HN1C        2.1940   -3.5210   -3.5990 hn        1 GRD      0.231000
     58 HAV        -0.4070   -6.6020   -2.0170 ha        1 GRD      0.114000
     59 HAVA       -0.5390   -7.3610   -3.4500 ha        1 GRD      0.114000
     60 HBU         2.8980   -1.2490   -2.0720 h1        1 GRD      0.132000
     61 HOAJ        1.2220   -1.1200   -3.3020 ho        1 GRD      0.207000
     62 HBS         2.8290   -1.0900    0.2240 h1        1 GRD      0.132000
     63 HN1E        0.7740    0.5690   -0.7050 hn        1 GRD      0.257000
     64 HBR         1.3090    3.0030   -0.3600 h1        1 GRD      0.132000
     65 HAY         3.1360    4.5480    0.7360 hc        1 GRD      0.104500
     66 HAYA        4.0160    3.3400    0.1460 hc        1 GRD      0.104500
     67 HBP         2.5660    3.8040   -1.9470 hc        1 GRD      0.095000
     68 HAB         1.3790    5.5610   -1.0650 hc        1 GRD      0.076000
     69 HABA        2.7380    6.3090   -0.5960 hc        1 GRD      0.076000
     70 HABB        2.3690    6.1800   -2.1680 hc        1 GRD      0.076000
     71 HAC         4.3970    5.0890   -2.8070 hc        1 GRD      0.076000
     72 HACA        4.9760    5.2480   -1.3340 hc        1 GRD      0.076000
     73 HACB        4.9240    3.8260   -2.0330 hc        1 GRD      0.076000
     74 HN1D        1.9770    2.8420    2.3310 hn        1 GRD      0.246000
     75 HAW        -1.5580    5.5110    2.6090 h1        1 GRD      0.104500
     76 HAWA       -2.2240    4.0670    2.6370 h1        1 GRD      0.104500
     77 HAP        -1.2120    6.7520    4.7210 ha        1 GRD      0.134000
     78 HAM        -1.9130    7.1020    6.9420 ha        1 GRD      0.135750
@<TRIPOS>BOND
     1    1    6 1   
     2    2    3 1   
     3    3   20 1   
     4    4   17 1   
     5    4   18 1   
     6    5   19 1   
     7    7   11 1   
     8    7   42 1   
     9    8   40 1   
    10    8   43 1   
    11    9   16 1   
    12    9   23 1   
    13    9   44 1   
    14    9   45 1   
    15   10   38 1   
    16   10   39 1   
    17   11   46 1   
    18   12   15 1   
    19   12   47 1   
    20   12   48 1   
    21   12   49 1   
    22   13   29 1   
    23   14   36 1   
    24   15   27 1   
    25   15   50 1   
    26   15   51 1   
    27   16   24 1   
    28   16   52 1   
    29   16   53 1   
    30   19   54 1   
    31   20   55 1   
    32   20   56 1   
    33   21   22 1   
    34   22   25 1   
    35   23   57 1   
    36   24   58 1   
    37   24   59 1   
    38   25   26 1   
    39   25   27 1   
    40   25   60 1   
    41   26   61 1   
    42   27   28 1   
    43   27   62 1   
    44   28   29 1   
    45   28   63 1   
    46   29   30 1   
    47   30   31 1   
    48   30   35 1   
    49   30   64 1   
    50   31   32 1   
    51   31   65 1   
    52   31   66 1   
    53   32   33 1   
    54   32   34 1   
    55   32   67 1   
    56   33   68 1   
    57   33   69 1   
    58   33   70 1   
    59   34   71 1   
    60   34   72 1   
    61   34   73 1   
    62   35   36 1   
    63   35   74 1   
    64   36   37 1   
    65   37   38 1   
    66   38   75 1   
    67   38   76 1   
    68   39   77 1   
    69   40   78 1   
@<TRIPOS>SUBSTRUCTURE
     1 GRD         1 TEMP              0 ****  ****    0 ROOT
