@<TRIPOS>MOLECULE
GRE
   16    16     1     0     0
SMALL
bcc


@<TRIPOS>ATOM
      1 C1A         0.1660   -0.0010   -0.1810 c         1 GRE      0.926200
      2 O1A         0.6660    1.0950    0.2160 o         1 GRE     -0.838300
      3 O2A         0.4560   -1.0990    0.3850 o         1 GRE     -0.838300
      4 C1         -0.7920    0.0010   -1.3470 ca        1 GRE     -0.302600
      5 C2         -1.3730   -1.1920   -1.8240 ca        1 GRE      0.216100
      6 C3         -2.2690   -1.1930   -2.9150 ca        1 GRE     -0.255000
      7 C4         -2.5910    0.0050   -3.5380 ca        1 GRE     -0.077000
      8 C5         -2.0400    1.2010   -3.0990 ca        1 GRE     -0.255000
      9 C6         -1.1450    1.1960   -2.0070 ca        1 GRE      0.216100
     10 O2         -1.1370   -2.4310   -1.2980 oh        1 GRE     -0.553100
     11 O6         -0.6720    2.4340   -1.6710 oh        1 GRE     -0.553100
     12 H3         -2.6970   -2.1440   -3.2520 ha        1 GRE      0.124000
     13 H4         -3.2890    0.0070   -4.3880 ha        1 GRE      0.103000
     14 H5         -2.2860    2.1540   -3.5820 ha        1 GRE      0.124000
     15 HO2        -0.5100   -2.3600   -0.5480 ho        1 GRE      0.481000
     16 HO6        -0.0590    2.3600   -0.9100 ho        1 GRE      0.481000
@<TRIPOS>BOND
     1    1    2 1   
     2    1    3 1   
     3    1    4 1   
     4    4    5 ar  
     5    4    9 ar  
     6    5    6 ar  
     7    5   10 1   
     8    6    7 ar  
     9    6   12 1   
    10    7    8 ar  
    11    7   13 1   
    12    8    9 ar  
    13    8   14 1   
    14    9   11 1   
    15   10   15 1   
    16   11   16 1   
@<TRIPOS>SUBSTRUCTURE
     1 GRE         1 TEMP              0 ****  ****    0 ROOT
