@<TRIPOS>MOLECULE
GRE
   16    16     1     0     0
SMALL
bcc


@<TRIPOS>ATOM
      1 C1A         4.0180   -2.3010    2.8210 c         1 GRE      0.924200
      2 O1A         4.4210   -1.7440    3.8730 o         1 GRE     -0.825800
      3 O2A         4.5510   -3.3480    2.3320 o         1 GRE     -0.825800
      4 C1          2.8690   -1.6830    2.0420 ca        1 GRE     -0.224600
      5 C2          2.8520   -1.7300    0.6330 ca        1 GRE      0.185600
      6 C3          1.8410   -1.0910   -0.1150 ca        1 GRE     -0.263000
      7 C4          0.8220   -0.4200    0.5470 ca        1 GRE     -0.085000
      8 C5          0.7830   -0.3880    1.9370 ca        1 GRE     -0.263000
      9 C6          1.8000   -1.0270    2.6720 ca        1 GRE      0.185600
     10 O2          3.8040   -2.3720   -0.1090 oh        1 GRE     -0.504600
     11 O6          1.7470   -1.0560    4.0480 oh        1 GRE     -0.504600
     12 H3          1.8760   -1.1360   -1.2100 ha        1 GRE      0.115500
     13 H4          0.0340    0.0840   -0.0310 ha        1 GRE      0.103000
     14 H5         -0.0300    0.1310    2.4600 ha        1 GRE      0.115500
     15 HO2         4.3940   -2.8740    0.4940 ho        1 GRE      0.433500
     16 HO6         1.0800   -0.4120    4.3220 ho        1 GRE      0.433500
@<TRIPOS>BOND
     1    1    2 1   
     2    1    3 1   
     3    1    4 1   
     4    4    5 ar  
     5    4    9 ar  
     6    5    6 ar  
     7    5   10 1   
     8    6    7 ar  
     9    6   12 1   
    10    7    8 ar  
    11    7   13 1   
    12    8    9 ar  
    13    8   14 1   
    14    9   11 1   
    15   10   15 1   
    16   11   16 1   
@<TRIPOS>SUBSTRUCTURE
     1 GRE         1 TEMP              0 ****  ****    0 ROOT
