@<TRIPOS>MOLECULE
GRE
   16    13     1     0     0
SMALL
bcc


@<TRIPOS>ATOM
      1 C1A         1.2000   -0.0010    1.9070 c1        1 GRE      0.375000
      2 O1A         2.4590   -0.0010    1.9070 o         1 GRE     -0.573000
      3 O2A         0.5700   -0.0010    2.9970 os        1 GRE     -0.573000
      4 C1          0.4430   -0.0010    0.5960 c2        1 GRE     -0.282000
      5 C2          0.0830   -1.2010    0.0040 c2        1 GRE      0.171000
      6 C3         -0.6100   -1.2010   -1.1960 c1        1 GRE     -0.255000
      7 C4         -0.9430   -0.0010   -1.8040 c1        1 GRE     -0.166000
      8 C5         -0.5830    1.1990   -1.2120 c1        1 GRE     -0.166000
      9 C6          0.1100    1.1990   -0.0120 c1        1 GRE      0.171000
     10 O2          0.4270   -2.4200    0.6180 oh        1 GRE     -0.307000
     11 O6          0.4830    2.4170    0.5850 oh        1 GRE     -0.307000
     12 H3         -0.8640   -2.0470   -1.6130 ha        1 GRE      0.124000
     13 H4         -1.4240   -0.0010   -2.6540 ha        1 GRE      0.113500
     14 H5         -0.7990    2.0440   -1.6510 ha        1 GRE      0.113500
     15 HO2        -0.3090   -2.8870    0.7830 ho        1 GRE      0.280000
     16 HO6        -0.2430    2.9020    0.7460 ho        1 GRE      0.280000
@<TRIPOS>BOND
     1    1    2 1   
     2    1    4 1   
     3    4    5 1   
     4    4    9 1   
     5    5    6 1   
     6    5   10 1   
     7    6   12 1   
     8    7    8 1   
     9    7   13 1   
    10    8   14 1   
    11    9   11 1   
    12   10   15 1   
    13   11   16 1   
@<TRIPOS>SUBSTRUCTURE
     1 GRE         1 TEMP              0 ****  ****    0 ROOT
