@<TRIPOS>MOLECULE
GRF
   24    24     1     0     0
SMALL
bcc


@<TRIPOS>ATOM
      1 C1          1.5570   -0.7870    0.2870 c3        1 GRF      0.124100
      2 O6          1.5310   -2.1220   -0.1610 oh        1 GRF     -0.682800
      3 C2          3.0260   -0.3330    0.4430 c3        1 GRF      0.109100
      4 O8          3.9670   -1.1230   -0.2560 oh        1 GRF     -0.625800
      5 C3          3.0300    1.1080   -0.1510 c3        1 GRF      0.319300
      6 O4          1.9170    1.1890   -1.0560 os        1 GRF     -0.478600
      7 C5          0.9410    0.1660   -0.7600 c3        1 GRF      0.059100
      8 C10        -0.3850    0.8120   -0.2930 c3        1 GRF      0.226400
      9 O12        -1.4620    0.0810   -0.7160 os        1 GRF     -0.562200
     10 N19         2.9710    2.1520    0.8600 n3        1 GRF     -0.926800
     11 P15        -2.1960   -0.8920    0.5270 p5        1 GRF      1.333900
     12 O16        -2.4390    0.1210    1.6090 o         1 GRF     -0.932833
     13 O17        -1.0250   -1.8180    0.7990 o         1 GRF     -0.932833
     14 O18        -3.3860   -1.4920   -0.1560 o         1 GRF     -0.932833
     15 H1          1.0160   -0.7060    1.2700 h1        1 GRF      0.106700
     16 HO6         0.6050   -2.4270    0.0020 ho        1 GRF      0.509000
     17 H2          3.3580   -0.3530    1.5130 h1        1 GRF      0.058700
     18 HO8         3.4790   -1.6350   -0.9150 ho        1 GRF      0.424000
     19 H3          3.9460    1.2810   -0.7840 h2        1 GRF      0.056700
     20 H5          0.7690   -0.3770   -1.7280 h1        1 GRF      0.067700
     21 H101       -0.3840    0.9210    0.8290 h1        1 GRF     -0.004800
     22 H102       -0.4230    1.8430   -0.7550 h1        1 GRF     -0.004800
     23 H191        2.6800    3.0080    0.4250 hn        1 GRF      0.344800
     24 H192        2.2830    1.9170    1.5520 hn        1 GRF      0.344800
@<TRIPOS>BOND
     1    1    2 1   
     2    1    3 1   
     3    1    7 1   
     4    1   15 1   
     5    2   16 1   
     6    3    4 1   
     7    3    5 1   
     8    3   17 1   
     9    4   18 1   
    10    5    6 1   
    11    5   10 1   
    12    5   19 1   
    13    6    7 1   
    14    7    8 1   
    15    7   20 1   
    16    8    9 1   
    17    8   21 1   
    18    8   22 1   
    19    9   11 1   
    20   10   23 1   
    21   10   24 1   
    22   11   12 1   
    23   11   13 1   
    24   11   14 1   
@<TRIPOS>SUBSTRUCTURE
     1 GRF         1 TEMP              0 ****  ****    0 ROOT
