@<TRIPOS>MOLECULE
GRF
   24    24     1     0     0
SMALL
bcc


@<TRIPOS>ATOM
      1 C1         -0.1940   -0.1660    0.3600 c3        1 GRF      0.124100
      2 O6         -1.0800    0.6810   -0.3340 oh        1 GRF     -0.682800
      3 C2          1.2280    0.0020   -0.2210 c3        1 GRF      0.109100
      4 O8          1.4270    1.1890   -0.9640 oh        1 GRF     -0.625800
      5 C3          2.1390    0.0350    1.0430 c3        1 GRF      0.319300
      6 O4          1.3150    0.4570    2.1410 os        1 GRF     -0.478600
      7 C5         -0.0830    0.2390    1.8450 c3        1 GRF      0.059100
      8 C10        -0.6750   -0.8130    2.8120 c3        1 GRF      0.226400
      9 O12        -1.9800   -0.5260    3.1090 os        1 GRF     -0.562200
     10 N19         2.7880   -1.2370    1.3230 n3        1 GRF     -0.926800
     11 P15        -3.1350   -1.5230    2.2720 p5        1 GRF      1.333900
     12 O16        -2.6470   -2.9060    2.6000 o         1 GRF     -0.932833
     13 O17        -2.8240   -1.0770    0.8560 o         1 GRF     -0.932833
     14 O18        -4.4500   -1.0880    2.8420 o         1 GRF     -0.932833
     15 H1         -0.5340   -1.2340    0.2610 h1        1 GRF      0.106700
     16 HO6        -1.9820    0.3500   -0.1020 ho        1 GRF      0.509000
     17 H2          1.4960   -0.8330   -0.9180 h1        1 GRF      0.058700
     18 HO8         0.7090    1.7940   -0.7360 ho        1 GRF      0.424000
     19 H3          2.9380    0.8240    0.9440 h2        1 GRF      0.056700
     20 H5         -0.5860    1.2280    2.0190 h1        1 GRF      0.067700
     21 H101       -0.5760   -1.8430    2.3640 h1        1 GRF     -0.004800
     22 H102       -0.0540   -0.7700    3.7570 h1        1 GRF     -0.004800
     23 H191        2.1260   -1.9850    1.2230 hn        1 GRF      0.344800
     24 H192        3.1020   -1.2370    2.2750 hn        1 GRF      0.344800
@<TRIPOS>BOND
     1    1    2 1   
     2    1    3 1   
     3    1    7 1   
     4    1   15 1   
     5    2   16 1   
     6    3    4 1   
     7    3    5 1   
     8    3   17 1   
     9    4   18 1   
    10    5    6 1   
    11    5   10 1   
    12    5   19 1   
    13    6    7 1   
    14    7    8 1   
    15    7   20 1   
    16    8    9 1   
    17    8   21 1   
    18    8   22 1   
    19    9   11 1   
    20   10   23 1   
    21   10   24 1   
    22   11   12 1   
    23   11   13 1   
    24   11   14 1   
@<TRIPOS>SUBSTRUCTURE
     1 GRF         1 TEMP              0 ****  ****    0 ROOT
