@<TRIPOS>MOLECULE
GRF
   24    24     1     0     0
SMALL
bcc


@<TRIPOS>ATOM
      1 C1         -0.2720    0.6240   -1.2430 c3        1 GRF      0.119100
      2 O6         -0.5670    1.8410   -2.0220 oh        1 GRF     -0.634800
      3 C2          1.1850    0.1630   -1.4850 c3        1 GRF      0.103100
      4 O8          1.7230    0.8350   -2.5320 oh        1 GRF     -0.580800
      5 C3          1.9510    0.5030   -0.1820 c3        1 GRF      0.325300
      6 O4          1.1510    1.2670    0.4930 os        1 GRF     -0.476600
      7 C5         -0.3350    0.8740    0.0370 c3        1 GRF      0.071100
      8 C10        -0.7970   -0.3510    0.7820 c3        1 GRF      0.207400
      9 O12        -2.1900   -0.2270    1.0770 os        1 GRF     -0.578200
     10 N19         2.2410   -0.7270    0.5760 n3        1 GRF     -0.936800
     11 P15        -2.7910   -1.0720    2.2510 p5        1 GRF      1.320900
     12 O16        -2.6380   -2.5450    1.9410 o         1 GRF     -0.927500
     13 O17        -4.2790   -0.7350    2.4110 o         1 GRF     -0.927500
     14 O18        -2.0620   -0.7480    3.5340 o         1 GRF     -0.927500
     15 H1         -0.8990   -0.0910   -1.4800 h1        1 GRF      0.157700
     16 HO6        -1.2150    1.6720   -2.5940 ho        1 GRF      0.466000
     17 H2          1.2130   -0.8140   -1.6540 h1        1 GRF      0.041700
     18 HO8         2.1830    0.2470   -3.0700 ho        1 GRF      0.359000
     19 H3          2.8070    0.9940   -0.3970 h2        1 GRF      0.029700
     20 H5         -0.9440    1.6220    0.2040 h1        1 GRF      0.036700
     21 H101       -0.6530   -1.1200    0.2480 h1        1 GRF      0.002700
     22 H102       -0.2850   -0.4350    1.6270 h1        1 GRF      0.002700
     23 H191        2.8240   -1.2780    0.0770 hn        1 GRF      0.373300
     24 H192        2.6490   -0.5000    1.4030 hn        1 GRF      0.373300
@<TRIPOS>BOND
     1    1    2 1   
     2    1    3 1   
     3    1    7 1   
     4    1   15 1   
     5    2   16 1   
     6    3    4 1   
     7    3    5 1   
     8    3   17 1   
     9    4   18 1   
    10    5    6 1   
    11    5   10 1   
    12    5   19 1   
    13    6    7 1   
    14    7    8 1   
    15    7   20 1   
    16    8    9 1   
    17    8   21 1   
    18    8   22 1   
    19    9   11 1   
    20   10   23 1   
    21   10   24 1   
    22   11   12 1   
    23   11   13 1   
    24   11   14 1   
@<TRIPOS>SUBSTRUCTURE
     1 GRF         1 TEMP              0 ****  ****    0 ROOT
