@<TRIPOS>MOLECULE
GRF
   25    25     1     0     0
SMALL
bcc


@<TRIPOS>ATOM
      1 C1          0.3520   -0.3060   -0.4000 c3        1 GRF      0.081100
      2 O6          0.0720    0.1420   -1.7060 oh        1 GRF     -0.588800
      3 C2          1.7570    0.1040    0.0980 c3        1 GRF      0.080100
      4 O8          2.1900    1.3020   -0.5220 oh        1 GRF     -0.603800
      5 C3          1.5410    0.3240    1.6240 c3        1 GRF      0.336300
      6 O4          0.1720    0.8030    1.7250 os        1 GRF     -0.464600
      7 C5         -0.6180    0.2820    0.6500 c3        1 GRF      0.084100
      8 C10        -1.6420   -0.7400    1.1530 c3        1 GRF      0.176400
      9 O12        -1.0280   -1.8950    1.6210 os        1 GRF     -0.581200
     10 N19         1.8240   -0.8440    2.4140 n8        1 GRF     -0.921800
     11 P15        -1.5830   -2.5060    3.0680 p5        1 GRF      1.425800
     12 O16        -1.2650   -3.9420    3.0800 o         1 GRF     -0.827000
     13 O17        -0.5290   -1.6650    3.9960 oh        1 GRF     -0.785400
     14 O18        -2.8800   -1.8570    3.3530 o         1 GRF     -0.827000
     15 H1          0.2470   -1.4250   -0.4400 h1        1 GRF      0.124700
     16 HO6         0.3650    1.0600   -1.7710 ho        1 GRF      0.394000
     17 H2          2.5430   -0.6530   -0.1470 h1        1 GRF      0.103700
     18 HO8         1.6480    2.0170   -0.1630 ho        1 GRF      0.400000
     19 H3          2.1580    1.1860    2.0110 h2        1 GRF      0.070700
     20 H5         -1.1690    1.1670    0.2270 h1        1 GRF      0.043700
     21 H101       -2.2680   -0.2690    1.9630 h1        1 GRF      0.041200
     22 H102       -2.2980   -0.9990    0.2710 h1        1 GRF      0.041200
     23 H191        1.4200   -1.6630    1.9980 hn        1 GRF      0.384800
     24 H192        1.4420   -0.7440    3.3390 hn        1 GRF      0.384800
     25 H193       -0.9030   -0.8460    4.3020 ho        1 GRF      0.426000
@<TRIPOS>BOND
     1    1    2 1   
     2    1    3 1   
     3    1    7 1   
     4    1   15 1   
     5    2   16 1   
     6    3    4 1   
     7    3    5 1   
     8    3   17 1   
     9    4   18 1   
    10    5    6 1   
    11    5   10 1   
    12    5   19 1   
    13    6    7 1   
    14    7    8 1   
    15    7   20 1   
    16    8    9 1   
    17    8   21 1   
    18    8   22 1   
    19    9   11 1   
    20   10   23 1   
    21   10   24 1   
    22   11   12 1   
    23   11   13 1   
    24   11   14 1   
    25   13   25 1   
@<TRIPOS>SUBSTRUCTURE
     1 GRF         1 TEMP              0 ****  ****    0 ROOT
