@<TRIPOS>MOLECULE
GRG
   62    63     1     0     0
SMALL
bcc


@<TRIPOS>ATOM
      1 C20         0.0000    0.0000    0.0000 c3        1 GRG     -0.046500
      2 C19         2.2610   -0.0010   -1.3050 c3        1 GRG     -0.046500
      3 C18         1.5060    0.0000    0.0000 c2        1 GRG     -0.209000
      4 C17         2.1610    0.0000    1.1350 c2        1 GRG     -0.193000
      5 C16         1.4080    0.0010    2.4390 c3        1 GRG     -0.071000
      6 C14         1.6030   -0.3410    5.7520 c3        1 GRG     -0.061000
      7 C13         1.1150   -1.1800    4.6000 c2        1 GRG     -0.185000
      8 C15         1.8680   -1.1810    3.2960 c3        1 GRG     -0.041000
      9 C12         0.0350   -1.9100    4.7330 c2        1 GRG     -0.149000
     10 C11        -0.7880   -1.8150    5.9920 c3        1 GRG     -0.079000
     11 C9         -2.2390   -1.4920    5.6310 c3        1 GRG     -0.036000
     12 C8         -3.0610   -1.3970    6.8900 c2        1 GRG     -0.081000
     13 C10        -3.6450   -2.6440    7.5030 c3        1 GRG     -0.115000
     14 C7         -3.2700   -0.2320    7.4510 c2        1 GRG     -0.559000
     15 C6         -3.9860   -0.1510    8.7750 DU        1 GRG     -0.095000
     16 C5         -3.1240    0.6230    9.7740 c3        1 GRG     -0.019000
     17 C3         -3.8410    0.7050   11.0970 c2        1 GRG     -0.062000
     18 C4         -4.8480    1.7980   11.3420 c3        1 GRG     -0.132000
     19 C2         -3.5870   -0.1740   12.0350 c2        1 GRG     -0.564000
     20 C1         -4.3020   -0.0920   13.3580 DU        1 GRG      0.131000
     21 O1         -4.7450   -1.3950   13.7430 os        1 GRG     -0.654000
     22 PA         -5.5500   -1.6820   15.1070 p5        1 GRG      1.387000
     23 O1A        -4.6000   -1.3650   16.3670 o         1 GRG     -0.691500
     24 O3A        -6.0010   -3.2270   15.1500 os        1 GRG     -0.936000
     25 O2A        -6.7500   -0.8160   15.1630 o         1 GRG     -0.691500
     26 PB         -7.1230   -4.0420   15.9680 p5        1 GRG      1.042500
     27 O1B        -7.3390   -5.4860   15.2880 o         1 GRG     -0.664833
     28 O2B        -6.6420   -4.2340   17.4920 o         1 GRG     -0.664833
     29 O3B        -8.3960   -3.2890   15.9420 o         1 GRG     -0.664833
     30 H201       -0.3610    0.0900   -1.0170 hc        1 GRG      0.034833
     31 H202       -0.3610   -0.9260    0.4300 hc        1 GRG      0.034833
     32 H203       -0.3610    0.8360    0.5870 hc        1 GRG      0.034833
     33 H191        1.7360    0.6140   -2.0260 hc        1 GRG      0.034833
     34 H192        3.2560    0.3980   -1.1470 hc        1 GRG      0.034833
     35 H193        2.3330   -1.0150   -1.6790 hc        1 GRG      0.034833
     36 H17         3.2440    0.0000    1.1350 ha        1 GRG      0.094000
     37 H161        0.3460   -0.0870    2.2430 hc        1 GRG      0.063500
     38 H162        1.6020    0.9270    2.9680 hc        1 GRG      0.063500
     39 H141        2.5960    0.0330    5.5310 hc        1 GRG      0.046333
     40 H142        1.6370   -0.9450    6.6510 hc        1 GRG      0.046333
     41 H143        0.9280    0.4930    5.9030 hc        1 GRG      0.046333
     42 H151        1.6740   -2.1070    2.7680 hc        1 GRG      0.044000
     43 H152        2.9300   -1.0930    3.4920 hc        1 GRG      0.044000
     44 H12        -0.3150   -2.5130    3.9040 ha        1 GRG      0.090000
     45 H111       -0.7490   -2.7600    6.5200 hc        1 GRG      0.070500
     46 H112       -0.3900   -1.0310    6.6250 hc        1 GRG      0.070500
     47 HC91       -2.2770   -0.5470    5.1020 hc        1 GRG      0.040500
     48 HC92       -2.6370   -2.2760    4.9970 hc        1 GRG      0.040500
     49 H101       -4.7020   -2.4970    7.6840 hc        1 GRG      0.046667
     50 H102       -3.5070   -3.4780    6.8260 hc        1 GRG      0.046667
     51 H103       -3.1430   -2.8540    8.4400 hc        1 GRG      0.046667
     52 HC7        -4.3510   -0.2520    7.5200 DU        1 GRG      0.247000
     53 HC61       -4.1650   -1.1510    9.1510 ha        1 GRG      0.042000
     54 HC62       -4.9320    0.3600    8.6430 ha        1 GRG      0.042000
     55 HC51       -2.9440    1.6230    9.3980 hc        1 GRG      0.055500
     56 HC52       -2.1780    0.1120    9.9070 hc        1 GRG      0.055500
     57 HC41       -5.8370    1.3640   11.4320 hc        1 GRG      0.044333
     58 HC42       -4.8330    2.4940   10.5130 hc        1 GRG      0.044333
     59 HC43       -4.5990    2.3200   12.2570 hc        1 GRG      0.044333
     60 HC2        -4.6030   -0.5080   12.2020 DU        1 GRG      0.389000
     61 HC11       -5.1570    0.5670   13.2670 ha        1 GRG      0.038000
     62 HC12       -3.6270    0.2950   14.1110 ha        1 GRG      0.038000
@<TRIPOS>BOND
     1    1    3 1   
     2    1   30 1   
     3    1   31 1   
     4    1   32 1   
     5    2    3 1   
     6    2   33 1   
     7    2   34 1   
     8    2   35 1   
     9    3    4 1   
    10    4    5 1   
    11    4   36 1   
    12    5    8 1   
    13    5   37 1   
    14    5   38 1   
    15    6    7 1   
    16    6   39 1   
    17    6   40 1   
    18    6   41 1   
    19    7    8 1   
    20    7    9 1   
    21    8   42 1   
    22    8   43 1   
    23    9   10 1   
    24    9   44 1   
    25   10   11 1   
    26   10   45 1   
    27   10   46 1   
    28   11   12 1   
    29   11   47 1   
    30   11   48 1   
    31   12   13 1   
    32   12   14 1   
    33   13   49 1   
    34   13   50 1   
    35   13   51 1   
    36   14   15 1   
    37   14   52 1   
    38   15   16 1   
    39   15   52 1   
    40   15   53 1   
    41   15   54 1   
    42   16   17 1   
    43   16   55 1   
    44   16   56 1   
    45   17   18 1   
    46   17   19 1   
    47   18   57 1   
    48   18   58 1   
    49   18   59 1   
    50   19   20 1   
    51   19   60 1   
    52   20   21 1   
    53   20   60 1   
    54   20   61 1   
    55   20   62 1   
    56   21   22 1   
    57   22   23 1   
    58   22   24 1   
    59   22   25 1   
    60   24   26 1   
    61   26   27 1   
    62   26   28 1   
    63   26   29 1   
@<TRIPOS>SUBSTRUCTURE
     1 GRG         1 TEMP              0 ****  ****    0 ROOT
