@<TRIPOS>MOLECULE
GRI
   30    30     1     0     0
SMALL
bcc


@<TRIPOS>ATOM
      1 CAA         0.4660    0.3120    0.6950 c3        1 GRI      0.105700
      2 OAB         3.6700   -1.1230    3.0420 o         1 GRI     -0.455000
      3 OAC         4.0310   -1.4010   -5.3890 o         1 GRI     -0.590100
      4 OAD         4.4890    1.1060    3.1940 o         1 GRI     -0.455000
      5 CAE         8.6880   -0.4150   -0.4590 ce        1 GRI     -0.123100
      6 CAF         8.1780    0.1160    0.6600 c1        1 GRI     -0.103800
      7 CAG         2.2350    0.5660   -3.3350 c1        1 GRI     -0.663100
      8 CAH         1.3150    1.3760   -3.3850 c1        1 GRI     -0.233000
      9 CAI         7.8430   -0.2150   -1.6170 ce        1 GRI     -0.178000
     10 NAK         5.5680   -0.1880   -2.4440 nd        1 GRI     -0.631300
     11 NAL         4.6630    0.0610    0.2730 nc        1 GRI     -0.515300
     12 OAM         1.8920    0.1710    0.6670 os        1 GRI     -0.314900
     13 CAO         3.2870   -0.4080   -3.3130 c3        1 GRI     -0.076900
     14 CAP         2.3980   -0.0190   -0.5850 c2        1 GRI      0.177100
     15 CAQ         6.9620    0.5370    0.9840 cf        1 GRI     -0.226700
     16 CAR         6.4870   -0.0740   -1.3950 cd        1 GRI      0.070000
     17 CAS         4.2820   -0.2000   -2.1790 cc        1 GRI      0.552600
     18 CAT         5.9390    0.1180   -0.0030 cd        1 GRI      0.415900
     19 CAU         3.7600   -0.0700   -0.7930 cc        1 GRI     -0.150000
     20 HAA        -0.0160   -0.6490    0.3930 h1        1 GRI      0.052367
     21 HAAA        0.1430    1.1430    0.0220 h1        1 GRI      0.052367
     22 HAAB        0.2460    0.5490    1.7650 h1        1 GRI      0.052367
     23 HAE         9.5960   -1.0200   -0.5310 ha        1 GRI      0.136000
     24 HAF         6.6830    1.2240    1.7900 ha        1 GRI      0.158000
     25 HAG         2.8580   -1.4440   -3.1360 hc        1 GRI      0.048700
     26 HAH         1.6700   -0.0950   -1.4270 h4        1 GRI      0.225000
     27 HAI         8.2630   -0.3070   -2.6250 ha        1 GRI      0.144000
     28 HAJ         4.4080    0.5710   -4.9720 h4        1 GRI      0.000200
     29 CAN         4.0800   -0.0060    3.0800 c1        1 GRI      0.907000
     30 CAJ         3.9800   -0.4060   -4.6610 c         1 GRI      0.618900
@<TRIPOS>BOND
     1    1   12 1   
     2    1   20 1   
     3    1   21 1   
     4    1   22 1   
     5    2   29 2   
     6    3   30 2   
     7    4   29 2   
     8    5    6 2   
     9    5    9 1   
    10    5   23 1   
    11    6   15 2   
    12    7    8 3   
    13    7   13 1   
    14    9   16 2   
    15    9   27 1   
    16   10   16 1   
    17   10   17 2   
    18   11   18 2   
    19   11   19 1   
    20   12   14 1   
    21   13   17 1   
    22   13   25 1   
    23   13   30 1   
    24   14   19 2   
    25   14   26 1   
    26   15   18 1   
    27   15   24 1   
    28   16   18 1   
    29   17   19 1   
    30   28   30 1   
@<TRIPOS>SUBSTRUCTURE
     1 GRI         1 TEMP              0 ****  ****    0 ROOT
