@<TRIPOS>MOLECULE
GRI
   30    32     1     0     0
SMALL
bcc


@<TRIPOS>ATOM
      1 CAA         1.9180   -4.0600    0.0620 c3        1 GRI      0.106700
      2 OAB        -3.7180   -1.6060   -1.1650 o         1 GRI     -0.806300
      3 OAC         4.7050    2.3790    0.0370 o         1 GRI     -0.584100
      4 OAD        -3.7500   -1.5840    1.0790 o         1 GRI     -0.806300
      5 CAE        -2.9530    2.7040   -0.0750 ca        1 GRI     -0.078000
      6 CAF        -3.5370    1.4120   -0.0700 ca        1 GRI     -0.168000
      7 CAG         3.6160   -0.2260    0.0480 ca        1 GRI     -0.005000
      8 CAH         3.0570   -1.5230    0.0530 ca        1 GRI     -0.293000
      9 CAI        -1.5970    2.8720   -0.0570 ca        1 GRI     -0.240300
     10 NAK         0.6160    1.8900   -0.0160 nb        1 GRI     -0.684000
     11 NAL        -0.5500   -0.7110   -0.0060 nb        1 GRI     -0.524000
     12 OAM         1.0720   -2.9150    0.0390 os        1 GRI     -0.269900
     13 CAO         2.8380    0.9050    0.0250 ca        1 GRI     -0.290900
     14 CAP         1.6900   -1.6910    0.0350 ca        1 GRI      0.158800
     15 CAQ        -2.7730    0.2750   -0.0480 ca        1 GRI     -0.102900
     16 CAR        -0.7320    1.7250   -0.0340 ca        1 GRI      0.334300
     17 CAS         1.3950    0.7840    0.0060 ca        1 GRI      0.355300
     18 CAT        -1.3320    0.3940   -0.0290 ca        1 GRI      0.305300
     19 CAU         0.7930   -0.5410    0.0110 ca        1 GRI      0.245300
     20 HAA         1.1890   -4.9100    0.0600 h1        1 GRI      0.044700
     21 HAAA        2.5670   -4.0920   -0.8470 h1        1 GRI      0.044700
     22 HAAB        2.5410   -4.0730    0.9890 h1        1 GRI      0.044700
     23 HAE        -3.6160    3.5830   -0.0930 ha        1 GRI      0.115000
     24 HAF        -4.6340    1.3230   -0.0850 ha        1 GRI      0.144000
     25 HAG         4.7150   -0.1240    0.0620 ha        1 GRI      0.144000
     26 HAH         3.7390   -2.3840    0.0710 ha        1 GRI      0.135000
     27 HAI        -1.1460    3.8740   -0.0610 ha        1 GRI      0.131000
     28 HAJ         2.8010    3.1120    0.0030 h4        1 GRI      0.024200
     29 CAN        -3.4580   -1.0980   -0.0440 c         1 GRI      0.926200
     30 CAJ         3.4760    2.2280    0.0210 c         1 GRI      0.590500
@<TRIPOS>BOND
     1    1   12 1   
     2    1   20 1   
     3    1   21 1   
     4    1   22 1   
     5    2   29 1   
     6    3   30 2   
     7    4   29 1   
     8    5    6 ar  
     9    5    9 ar  
    10    5   23 1   
    11    6   15 ar  
    12    6   24 1   
    13    7    8 ar  
    14    7   13 ar  
    15    7   25 1   
    16    8   14 ar  
    17    8   26 1   
    18    9   16 ar  
    19    9   27 1   
    20   10   16 ar  
    21   10   17 ar  
    22   11   18 ar  
    23   11   19 ar  
    24   12   14 1   
    25   13   17 ar  
    26   13   30 1   
    27   14   19 ar  
    28   15   18 ar  
    29   15   29 1   
    30   16   18 ar  
    31   17   19 ar  
    32   28   30 1   
@<TRIPOS>SUBSTRUCTURE
     1 GRI         1 TEMP              0 ****  ****    0 ROOT
