@<TRIPOS>MOLECULE
GRL
   81    83     1     0     0
SMALL
bcc


@<TRIPOS>ATOM
      1 C11        -1.5550   -0.5640    1.2040 c3        1 GRL      0.173100
      2 C12        -0.1930   -0.5520    1.9010 c3        1 GRL     -0.083400
      3 O1         -0.3060   -3.3180    0.0090 os        1 GRL     -0.438600
      4 C14         1.1190   -3.1650   -0.0650 c3        1 GRL      0.125400
      5 C15         0.3310   -1.9860    1.9140 c3        1 GRL     -0.093700
      6 C16        -2.0120   -2.0130    1.1030 c3        1 GRL     -0.122400
      7 C2          1.5640   -2.2170    1.0460 c3        1 GRL     -0.106400
      8 C1         -0.7690   -2.8790    1.2930 c3        1 GRL      0.137100
      9 O13        -1.2600   -0.0070   -0.1360 os        1 GRL     -0.400900
     10 C21        -2.2790    0.0850   -0.9990 c         1 GRL      0.629100
     11 C22        -2.8570    0.8490   -3.3200 c3        1 GRL      0.148500
     12 C23        -2.2620    1.6900   -4.4600 c3        1 GRL     -0.053100
     13 C24        -1.3800    2.7790   -3.9590 ca        1 GRL     -0.175300
     14 C25        -1.9330    3.9700   -3.4750 ca        1 GRL     -0.131500
     15 C26        -1.1030    5.0060   -3.0500 ca        1 GRL     -0.112000
     16 C27         0.2840    4.8600   -3.1080 ca        1 GRL     -0.091000
     17 C28         0.8400    3.6760   -3.5940 ca        1 GRL     -0.112000
     18 C29         0.0130    2.6380   -4.0190 ca        1 GRL     -0.131500
     19 O21        -3.4710   -0.0620   -0.7610 o         1 GRL     -0.457000
     20 N21        -1.7670    0.4310   -2.3620 ny        1 GRL     -0.645800
     21 C31        -3.6130   -0.3970   -3.8530 c3        1 GRL      0.095100
     22 C32        -4.6370    0.0220   -4.9250 c3        1 GRL      0.098800
     23 C33        -6.4920   -1.5170   -4.3360 c3        1 GRL      0.125800
     24 C34        -7.1100   -0.5060   -3.3620 c3        1 GRL     -0.069700
     25 C35        -8.0190    0.4830   -4.0540 c3        1 GRL     -0.105600
     26 C36        -7.8830   -1.2770   -2.3070 c3        1 GRL     -0.105600
     27 O31        -2.6260   -1.2530   -4.4070 oh        1 GRL     -0.610800
     28 O32        -6.5670    1.1130   -7.0180 o         1 GRL     -0.434400
     29 O33        -5.3750   -0.6350   -8.0910 o         1 GRL     -0.434400
     30 N31        -5.5770   -1.0020   -5.3550 n7        1 GRL     -0.899200
     31 S31        -6.5090   -0.1430   -7.5280 s4        1 GRL      1.684300
     32 C41        -7.8210   -0.9350   -7.7170 ca        1 GRL     -0.640500
     33 C42        -9.0800   -0.4130   -7.3020 ca        1 GRL      0.034500
     34 C43       -10.2580   -1.0900   -7.5380 ca        1 GRL     -0.150500
     35 C44       -10.2440   -2.3350   -8.1990 ca        1 GRL      0.100700
     36 C45        -9.0130   -2.8800   -8.6090 ca        1 GRL     -0.150500
     37 C46        -7.8370   -2.1990   -8.3760 ca        1 GRL      0.034500
     38 C3        -11.5340   -3.0400   -8.4550 c3        1 GRL      0.141700
     39 O2        -11.2520   -4.3180   -8.9930 oh        1 GRL     -0.599800
     40 H11        -2.3160    0.1150    1.6660 h1        1 GRL      0.093700
     41 H121       -0.3360   -0.1720    2.9460 hc        1 GRL      0.086700
     42 H122        0.5130    0.1440    1.3810 hc        1 GRL      0.086700
     43 H141        1.5760   -4.1820    0.0450 h1        1 GRL      0.056200
     44 H142        1.3320   -2.7640   -1.0880 h1        1 GRL      0.056200
     45 H15         0.5380   -2.2980    2.9700 hc        1 GRL      0.092700
     46 H161       -2.5050   -2.2300    0.1230 hc        1 GRL      0.081700
     47 H162       -2.7510   -2.2230    1.9180 hc        1 GRL      0.081700
     48 H21         2.3880   -2.6780    1.6460 hc        1 GRL      0.067700
     49 H22A        1.9570   -1.2610    0.6190 hc        1 GRL      0.067700
     50 H1         -0.9870   -3.7910    1.9060 h1        1 GRL      0.086700
     51 H22        -3.5910    1.4760   -2.7280 hx        1 GRL      0.121700
     52 H231       -3.1250    2.1410   -5.0230 hc        1 GRL      0.092700
     53 H232       -1.7040    1.0180   -5.1680 hc        1 GRL      0.092700
     54 H25        -3.0260    4.1010   -3.4490 ha        1 GRL      0.136500
     55 H26        -1.5430    5.9460   -2.6790 ha        1 GRL      0.161000
     56 H27         0.9400    5.6840   -2.7820 ha        1 GRL      0.165000
     57 H28         1.9350    3.5660   -3.6580 ha        1 GRL      0.161000
     58 H29         0.4590    1.7240   -4.4420 ha        1 GRL      0.136500
     59 HN21       -1.0760    1.2000   -2.2790 hn        1 GRL      0.490800
     60 H31        -4.1370   -0.9020   -2.9890 h1        1 GRL      0.081700
     61 H321       -5.2220    0.9090   -4.5460 h1        1 GRL      0.096200
     62 H322       -4.0620    0.3380   -5.8470 h1        1 GRL      0.096200
     63 H331       -7.3280   -2.0300   -4.8940 h1        1 GRL      0.061700
     64 H332       -5.9710   -2.3050   -3.7150 h1        1 GRL      0.061700
     65 H34        -6.2840    0.0600   -2.8440 hc        1 GRL      0.049700
     66 H351       -8.4720    1.1740   -3.2990 hc        1 GRL      0.051200
     67 H352       -7.4610    1.1000   -4.7990 hc        1 GRL      0.051200
     68 H353       -8.8520   -0.0490   -4.5760 hc        1 GRL      0.051200
     69 H361       -8.3440   -0.5640   -1.5800 hc        1 GRL      0.051200
     70 H362       -8.6990   -1.8780   -2.7750 hc        1 GRL      0.051200
     71 H363       -7.2080   -1.9670   -1.7460 hc        1 GRL      0.051200
     72 HO31       -3.0100   -2.1350   -4.5010 ho        1 GRL      0.438000
     73 H42        -9.1040    0.5660   -6.7850 ha        1 GRL      0.173500
     74 H43       -11.2210   -0.6550   -7.2150 ha        1 GRL      0.196000
     75 H45        -9.0060   -3.8600   -9.1270 ha        1 GRL      0.196000
     76 H46        -6.8780   -2.6330   -8.7200 ha        1 GRL      0.173500
     77 H31A      -12.1060   -3.1440   -7.4890 h1        1 GRL      0.080200
     78 H32       -12.1480   -2.4300   -9.1790 h1        1 GRL      0.080200
     79 HO2       -12.0990   -4.7140   -9.2420 ho        1 GRL      0.443000
     80 H212       -1.2840   -0.3970   -2.7470 hn        1 GRL      0.490800
     81 H311       -5.0480   -1.7850   -5.7180 hn        1 GRL      0.385800
@<TRIPOS>BOND
     1    1    2 1   
     2    1    6 1   
     3    1    9 1   
     4    1   40 1   
     5    2    5 1   
     6    2   41 1   
     7    2   42 1   
     8    3    4 1   
     9    3    8 1   
    10    4    7 1   
    11    4   43 1   
    12    4   44 1   
    13    5    7 1   
    14    5    8 1   
    15    5   45 1   
    16    6    8 1   
    17    6   46 1   
    18    6   47 1   
    19    7   48 1   
    20    7   49 1   
    21    8   50 1   
    22    9   10 1   
    23   10   19 2   
    24   10   20 1   
    25   11   12 1   
    26   11   20 1   
    27   11   21 1   
    28   11   51 1   
    29   12   13 1   
    30   12   52 1   
    31   12   53 1   
    32   13   14 ar  
    33   13   18 ar  
    34   14   15 ar  
    35   14   54 1   
    36   15   16 ar  
    37   15   55 1   
    38   16   17 ar  
    39   16   56 1   
    40   17   18 ar  
    41   17   57 1   
    42   18   58 1   
    43   20   59 1   
    44   20   80 1   
    45   21   22 1   
    46   21   27 1   
    47   21   60 1   
    48   22   30 1   
    49   22   61 1   
    50   22   62 1   
    51   23   24 1   
    52   23   30 1   
    53   23   63 1   
    54   23   64 1   
    55   24   25 1   
    56   24   26 1   
    57   24   65 1   
    58   25   66 1   
    59   25   67 1   
    60   25   68 1   
    61   26   69 1   
    62   26   70 1   
    63   26   71 1   
    64   27   72 1   
    65   28   31 1   
    66   29   31 1   
    67   30   81 1   
    68   31   32 1   
    69   32   33 ar  
    70   32   37 ar  
    71   33   34 ar  
    72   33   73 1   
    73   34   35 ar  
    74   34   74 1   
    75   35   36 ar  
    76   35   38 1   
    77   36   37 ar  
    78   36   75 1   
    79   37   76 1   
    80   38   39 1   
    81   38   77 1   
    82   38   78 1   
    83   39   79 1   
@<TRIPOS>SUBSTRUCTURE
     1 GRL         1 TEMP              0 ****  ****    0 ROOT
