@<TRIPOS>MOLECULE
GRL
   81    83     1     0     0
SMALL
bcc


@<TRIPOS>ATOM
      1 C11        -1.2760   -1.0030    0.9110 c3        1 GRL      0.173100
      2 C12         0.1200   -0.7340    1.4720 c3        1 GRL     -0.083400
      3 O1          0.4620   -3.0800   -0.8920 os        1 GRL     -0.435600
      4 C14         1.7840   -2.5450   -1.0460 c3        1 GRL      0.125400
      5 C15         0.9810   -1.9600    1.1770 c3        1 GRL     -0.093700
      6 C16        -1.3640   -2.4820    0.5620 c3        1 GRL     -0.122400
      7 C2          2.1170   -1.7110    0.1890 c3        1 GRL     -0.106400
      8 C1          0.0700   -3.0000    0.4840 c3        1 GRL      0.137100
      9 O13        -1.3210   -0.1750   -0.3180 os        1 GRL     -0.399900
     10 C21        -2.4570   -0.1950   -1.0230 c         1 GRL      0.632100
     11 C22        -3.5330    0.9460   -2.9800 c3        1 GRL      0.103500
     12 C23        -3.2550    2.1150   -3.9360 c3        1 GRL     -0.052100
     13 C24        -2.4330    3.1790   -3.3010 ca        1 GRL     -0.174300
     14 C25        -3.0290    4.1180   -2.4510 ca        1 GRL     -0.131000
     15 C26        -2.2640    5.1410   -1.8910 ca        1 GRL     -0.110000
     16 C27        -0.9010    5.2330   -2.1780 ca        1 GRL     -0.089000
     17 C28        -0.3030    4.3010   -3.0290 ca        1 GRL     -0.110000
     18 C29        -1.0650    3.2770   -3.5890 ca        1 GRL     -0.131000
     19 O21        -3.5440   -0.6420   -0.6760 o         1 GRL     -0.453000
     20 N21        -2.2480    0.4580   -2.3570 n4        1 GRL     -0.645800
     21 C31        -4.2530   -0.2380   -3.6830 c3        1 GRL      0.110100
     22 C32        -5.5600    0.2470   -4.3300 c3        1 GRL      0.106800
     23 C33        -6.8060   -1.8390   -3.8430 c3        1 GRL      0.109800
     24 C34        -7.4790   -1.3580   -2.5520 c3        1 GRL     -0.084700
     25 C35        -8.7390   -0.5720   -2.8400 c3        1 GRL     -0.103100
     26 C36        -7.7880   -2.5650   -1.6900 c3        1 GRL     -0.103100
     27 O31        -3.3860   -0.8690   -4.5980 oh        1 GRL     -0.603800
     28 O32        -4.6500   -0.9830   -6.9480 o         1 GRL     -0.445900
     29 O33        -5.3600   -3.1060   -6.1140 o         1 GRL     -0.445900
     30 N31        -6.4440   -0.8130   -4.8220 n3        1 GRL     -0.903200
     31 S31        -5.6030   -1.9430   -6.7670 s4        1 GRL      1.690300
     32 C41        -6.9050   -1.8310   -7.6010 ca        1 GRL     -0.637500
     33 C42        -7.1530   -0.7240   -8.4610 ca        1 GRL      0.029500
     34 C43        -8.2850   -0.6540   -9.2480 ca        1 GRL     -0.148000
     35 C44        -9.2330   -1.6930   -9.2200 ca        1 GRL      0.095700
     36 C45        -9.0160   -2.8000   -8.3770 ca        1 GRL     -0.148000
     37 C46        -7.8850   -2.8650   -7.5900 ca        1 GRL      0.029500
     38 C3        -10.4590   -1.6540  -10.0720 c3        1 GRL      0.142700
     39 O2        -10.5210   -0.3940  -10.7160 oh        1 GRL     -0.600800
     40 H11        -2.1130   -0.6450    1.5630 h1        1 GRL      0.093700
     41 H121        0.0310   -0.5700    2.5780 hc        1 GRL      0.085700
     42 H122        0.5550    0.1970    1.0260 hc        1 GRL      0.085700
     43 H141        1.7630   -1.9380   -1.9860 h1        1 GRL      0.056200
     44 H142        2.4880   -3.4080   -1.1700 h1        1 GRL      0.056200
     45 H15         1.3870   -2.3720    2.1360 hc        1 GRL      0.092700
     46 H161       -1.9200   -3.0200    1.3730 hc        1 GRL      0.083700
     47 H162       -1.9050   -2.6540   -0.4020 hc        1 GRL      0.083700
     48 H21         2.2100   -0.6290   -0.0740 hc        1 GRL      0.067200
     49 H22A        3.0960   -2.0340    0.6260 hc        1 GRL      0.067200
     50 H1          0.1670   -4.0260    0.9250 h1        1 GRL      0.087700
     51 H22        -4.1910    1.3110   -2.1330 hx        1 GRL      0.125700
     52 H231       -4.2520    2.5410   -4.2340 hc        1 GRL      0.082200
     53 H232       -2.7530    1.7370   -4.8680 hc        1 GRL      0.082200
     54 H25        -4.1080    4.0640   -2.2380 ha        1 GRL      0.135000
     55 H26        -2.7400    5.8840   -1.2310 ha        1 GRL      0.162000
     56 H27        -0.3000    6.0490   -1.7430 ha        1 GRL      0.166000
     57 H28         0.7690    4.3840   -3.2690 ha        1 GRL      0.162000
     58 H29        -0.5930    2.5740   -4.2930 ha        1 GRL      0.135000
     59 HN21       -1.8150   -0.2390   -2.9840 hn        1 GRL      0.488300
     60 H31        -4.4670   -1.0340   -2.9030 h1        1 GRL      0.124700
     61 H321       -5.3010    0.8880   -5.2240 h1        1 GRL      0.081700
     62 H322       -6.1000    0.8890   -3.5730 h1        1 GRL      0.081700
     63 H331       -7.5110   -2.5500   -4.3670 h1        1 GRL      0.080700
     64 H332       -5.8750   -2.4220   -3.5830 h1        1 GRL      0.080700
     65 H34        -6.7570   -0.6980   -1.9930 hc        1 GRL      0.047700
     66 H351       -9.2840   -0.3650   -1.8850 hc        1 GRL      0.051700
     67 H352       -8.5040    0.4090   -3.3200 hc        1 GRL      0.051700
     68 H353       -9.4220   -1.1470   -3.5100 hc        1 GRL      0.051700
     69 H361       -8.2190   -2.2340   -0.7140 hc        1 GRL      0.051700
     70 H362       -6.8610   -3.1530   -1.4860 hc        1 GRL      0.051700
     71 H363       -8.5310   -3.2310   -2.1930 hc        1 GRL      0.051700
     72 HO31       -3.2930   -0.3090   -5.3870 ho        1 GRL      0.441000
     73 H42        -6.4070    0.0930   -8.5070 ha        1 GRL      0.169500
     74 H43        -8.4580    0.2140   -9.9140 ha        1 GRL      0.196000
     75 H45        -9.7550   -3.6210   -8.3520 ha        1 GRL      0.196000
     76 H46        -7.7210   -3.7460   -6.9390 ha        1 GRL      0.169500
     77 H31A      -11.3710   -1.8040   -9.4270 h1        1 GRL      0.080200
     78 H32       -10.4050   -2.4860  -10.8310 h1        1 GRL      0.080200
     79 HO2       -11.2710   -0.4260  -11.3260 ho        1 GRL      0.443000
     80 H212       -1.5950    1.2540   -2.2450 hn        1 GRL      0.488300
     81 H311       -7.2970   -0.3560   -5.1260 hn        1 GRL      0.400800
@<TRIPOS>BOND
     1    1    2 1   
     2    1    6 1   
     3    1    9 1   
     4    1   40 1   
     5    2    5 1   
     6    2   41 1   
     7    2   42 1   
     8    3    4 1   
     9    3    8 1   
    10    4    7 1   
    11    4   43 1   
    12    4   44 1   
    13    5    7 1   
    14    5    8 1   
    15    5   45 1   
    16    6    8 1   
    17    6   46 1   
    18    6   47 1   
    19    7   48 1   
    20    7   49 1   
    21    8   50 1   
    22    9   10 1   
    23   10   19 2   
    24   10   20 1   
    25   11   12 1   
    26   11   20 1   
    27   11   21 1   
    28   11   51 1   
    29   12   13 1   
    30   12   52 1   
    31   12   53 1   
    32   13   14 ar  
    33   13   18 ar  
    34   14   15 ar  
    35   14   54 1   
    36   15   16 ar  
    37   15   55 1   
    38   16   17 ar  
    39   16   56 1   
    40   17   18 ar  
    41   17   57 1   
    42   18   58 1   
    43   20   59 1   
    44   20   80 1   
    45   21   22 1   
    46   21   27 1   
    47   21   60 1   
    48   22   30 1   
    49   22   61 1   
    50   22   62 1   
    51   23   24 1   
    52   23   30 1   
    53   23   63 1   
    54   23   64 1   
    55   24   25 1   
    56   24   26 1   
    57   24   65 1   
    58   25   66 1   
    59   25   67 1   
    60   25   68 1   
    61   26   69 1   
    62   26   70 1   
    63   26   71 1   
    64   27   72 1   
    65   28   31 1   
    66   29   31 1   
    67   30   81 1   
    68   31   32 1   
    69   32   33 ar  
    70   32   37 ar  
    71   33   34 ar  
    72   33   73 1   
    73   34   35 ar  
    74   34   74 1   
    75   35   36 ar  
    76   35   38 1   
    77   36   37 ar  
    78   36   75 1   
    79   37   76 1   
    80   38   39 1   
    81   38   77 1   
    82   38   78 1   
    83   39   79 1   
@<TRIPOS>SUBSTRUCTURE
     1 GRL         1 TEMP              0 ****  ****    0 ROOT
