@<TRIPOS>MOLECULE
GRL
   79    77     1     0     0
SMALL
bcc


@<TRIPOS>ATOM
      1 C11         2.9690   -0.4480    3.6020 c3        1 GRL      0.045000
      2 C12         4.2830   -1.1970    4.2360 c3        1 GRL     -0.161000
      3 O1          2.7220   -3.7070    3.5420 os        1 GRL     -0.276000
      4 C14         3.9300   -4.4420    4.3110 c3        1 GRL     -0.023000
      5 C15         3.8120   -2.2630    4.9130 c3        1 GRL     -0.128000
      6 C16         2.1330   -1.4110    3.2460 c3        1 GRL     -0.201000
      7 C2          4.7260   -3.4870    4.7430 c3        1 GRL     -0.181000
      8 C1          2.4750   -2.6330    4.2130 c3        1 GRL      0.032000
      9 O13         3.3480    0.3260    2.4520 os        1 GRL     -0.281000
     10 C21         2.2820    1.1210    1.9070 c2        1 GRL      0.381000
     11 C22         1.2730    2.3150   -0.0250 c3        1 GRL     -0.003000
     12 C23         1.8590    3.3820   -0.9410 c3        1 GRL     -0.138000
     13 C24         2.2370    4.6290   -0.1060 c2        1 GRL     -0.089000
     14 C25         1.2490    5.3590    0.5340 c2        1 GRL     -0.122000
     15 C26         1.5800    6.5230    1.2270 c1        1 GRL     -0.124000
     16 C27         2.8970    6.9490    1.2740 c1        1 GRL     -0.126000
     17 C28         3.8900    6.2160    0.6310 c1        1 GRL     -0.126000
     18 C29         3.5600    5.0570   -0.0580 c1        1 GRL     -0.135000
     19 O21         1.3820    1.5150    2.6330 o         1 GRL     -0.401000
     20 N21         2.3200    1.5250    0.5130 n         1 GRL     -0.336000
     21 C31         0.3210    1.4250   -0.8210 c3        1 GRL     -0.001000
     22 C32        -1.0970    1.9990   -0.7490 c3        1 GRL     -0.012000
     23 C33        -2.6420    0.0230   -0.2760 c3        1 GRL     -0.023000
     24 C34        -2.9110   -1.3070   -0.9840 c3        1 GRL     -0.125000
     25 C35        -1.7760   -2.2710   -0.6950 c3        1 GRL     -0.211500
     26 C36        -4.2230   -1.8990   -0.4740 c3        1 GRL     -0.211500
     27 O31         0.7320    1.3730   -2.1440 oh        1 GRL     -0.334000
     28 O32        -3.7570    2.1420   -2.8110 o         1 GRL     -0.543400
     29 O33        -1.7950    1.6490   -3.7160 o         1 GRL     -0.543400
     30 N31        -2.0750    0.9780   -1.2250 n3        1 GRL     -0.819000
     31 S31        -2.7510    1.1250   -2.7780 s4        1 GRL      2.058800
     32 C41        -3.4090   -0.4730   -3.3320 c1        1 GRL     -0.823000
     33 C42        -4.7630   -0.7370   -3.2060 c2        1 GRL     -0.021000
     34 C43        -5.3130   -1.8590   -3.8160 c1        1 GRL     -0.135000
     35 C44        -4.5080   -2.7150   -4.5510 c1        1 GRL     -0.017000
     36 C45        -3.1540   -2.4520   -4.6780 c1        1 GRL     -0.165000
     37 C46        -2.6020   -1.3310   -4.0700 c1        1 GRL     -0.003000
     38 C3         -5.0850   -4.0330   -5.0910 c3        1 GRL      0.008000
     39 O2         -5.5870   -3.8270   -6.3980 oh        1 GRL     -0.324000
     40 H11         2.5520    0.1310    4.2770 h1        1 GRL      0.125000
     41 H121        4.7570   -0.5910    4.8480 hc        1 GRL      0.101000
     42 H122        4.8790   -1.4880    3.5250 hc        1 GRL      0.101000
     43 H141        4.4130   -5.0290    3.6950 h1        1 GRL      0.086000
     44 H142        3.5810   -4.9630    5.0730 h1        1 GRL      0.086000
     45 H15         3.6710   -2.0500    5.8630 hc        1 GRL      0.104000
     46 H161        1.2060   -1.1230    3.3770 hc        1 GRL      0.110500
     47 H162        2.2830   -1.6630    2.3170 hc        1 GRL      0.110500
     48 H21         5.4250   -3.3010    4.0820 hc        1 GRL      0.094000
     49 H22A        5.1260   -3.7370    5.6040 hc        1 GRL      0.094000
     50 H1          1.7600   -2.7800    4.8690 h1        1 GRL      0.107000
     51 H22         0.7810    2.7470    0.7060 h1        1 GRL      0.100000
     52 H231        2.6600    3.0300   -1.3820 hc        1 GRL      0.113500
     53 H232        1.1950    3.6300   -1.6180 hc        1 GRL      0.113500
     54 H25         0.3190    5.0580    0.5010 ha        1 GRL      0.134000
     55 H26         0.8810    7.0390    1.6800 ha        1 GRL      0.135000
     56 H27         3.1290    7.7660    1.7600 ha        1 GRL      0.134000
     57 H28         4.8210    6.5180    0.6660 ha        1 GRL      0.134000
     58 H29         4.2540    4.5430   -0.5080 ha        1 GRL      0.133000
     59 HN21        3.0300    1.2910   -0.0110 hn        1 GRL      0.239000
     60 H31         0.3260    0.5250   -0.4440 h1        1 GRL      0.118000
     61 H321       -1.3030    2.2430    0.1760 h1        1 GRL      0.107500
     62 H322       -1.1550    2.7930   -1.3160 h1        1 GRL      0.107500
     63 H331       -2.0120   -0.1210    0.4580 h1        1 GRL      0.099000
     64 H332       -3.4820    0.3770    0.0810 h1        1 GRL      0.099000
     65 H34        -2.9740   -1.1570   -1.9450 hc        1 GRL      0.091000
     66 H351       -1.6640   -2.3640    0.2750 hc        1 GRL      0.078500
     67 H352       -0.9470   -1.9250   -1.0880 hc        1 GRL      0.078500
     68 H353       -1.9830   -3.1470   -1.0870 hc        1 GRL      0.078500
     69 H361       -4.9550   -1.2650   -0.6400 hc        1 GRL      0.078500
     70 H362       -4.4070   -2.7410   -0.9440 hc        1 GRL      0.078500
     71 H363       -4.1520   -2.0710    0.4930 hc        1 GRL      0.078500
     72 HO31        1.3400    0.7210   -2.2420 ho        1 GRL      0.212000
     73 H42        -5.3350   -0.1320   -2.6860 ha        1 GRL      0.161000
     74 H43        -6.2740   -2.0460   -3.7250 ha        1 GRL      0.161000
     75 H45        -2.5840   -3.0580   -5.1990 ha        1 GRL      0.136000
     76 H46        -1.6450   -1.1460   -4.1600 ha        1 GRL      0.160000
     77 H31A       -5.8130   -4.3360   -4.5060 h1        1 GRL      0.078000
     78 H32        -4.3840   -4.7090   -5.1150 h1        1 GRL      0.078000
     79 HO2        -5.8510   -4.6080   -6.7410 ho        1 GRL      0.205000
@<TRIPOS>BOND
     1    1    2 1   
     2    1    6 1   
     3    1    9 1   
     4    1   40 1   
     5    2    5 1   
     6    2   41 1   
     7    2   42 1   
     8    3    4 1   
     9    3    8 1   
    10    4    7 1   
    11    4   43 1   
    12    4   44 1   
    13    5    7 1   
    14    5    8 1   
    15    5   45 1   
    16    6    8 1   
    17    6   46 1   
    18    6   47 1   
    19    7   48 1   
    20    7   49 1   
    21    8   50 1   
    22    9   10 1   
    23   10   19 1   
    24   10   20 1   
    25   11   12 1   
    26   11   20 1   
    27   11   21 1   
    28   11   51 1   
    29   12   13 1   
    30   12   52 1   
    31   12   53 1   
    32   13   14 1   
    33   13   18 1   
    34   14   15 1   
    35   14   54 1   
    36   15   55 1   
    37   16   17 1   
    38   16   56 1   
    39   17   57 1   
    40   18   58 1   
    41   20   59 1   
    42   21   22 1   
    43   21   27 1   
    44   21   60 1   
    45   22   30 1   
    46   22   61 1   
    47   22   62 1   
    48   23   24 1   
    49   23   30 1   
    50   23   63 1   
    51   23   64 1   
    52   24   25 1   
    53   24   26 1   
    54   24   65 1   
    55   25   66 1   
    56   25   67 1   
    57   25   68 1   
    58   26   69 1   
    59   26   70 1   
    60   26   71 1   
    61   27   72 1   
    62   28   31 1   
    63   29   31 1   
    64   30   31 1   
    65   32   33 1   
    66   32   37 1   
    67   33   34 1   
    68   33   73 1   
    69   34   74 1   
    70   35   36 1   
    71   35   38 1   
    72   36   75 1   
    73   37   76 1   
    74   38   39 1   
    75   38   77 1   
    76   38   78 1   
    77   39   79 1   
@<TRIPOS>SUBSTRUCTURE
     1 GRL         1 TEMP              0 ****  ****    0 ROOT
