@<TRIPOS>MOLECULE
GRM
   60    64     1     0     0
SMALL
bcc


@<TRIPOS>ATOM
      1 C1          1.4760    0.0520   -0.0460 c3        1 GRM      0.235800
      2 C2         -0.0390   -0.1780   -0.0210 c3        1 GRM     -0.096100
      3 C3          1.9730    0.0430    1.3850 ca        1 GRM     -0.103300
      4 N4          1.8560    1.2990   -0.7410 n3        1 GRM     -0.729600
      5 C5          1.3100    1.3860   -2.0860 c3        1 GRM      0.162300
      6 C6          1.6840    2.6780   -2.8120 c3        1 GRM     -0.092900
      7 C7          3.1890    2.9330   -2.7980 c3        1 GRM     -0.128700
      8 C8          3.6890    2.8500   -1.3660 c3        1 GRM     -0.092900
      9 C9          3.2890    1.5320   -0.7030 c3        1 GRM      0.162300
     10 C10         3.8630    1.9850   -3.7650 c         1 GRM      0.543100
     11 O11         3.3810    1.4720   -4.7620 o         1 GRM     -0.410100
     12 N12         5.3200    1.6690   -3.4940 n4        1 GRM     -0.685800
     13 C13         5.9880    0.8850   -4.5870 c3        1 GRM      0.179100
     14 C14         7.4080    0.6030   -4.2400 ca        1 GRM     -0.197300
     15 C15         7.6820   -0.4610   -3.3480 ca        1 GRM     -0.110000
     16 C16         9.0110   -0.7070   -3.0870 ca        1 GRM      0.069100
     17 C17        10.0540    0.0610   -3.6860 ca        1 GRM      0.112100
     18 C18         9.7850    1.0970   -4.5600 ca        1 GRM     -0.116000
     19 C19         8.4280    1.3550   -4.8240 ca        1 GRM     -0.083000
     20 O20         9.5680   -1.6720   -2.2640 os        1 GRM     -0.319900
     21 C21        11.0090   -1.5240   -2.3540 c3        1 GRM      0.319200
     22 O22        11.2750   -0.4100   -3.2480 os        1 GRM     -0.309900
     23 C23         2.7710   -1.0260    1.8980 ca        1 GRM     -0.023000
     24 C24         3.1910   -0.9640    3.2560 ca        1 GRM     -0.043000
     25 C25         2.8020    0.1320    4.0720 ca        1 GRM     -0.102000
     26 C26         2.0190    1.1350    3.5600 ca        1 GRM     -0.136000
     27 C27         1.6050    1.0870    2.2100 ca        1 GRM     -0.101000
     28 C28         3.1620   -2.1630    1.1350 ca        1 GRM     -0.142000
     29 C29         3.9320   -3.1600    1.6830 ca        1 GRM     -0.116000
     30 C30         4.3580   -3.0830    3.0290 ca        1 GRM     -0.127000
     31 C31         3.9920   -2.0080    3.7980 ca        1 GRM     -0.107000
     32 H1          1.9310   -0.8170   -0.6140 h1        1 GRM      0.026700
     33 H2         -0.2560   -1.0340    0.6630 hc        1 GRM      0.052367
     34 H2A        -0.4190   -0.4360   -1.0380 hc        1 GRM      0.052367
     35 H2B        -0.5790    0.7240    0.3550 hc        1 GRM      0.052367
     36 H5          0.1850    1.3570   -2.0030 h1        1 GRM      0.044450
     37 H5A         1.6310    0.5120   -2.7280 h1        1 GRM      0.044450
     38 H6          1.1860    3.5530   -2.3130 hc        1 GRM      0.079450
     39 H6A         1.3080    2.6190   -3.8660 hc        1 GRM      0.079450
     40 H7          3.3910    3.9670   -3.2090 hc        1 GRM      0.107700
     41 H8          3.2180    3.7010   -0.7970 hc        1 GRM      0.079450
     42 H8A         4.7960    2.9900   -1.2870 hc        1 GRM      0.079450
     43 H9          3.6030    1.5660    0.3810 h1        1 GRM      0.044450
     44 H9A         3.8650    0.6900   -1.1960 h1        1 GRM      0.044450
     45 HN12        5.8270    2.5490   -3.3510 hn        1 GRM      0.458800
     46 H13         5.4050   -0.0720   -4.7230 hx        1 GRM      0.115200
     47 H13A        5.9050    1.4860   -5.5390 hx        1 GRM      0.115200
     48 H15         6.8840   -1.0740   -2.9090 ha        1 GRM      0.158000
     49 H18        10.5860    1.6840   -5.0310 ha        1 GRM      0.182000
     50 H19         8.1820    2.1660   -5.5290 ha        1 GRM      0.147000
     51 H21        11.4050   -1.2660   -1.3410 h2        1 GRM      0.096700
     52 H21A       11.4370   -2.4530   -2.8050 h2        1 GRM      0.096700
     53 H25         3.1350    0.1540    5.1220 ha        1 GRM      0.143000
     54 H26         1.7020    1.9810    4.1870 ha        1 GRM      0.143000
     55 H27         0.9720    1.9010    1.8230 ha        1 GRM      0.144000
     56 H28         2.8290   -2.2690    0.0930 ha        1 GRM      0.123000
     57 H29         4.2170   -4.0380    1.0830 ha        1 GRM      0.136000
     58 H30         4.9730   -3.8950    3.4470 ha        1 GRM      0.143000
     59 H31         4.3040   -1.9360    4.8520 ha        1 GRM      0.142000
     60 H122        5.3760    1.1330   -2.6170 hn        1 GRM      0.458800
@<TRIPOS>BOND
     1    1    2 1   
     2    1    3 1   
     3    1    4 1   
     4    1   32 1   
     5    2   33 1   
     6    2   34 1   
     7    2   35 1   
     8    3   23 ar  
     9    3   27 ar  
    10    4    5 1   
    11    4    9 1   
    12    5    6 1   
    13    5   36 1   
    14    5   37 1   
    15    6    7 1   
    16    6   38 1   
    17    6   39 1   
    18    7    8 1   
    19    7   10 1   
    20    7   40 1   
    21    8    9 1   
    22    8   41 1   
    23    8   42 1   
    24    9   43 1   
    25    9   44 1   
    26   10   11 2   
    27   10   12 1   
    28   12   13 1   
    29   12   45 1   
    30   12   60 1   
    31   13   14 1   
    32   13   46 1   
    33   13   47 1   
    34   14   15 ar  
    35   14   19 ar  
    36   15   16 ar  
    37   15   48 1   
    38   16   17 ar  
    39   16   20 1   
    40   17   18 ar  
    41   17   22 1   
    42   18   19 ar  
    43   18   49 1   
    44   19   50 1   
    45   20   21 1   
    46   21   22 1   
    47   21   51 1   
    48   21   52 1   
    49   23   24 ar  
    50   23   28 ar  
    51   24   25 ar  
    52   24   31 ar  
    53   25   26 ar  
    54   25   53 1   
    55   26   27 ar  
    56   26   54 1   
    57   27   55 1   
    58   28   29 ar  
    59   28   56 1   
    60   29   30 ar  
    61   29   57 1   
    62   30   31 ar  
    63   30   58 1   
    64   31   59 1   
@<TRIPOS>SUBSTRUCTURE
     1 GRM         1 TEMP              0 ****  ****    0 ROOT
