@<TRIPOS>MOLECULE
GRM
   60    64     1     0     0
SMALL
bcc


@<TRIPOS>ATOM
      1 C1          1.4670    0.0490   -0.0600 c3        1 GRM      0.235800
      2 C2         -0.0480   -0.1820   -0.0440 c3        1 GRM     -0.096100
      3 C3          1.9560    0.0370    1.3740 ca        1 GRM     -0.103300
      4 N4          1.8490    1.2970   -0.7500 n3        1 GRM     -0.729600
      5 C5          1.3100    1.3880   -2.0980 c3        1 GRM      0.162300
      6 C6          1.6870    2.6820   -2.8180 c3        1 GRM     -0.092900
      7 C7          3.1930    2.9360   -2.7970 c3        1 GRM     -0.128700
      8 C8          3.6850    2.8500   -1.3630 c3        1 GRM     -0.092900
      9 C9          3.2820    1.5300   -0.7050 c3        1 GRM      0.162300
     10 C10         3.8710    1.9900   -3.7640 c         1 GRM      0.543100
     11 O11         3.3930    1.4800   -4.7640 o         1 GRM     -0.410100
     12 N12         5.3270    1.6740   -3.4870 n4        1 GRM     -0.685800
     13 C13         6.0000    0.8920   -4.5790 c3        1 GRM      0.179100
     14 C14         7.4180    0.6090   -4.2250 ca        1 GRM     -0.197300
     15 C15         7.6880   -0.4580   -3.3360 ca        1 GRM     -0.110000
     16 C16         9.0150   -0.7050   -3.0700 ca        1 GRM      0.069100
     17 C17        10.0610    0.0660   -3.6610 ca        1 GRM      0.112100
     18 C18         9.7970    1.1040   -4.5320 ca        1 GRM     -0.116000
     19 C19         8.4410    1.3630   -4.8020 ca        1 GRM     -0.083000
     20 O20         9.5680   -1.6730   -2.2470 os        1 GRM     -0.319900
     21 C21        11.0100   -1.5240   -2.3300 c3        1 GRM      0.319200
     22 O22        11.2800   -0.4070   -3.2190 os        1 GRM     -0.309900
     23 C23         2.7520   -1.0320    1.8890 ca        1 GRM     -0.023000
     24 C24         3.1630   -0.9720    3.2500 ca        1 GRM     -0.043000
     25 C25         2.7680    0.1220    4.0660 ca        1 GRM     -0.102000
     26 C26         1.9880    1.1250    3.5510 ca        1 GRM     -0.136000
     27 C27         1.5810    1.0790    2.1990 ca        1 GRM     -0.101000
     28 C28         3.1490   -2.1670    1.1260 ca        1 GRM     -0.142000
     29 C29         3.9160   -3.1640    1.6770 ca        1 GRM     -0.116000
     30 C30         4.3340   -3.0890    3.0260 ca        1 GRM     -0.127000
     31 C31         3.9620   -2.0160    3.7950 ca        1 GRM     -0.107000
     32 H1          1.9260   -0.8190   -0.6270 h1        1 GRM      0.026700
     33 H2         -0.4220   -0.4390   -1.0640 hc        1 GRM      0.052367
     34 H2A        -0.5910    0.7180    0.3300 hc        1 GRM      0.052367
     35 H2B        -0.2690   -1.0400    0.6370 hc        1 GRM      0.052367
     36 H5          1.6330    0.5150   -2.7400 h1        1 GRM      0.044450
     37 H5A         0.1850    1.3590   -2.0200 h1        1 GRM      0.044450
     38 H6          1.3170    2.6250   -3.8750 hc        1 GRM      0.079450
     39 H6A         1.1870    3.5550   -2.3200 hc        1 GRM      0.079450
     40 H7          3.3960    3.9710   -3.2040 hc        1 GRM      0.107700
     41 H8          4.7920    2.9900   -1.2790 hc        1 GRM      0.079450
     42 H8A         3.2130    3.7000   -0.7940 hc        1 GRM      0.079450
     43 H9          3.5910    1.5610    0.3800 h1        1 GRM      0.044450
     44 H9A         3.8610    0.6900   -1.1980 h1        1 GRM      0.044450
     45 HN12        5.8330    2.5530   -3.3390 hn        1 GRM      0.458800
     46 H13         5.9200    1.4950   -5.5290 hx        1 GRM      0.115200
     47 H13A        5.4170   -0.0650   -4.7190 hx        1 GRM      0.115200
     48 H15         6.8880   -1.0720   -2.9030 ha        1 GRM      0.158000
     49 H18        10.5990    1.6930   -4.9970 ha        1 GRM      0.182000
     50 H19         8.1970    2.1760   -5.5050 ha        1 GRM      0.147000
     51 H21        11.4400   -2.4510   -2.7830 h2        1 GRM      0.096700
     52 H21A       11.4000   -1.2700   -1.3140 h2        1 GRM      0.096700
     53 H25         3.0950    0.1420    5.1180 ha        1 GRM      0.143000
     54 H26         1.6650    1.9700    4.1790 ha        1 GRM      0.143000
     55 H27         0.9500    1.8940    1.8090 ha        1 GRM      0.144000
     56 H28         2.8230   -2.2700    0.0820 ha        1 GRM      0.123000
     57 H29         4.2070   -4.0400    1.0770 ha        1 GRM      0.136000
     58 H30         4.9470   -3.9010    3.4460 ha        1 GRM      0.143000
     59 H31         4.2680   -1.9460    4.8510 ha        1 GRM      0.142000
     60 H122        5.3780    1.1360   -2.6110 hn        1 GRM      0.458800
@<TRIPOS>BOND
     1    1    2 1   
     2    1    3 1   
     3    1    4 1   
     4    1   32 1   
     5    2   33 1   
     6    2   34 1   
     7    2   35 1   
     8    3   23 ar  
     9    3   27 ar  
    10    4    5 1   
    11    4    9 1   
    12    5    6 1   
    13    5   36 1   
    14    5   37 1   
    15    6    7 1   
    16    6   38 1   
    17    6   39 1   
    18    7    8 1   
    19    7   10 1   
    20    7   40 1   
    21    8    9 1   
    22    8   41 1   
    23    8   42 1   
    24    9   43 1   
    25    9   44 1   
    26   10   11 2   
    27   10   12 1   
    28   12   13 1   
    29   12   45 1   
    30   12   60 1   
    31   13   14 1   
    32   13   46 1   
    33   13   47 1   
    34   14   15 ar  
    35   14   19 ar  
    36   15   16 ar  
    37   15   48 1   
    38   16   17 ar  
    39   16   20 1   
    40   17   18 ar  
    41   17   22 1   
    42   18   19 ar  
    43   18   49 1   
    44   19   50 1   
    45   20   21 1   
    46   21   22 1   
    47   21   51 1   
    48   21   52 1   
    49   23   24 ar  
    50   23   28 ar  
    51   24   25 ar  
    52   24   31 ar  
    53   25   26 ar  
    54   25   53 1   
    55   26   27 ar  
    56   26   54 1   
    57   27   55 1   
    58   28   29 ar  
    59   28   56 1   
    60   29   30 ar  
    61   29   57 1   
    62   30   31 ar  
    63   30   58 1   
    64   31   59 1   
@<TRIPOS>SUBSTRUCTURE
     1 GRM         1 TEMP              0 ****  ****    0 ROOT
