@<TRIPOS>MOLECULE
GRM
   59    63     1     0     0
SMALL
bcc


@<TRIPOS>ATOM
      1 C1         -2.6840   -0.7450    0.4710 c3        1 GRM      0.225800
      2 C2         -3.7840   -1.2280    1.4230 c3        1 GRM     -0.094100
      3 C3         -3.3060    0.2800   -0.4590 ca        1 GRM     -0.071300
      4 N4         -2.0150   -1.8330   -0.2660 n3        1 GRM     -0.726600
      5 C5         -1.7110   -2.9830    0.5780 c3        1 GRM      0.159800
      6 C6         -0.9580   -4.0960   -0.1480 c3        1 GRM     -0.068400
      7 C7          0.2680   -3.5990   -0.8970 c3        1 GRM     -0.132700
      8 C8         -0.1140   -2.4120   -1.7660 c3        1 GRM     -0.068400
      9 C9         -0.8330   -1.3330   -0.9600 c3        1 GRM      0.159800
     10 C10         1.4010   -3.2520    0.0670 c         1 GRM      0.652100
     11 O11         1.2470   -3.2360    1.3040 o         1 GRM     -0.608100
     12 N12         2.6520   -3.0290   -0.4920 n         1 GRM     -0.556900
     13 C13         3.7610   -2.5650    0.2970 c3        1 GRM      0.129300
     14 C14         3.9090   -1.0690    0.3660 ca        1 GRM     -0.126300
     15 C15         2.9540   -0.3380    1.1070 ca        1 GRM     -0.099000
     16 C16         3.1400    1.0260    1.1640 ca        1 GRM      0.053100
     17 C17         4.2320    1.6650    0.5160 ca        1 GRM      0.061100
     18 C18         5.1670    0.9540   -0.2060 ca        1 GRM     -0.118000
     19 C19         4.9780   -0.4390   -0.2690 ca        1 GRM     -0.122000
     20 O20         2.3660    1.9850    1.8110 os        1 GRM     -0.331900
     21 C21         2.9910    3.2640    1.5610 c3        1 GRM      0.320200
     22 O22         4.1640    3.0350    0.7450 os        1 GRM     -0.333900
     23 C23        -3.3660    1.6550   -0.0660 ca        1 GRM     -0.027000
     24 C24        -3.9360    2.5990   -0.9630 ca        1 GRM     -0.040000
     25 C25        -4.4590    2.1630   -2.2100 ca        1 GRM     -0.121000
     26 C26        -4.4230    0.8350   -2.5480 ca        1 GRM     -0.132000
     27 C27        -3.8460   -0.1090   -1.6670 ca        1 GRM     -0.110000
     28 C28        -2.8970    2.1300    1.1920 ca        1 GRM     -0.122000
     29 C29        -2.9630    3.4620    1.5190 ca        1 GRM     -0.128000
     30 C30        -3.5090    4.3990    0.6110 ca        1 GRM     -0.131000
     31 C31        -3.9880    3.9740   -0.6020 ca        1 GRM     -0.118000
     32 H1         -1.9010   -0.2190    1.1050 h1        1 GRM      0.032700
     33 H2         -4.3140   -0.3350    1.8340 hc        1 GRM      0.044700
     34 H2A        -4.5240   -1.8700    0.8900 hc        1 GRM      0.044700
     35 H2B        -3.3460   -1.8020    2.2740 hc        1 GRM      0.044700
     36 H5         -1.1070   -2.6840    1.4860 h1        1 GRM      0.044700
     37 H5A        -2.6900   -3.4140    0.9330 h1        1 GRM      0.044700
     38 H6         -0.6500   -4.8560    0.6170 hc        1 GRM      0.053450
     39 H6A        -1.6410   -4.5940   -0.8860 hc        1 GRM      0.053450
     40 H7          0.6340   -4.4330   -1.5620 hc        1 GRM      0.067700
     41 H8          0.7880   -1.9520   -2.2450 hc        1 GRM      0.053450
     42 H8A        -0.7840   -2.7770   -2.5890 hc        1 GRM      0.053450
     43 H9         -1.1730   -0.5210   -1.6630 h1        1 GRM      0.044700
     44 H9A        -0.0890   -0.8770   -0.2390 h1        1 GRM      0.044700
     45 HN12        2.6940   -2.8370   -1.4660 hn        1 GRM      0.302500
     46 H13         3.6390   -2.9610    1.3490 h1        1 GRM      0.071700
     47 H13A        4.6990   -3.0130   -0.1440 h1        1 GRM      0.071700
     48 H15         2.1160   -0.8470    1.6060 ha        1 GRM      0.175000
     49 H18         6.0130    1.4430   -0.7050 ha        1 GRM      0.155000
     50 H19         5.7060   -1.0390   -0.8360 ha        1 GRM      0.136000
     51 H21         2.2770    3.9050    0.9870 h2        1 GRM      0.073200
     52 H21A        3.3160    3.7000    2.5380 h2        1 GRM      0.073200
     53 H25        -4.8960    2.9100   -2.8900 ha        1 GRM      0.131000
     54 H26        -4.8380    0.4850   -3.5040 ha        1 GRM      0.131000
     55 H27        -3.8360   -1.1670   -1.9720 ha        1 GRM      0.150000
     56 H28        -2.4850    1.4180    1.9230 ha        1 GRM      0.135000
     57 H29        -2.5950    3.8150    2.4940 ha        1 GRM      0.131000
     58 H30        -3.5470    5.4610    0.8920 ha        1 GRM      0.131000
     59 H31        -4.4250    4.6870   -1.3170 ha        1 GRM      0.131000
@<TRIPOS>BOND
     1    1    2 1   
     2    1    3 1   
     3    1    4 1   
     4    1   32 1   
     5    2   33 1   
     6    2   34 1   
     7    2   35 1   
     8    3   23 ar  
     9    3   27 ar  
    10    4    5 1   
    11    4    9 1   
    12    5    6 1   
    13    5   36 1   
    14    5   37 1   
    15    6    7 1   
    16    6   38 1   
    17    6   39 1   
    18    7    8 1   
    19    7   10 1   
    20    7   40 1   
    21    8    9 1   
    22    8   41 1   
    23    8   42 1   
    24    9   43 1   
    25    9   44 1   
    26   10   11 2   
    27   10   12 1   
    28   12   13 1   
    29   12   45 1   
    30   13   14 1   
    31   13   46 1   
    32   13   47 1   
    33   14   15 ar  
    34   14   19 ar  
    35   15   16 ar  
    36   15   48 1   
    37   16   17 ar  
    38   16   20 1   
    39   17   18 ar  
    40   17   22 1   
    41   18   19 ar  
    42   18   49 1   
    43   19   50 1   
    44   20   21 1   
    45   21   22 1   
    46   21   51 1   
    47   21   52 1   
    48   23   24 ar  
    49   23   28 ar  
    50   24   25 ar  
    51   24   31 ar  
    52   25   26 ar  
    53   25   53 1   
    54   26   27 ar  
    55   26   54 1   
    56   27   55 1   
    57   28   29 ar  
    58   28   56 1   
    59   29   30 ar  
    60   29   57 1   
    61   30   31 ar  
    62   30   58 1   
    63   31   59 1   
@<TRIPOS>SUBSTRUCTURE
     1 GRM         1 TEMP              0 ****  ****    0 ROOT
