@<TRIPOS>MOLECULE
GRM
   60    64     1     0     0
SMALL
bcc


@<TRIPOS>ATOM
      1 C1          1.4750    0.0440   -0.0530 c3        1 GRM      0.235800
      2 C2         -0.0390   -0.1900   -0.0350 c3        1 GRM     -0.096100
      3 C3          1.9670    0.0370    1.3790 ca        1 GRM     -0.103300
      4 N4          1.8530    1.2930   -0.7480 n3        1 GRM     -0.729600
      5 C5          1.3110    1.3790   -2.0940 c3        1 GRM      0.162300
      6 C6          1.6840    2.6720   -2.8180 c3        1 GRM     -0.092900
      7 C7          3.1890    2.9290   -2.8000 c3        1 GRM     -0.128700
      8 C8          3.6850    2.8480   -1.3670 c3        1 GRM     -0.092900
      9 C9          3.2860    1.5290   -0.7060 c3        1 GRM      0.162300
     10 C10         3.8670    1.9830   -3.7670 c         1 GRM      0.543100
     11 O11         3.3890    1.4700   -4.7650 o         1 GRM     -0.410100
     12 N12         5.3240    1.6710   -3.4920 ny        1 GRM     -0.685800
     13 C13         5.9970    0.8890   -4.5840 c3        1 GRM      0.179100
     14 C14         7.4170    0.6110   -4.2330 ca        1 GRM     -0.197300
     15 C15         7.6910   -0.4550   -3.3430 ca        1 GRM     -0.110000
     16 C16         9.0200   -0.6980   -3.0790 ca        1 GRM      0.069100
     17 C17        10.0620    0.0750   -3.6730 ca        1 GRM      0.112100
     18 C18         9.7930    1.1110   -4.5460 ca        1 GRM     -0.116000
     19 C19         8.4370    1.3660   -4.8130 ca        1 GRM     -0.083000
     20 O20         9.5770   -1.6630   -2.2560 os        1 GRM     -0.319900
     21 C21        11.0180   -1.5110   -2.3420 c3        1 GRM      0.319200
     22 O22        11.2830   -0.3940   -3.2340 os        1 GRM     -0.309900
     23 C23         2.7650   -1.0290    1.8950 ca        1 GRM     -0.023000
     24 C24         3.1800   -0.9660    3.2550 ca        1 GRM     -0.043000
     25 C25         2.7850    0.1300    4.0690 ca        1 GRM     -0.102000
     26 C26         2.0020    1.1310    3.5530 ca        1 GRM     -0.136000
     27 C27         1.5920    1.0810    2.2030 ca        1 GRM     -0.101000
     28 C28         3.1620   -2.1660    1.1350 ca        1 GRM     -0.142000
     29 C29         3.9320   -3.1600    1.6860 ca        1 GRM     -0.116000
     30 C30         4.3530   -3.0820    3.0340 ca        1 GRM     -0.127000
     31 C31         3.9810   -2.0070    3.8010 ca        1 GRM     -0.107000
     32 H1          1.9350   -0.8230   -0.6200 h1        1 GRM      0.026700
     33 H2         -0.5840    0.7100    0.3390 hc        1 GRM      0.052367
     34 H2A        -0.2570   -1.0460    0.6490 hc        1 GRM      0.052367
     35 H2B        -0.4150   -0.4490   -1.0530 hc        1 GRM      0.052367
     36 H5          0.1860    1.3480   -2.0140 h1        1 GRM      0.044450
     37 H5A         1.6350    0.5050   -2.7350 h1        1 GRM      0.044450
     38 H6          1.3120    2.6120   -3.8740 hc        1 GRM      0.079450
     39 H6A         1.1830    3.5450   -2.3210 hc        1 GRM      0.079450
     40 H7          3.3890    3.9650   -3.2110 hc        1 GRM      0.107700
     41 H8          3.2110    3.6980   -0.8000 hc        1 GRM      0.079450
     42 H8A         4.7910    2.9900   -1.2860 hc        1 GRM      0.079450
     43 H9          3.5970    1.5630    0.3780 h1        1 GRM      0.044450
     44 H9A         3.8660    0.6880   -1.1980 h1        1 GRM      0.044450
     45 HN12        5.8290    2.5520   -3.3470 hn        1 GRM      0.458800
     46 H13         5.9140    1.4900   -5.5350 hx        1 GRM      0.115200
     47 H13A        5.4170   -0.0700   -4.7210 hx        1 GRM      0.115200
     48 H15         6.8940   -1.0710   -2.9080 ha        1 GRM      0.158000
     49 H18        10.5940    1.7020   -5.0130 ha        1 GRM      0.182000
     50 H19         8.1890    2.1780   -5.5170 ha        1 GRM      0.147000
     51 H21        11.4500   -2.4370   -2.7950 h2        1 GRM      0.096700
     52 H21A       11.4110   -1.2540   -1.3270 h2        1 GRM      0.096700
     53 H25         3.1130    0.1530    5.1200 ha        1 GRM      0.143000
     54 H26         1.6790    1.9760    4.1800 ha        1 GRM      0.143000
     55 H27         0.9590    1.8930    1.8120 ha        1 GRM      0.144000
     56 H28         2.8340   -2.2720    0.0910 ha        1 GRM      0.123000
     57 H29         4.2230   -4.0370    1.0870 ha        1 GRM      0.136000
     58 H30         4.9680   -3.8920    3.4540 ha        1 GRM      0.143000
     59 H31         4.2890   -1.9340    4.8560 ha        1 GRM      0.142000
     60 H122        5.3790    1.1350   -2.6150 hn        1 GRM      0.458800
@<TRIPOS>BOND
     1    1    2 1   
     2    1    3 1   
     3    1    4 1   
     4    1   32 1   
     5    2   33 1   
     6    2   34 1   
     7    2   35 1   
     8    3   23 ar  
     9    3   27 ar  
    10    4    5 1   
    11    4    9 1   
    12    5    6 1   
    13    5   36 1   
    14    5   37 1   
    15    6    7 1   
    16    6   38 1   
    17    6   39 1   
    18    7    8 1   
    19    7   10 1   
    20    7   40 1   
    21    8    9 1   
    22    8   41 1   
    23    8   42 1   
    24    9   43 1   
    25    9   44 1   
    26   10   11 2   
    27   10   12 1   
    28   12   13 1   
    29   12   45 1   
    30   12   60 1   
    31   13   14 1   
    32   13   46 1   
    33   13   47 1   
    34   14   15 ar  
    35   14   19 ar  
    36   15   16 ar  
    37   15   48 1   
    38   16   17 ar  
    39   16   20 1   
    40   17   18 ar  
    41   17   22 1   
    42   18   19 ar  
    43   18   49 1   
    44   19   50 1   
    45   20   21 1   
    46   21   22 1   
    47   21   51 1   
    48   21   52 1   
    49   23   24 ar  
    50   23   28 ar  
    51   24   25 ar  
    52   24   31 ar  
    53   25   26 ar  
    54   25   53 1   
    55   26   27 ar  
    56   26   54 1   
    57   27   55 1   
    58   28   29 ar  
    59   28   56 1   
    60   29   30 ar  
    61   29   57 1   
    62   30   31 ar  
    63   30   58 1   
    64   31   59 1   
@<TRIPOS>SUBSTRUCTURE
     1 GRM         1 TEMP              0 ****  ****    0 ROOT
