@<TRIPOS>MOLECULE
GRM
   59    57     1     0     0
SMALL
bcc


@<TRIPOS>ATOM
      1 C1         -1.7220   -0.6460    2.3500 c3        1 GRM      0.021000
      2 C2         -3.1800   -0.9640    2.0080 c3        1 GRM     -0.212000
      3 C3         -1.5670   -0.4960    3.8540 c2        1 GRM     -0.064000
      4 N4         -1.3370    0.5830    1.7030 n3        1 GRM     -0.252000
      5 C5         -1.9020    0.6330    0.3760 c3        1 GRM     -0.076500
      6 C6         -1.4380    1.8760   -0.4340 c3        1 GRM     -0.145500
      7 C7          0.0780    2.0290   -0.4670 c3        1 GRM     -0.120000
      8 C8          0.6050    1.9600    0.9610 c3        1 GRM     -0.145500
      9 C9          0.0960    0.7190    1.7320 c3        1 GRM     -0.076500
     10 C10         0.7730    0.9790   -1.4140 c2        1 GRM      0.299000
     11 O11         0.8570   -0.1720   -1.0700 o         1 GRM     -0.371000
     12 N12         1.2180    1.3860   -2.7970 n         1 GRM     -0.371000
     13 C13         2.4700    1.0150   -3.2530 c3        1 GRM      0.009000
     14 C14         2.4380    0.8690   -4.7420 c2        1 GRM     -0.119000
     15 C15         2.1150   -0.3620   -5.3090 c2        1 GRM     -0.097000
     16 C16         2.1710   -0.5310   -6.7080 c1        1 GRM      0.007000
     17 C17         2.5480    0.5310   -7.5190 c1        1 GRM      0.015000
     18 C18         2.8760    1.7810   -6.9390 c1        1 GRM     -0.118000
     19 C19         2.8190    1.9440   -5.5610 c1        1 GRM     -0.123000
     20 O20         1.9010   -1.6710   -7.5570 os        1 GRM     -0.215000
     21 C21         2.1840   -1.3000   -8.8950 c3        1 GRM      0.098000
     22 O22         2.5390    0.0670   -8.8990 os        1 GRM     -0.218000
     23 C23        -1.2060   -1.5000    4.7740 c1        1 GRM     -0.027000
     24 C24        -1.2130   -1.2280    6.1500 c1        1 GRM     -0.040000
     25 C25        -1.5830    0.0630    6.6170 c1        1 GRM     -0.119000
     26 C26        -1.9410    1.0600    5.7030 c1        1 GRM     -0.132000
     27 C27        -1.9340    0.7820    4.3150 c2        1 GRM     -0.110000
     28 C28        -0.8490   -2.8000    4.3090 c1        1 GRM     -0.124000
     29 C29        -0.5080   -3.7980    5.2210 c1        1 GRM     -0.129500
     30 C30        -0.5140   -3.5250    6.6140 c1        1 GRM     -0.129500
     31 C31        -0.8640   -2.2490    7.0760 c1        1 GRM     -0.119000
     32 H1         -1.1450   -1.3800    2.0340 h1        1 GRM      0.071000
     33 H2         -3.6520   -0.1320    1.7830 hc        1 GRM      0.084000
     34 H2A        -3.2110   -1.5740    1.2390 hc        1 GRM      0.084000
     35 H2B        -3.5960   -1.3720    2.7500 hc        1 GRM      0.084000
     36 H5         -1.6360   -0.1890   -0.1140 h1        1 GRM      0.084250
     37 H5A        -2.9100    0.6540    0.4550 h1        1 GRM      0.084250
     38 H6         -1.7570    1.7920   -1.3380 hc        1 GRM      0.093000
     39 H6A        -1.8370    2.6890   -0.0290 hc        1 GRM      0.093000
     40 H7          0.3210    2.8190   -0.8690 hc        1 GRM      0.101000
     41 H8          1.5420    1.9330    0.9360 hc        1 GRM      0.093000
     42 H8A         0.3350    2.7320    1.4180 hc        1 GRM      0.093000
     43 H9          0.5170   -0.1220    1.3130 h1        1 GRM      0.084250
     44 H9A         0.3820    0.7830    2.6460 h1        1 GRM      0.084250
     45 HN12        0.6640    1.9540   -3.3310 hn        1 GRM      0.217000
     46 H13         2.7370    0.1180   -2.8270 h1        1 GRM      0.110000
     47 H13A        3.1120    1.6880   -3.0080 h1        1 GRM      0.110000
     48 H15         1.9000   -1.1780   -4.6950 ha        1 GRM      0.177000
     49 H18         3.1350    2.5060   -7.4900 ha        1 GRM      0.155000
     50 H19         3.1080    2.7910   -5.1550 ha        1 GRM      0.136000
     51 H21         1.3310   -1.4330   -9.4740 h2        1 GRM      0.111500
     52 H21A        2.9540   -1.8410   -9.2300 h2        1 GRM      0.111500
     53 H25        -1.5860    0.2450    7.5430 ha        1 GRM      0.131000
     54 H26        -2.2110    1.9950    6.0390 ha        1 GRM      0.131000
     55 H27        -2.1850    1.4850    3.6700 ha        1 GRM      0.150000
     56 H28        -0.8420   -3.0000    3.3080 ha        1 GRM      0.134000
     57 H29        -0.2600   -4.7170    4.8880 ha        1 GRM      0.131500
     58 H30        -0.2720   -4.2310    7.2570 ha        1 GRM      0.131500
     59 H31        -0.8690   -2.0520    8.0850 ha        1 GRM      0.131000
@<TRIPOS>BOND
     1    1    2 1   
     2    1    3 1   
     3    1    4 1   
     4    1   32 1   
     5    2   33 1   
     6    2   34 1   
     7    2   35 1   
     8    3   23 1   
     9    3   27 1   
    10    4    5 1   
    11    4    9 1   
    12    5    6 1   
    13    5   36 1   
    14    5   37 1   
    15    6    7 1   
    16    6   38 1   
    17    6   39 1   
    18    7    8 1   
    19    7   10 1   
    20    7   40 1   
    21    8    9 1   
    22    8   41 1   
    23    8   42 1   
    24    9   43 1   
    25    9   44 1   
    26   10   11 1   
    27   10   12 1   
    28   12   13 1   
    29   12   45 1   
    30   13   14 1   
    31   13   46 1   
    32   13   47 1   
    33   14   15 1   
    34   14   19 1   
    35   15   16 1   
    36   15   48 1   
    37   16   20 1   
    38   17   18 1   
    39   17   22 1   
    40   18   49 1   
    41   19   50 1   
    42   20   21 1   
    43   21   22 1   
    44   21   51 1   
    45   21   52 1   
    46   23   28 1   
    47   24   25 1   
    48   24   31 1   
    49   25   53 1   
    50   26   27 1   
    51   26   54 1   
    52   27   55 1   
    53   28   56 1   
    54   29   30 1   
    55   29   57 1   
    56   30   58 1   
    57   31   59 1   
@<TRIPOS>SUBSTRUCTURE
     1 GRM         1 TEMP              0 ****  ****    0 ROOT
