@<TRIPOS>MOLECULE
GRN
   22    22     1     0     0
SMALL
bcc


@<TRIPOS>ATOM
      1 O           0.4950    1.5780    0.2750 o         1 GRN     -0.831300
      2 C           1.1760    0.5260    0.1370 c         1 GRN      0.898600
      3 CA          2.0500    0.0320    1.3720 c3        1 GRN      0.058500
      4 C1          2.6310    1.2890    2.0370 c3        1 GRN     -0.061100
      5 N           3.1290   -0.8640    0.9240 n3        1 GRN     -0.886800
      6 CB          1.1440   -0.6400    2.3830 ca        1 GRN     -0.018300
      7 CG2        -0.1040   -0.0600    2.6680 ca        1 GRN     -0.126500
      8 CD2        -0.9540   -0.6300    3.6100 ca        1 GRN     -0.152500
      9 CE         -0.5790   -1.7900    4.2900 ca        1 GRN     -0.163000
     10 CD1         0.6560   -2.3720    4.0170 ca        1 GRN     -0.152500
     11 CG1         1.5130   -1.8010    3.0740 ca        1 GRN     -0.126500
     12 O1          1.2380   -0.1530   -0.9240 o         1 GRN     -0.831300
     13 H1          3.2180    1.0290    2.9490 hc        1 GRN      0.027033
     14 H2          1.7850    1.9630    2.3150 hc        1 GRN      0.027033
     15 H3          3.2920    1.8330    1.3210 hc        1 GRN      0.027033
     16 H4          2.6960   -1.6050    0.3980 hn        1 GRN      0.337300
     17 H5          3.6900   -0.3430    0.2720 hn        1 GRN      0.337300
     18 H7         -0.4060    0.8510    2.1150 ha        1 GRN      0.160000
     19 H8         -1.9290   -0.1660    3.8160 ha        1 GRN      0.107000
     20 H9         -1.2520   -2.2400    5.0310 ha        1 GRN      0.103000
     21 H10         0.9620   -3.2850    4.5460 ha        1 GRN      0.107000
     22 H11         2.4870   -2.2780    2.8870 ha        1 GRN      0.160000
@<TRIPOS>BOND
     1    1    2 1   
     2    2    3 1   
     3    2   12 1   
     4    3    4 1   
     5    3    5 1   
     6    3    6 1   
     7    4   13 1   
     8    4   14 1   
     9    4   15 1   
    10    5   16 1   
    11    5   17 1   
    12    6    7 ar  
    13    6   11 ar  
    14    7    8 ar  
    15    7   18 1   
    16    8    9 ar  
    17    8   19 1   
    18    9   10 ar  
    19    9   20 1   
    20   10   11 ar  
    21   10   21 1   
    22   11   22 1   
@<TRIPOS>SUBSTRUCTURE
     1 GRN         1 TEMP              0 ****  ****    0 ROOT
