@<TRIPOS>MOLECULE
GRN
   23    23     1     0     0
SMALL
bcc


@<TRIPOS>ATOM
      1 O           0.6160    0.0360   -0.6730 o         1 GRN     -0.753300
      2 C           1.5890   -0.4890   -0.1160 c         1 GRN      0.943600
      3 CA          1.9790    0.1170    1.3500 c3        1 GRN     -0.001500
      4 C1          1.7560    1.6170    1.3010 c3        1 GRN     -0.099100
      5 N           3.4460   -0.2050    1.5750 n4        1 GRN     -0.839600
      6 CB          1.1790   -0.5790    2.4110 ca        1 GRN     -0.118300
      7 CG2         0.8650   -1.9350    2.2470 ca        1 GRN     -0.108500
      8 CD2        -0.0220   -0.5770    4.5150 ca        1 GRN     -0.135500
      9 CE         -0.3290   -1.9270    4.3490 ca        1 GRN     -0.111000
     10 CD1         0.1150   -2.6040    3.2130 ca        1 GRN     -0.135500
     11 CG1         0.7300    0.0960    3.5530 ca        1 GRN     -0.108500
     12 O1          2.3510   -1.4160   -0.5010 o         1 GRN     -0.753300
     13 H1          0.6560    1.7850    1.1760 hc        1 GRN      0.059367
     14 H2          2.1120    2.1390    2.2210 hc        1 GRN      0.059367
     15 H3          2.2650    2.0570    0.4080 hc        1 GRN      0.059367
     16 H4          3.6440   -0.3700    2.5570 hn        1 GRN      0.442467
     17 H5          4.0220    0.5530    1.2210 hn        1 GRN      0.442467
     18 H7          1.1930   -2.4640    1.3330 ha        1 GRN      0.152000
     19 H8         -0.3800   -0.0370    5.4050 ha        1 GRN      0.138000
     20 H9         -0.9260   -2.4540    5.1070 ha        1 GRN      0.136000
     21 H10        -0.1350   -3.6660    3.0700 ha        1 GRN      0.138000
     22 H11         0.9470    1.1650    3.6920 ha        1 GRN      0.152000
     23 HN3         3.6320   -1.0650    1.0160 hn        1 GRN      0.442467
@<TRIPOS>BOND
     1    1    2 1   
     2    2    3 1   
     3    2   12 1   
     4    3    4 1   
     5    3    5 1   
     6    3    6 1   
     7    4   13 1   
     8    4   14 1   
     9    4   15 1   
    10    5   16 1   
    11    5   17 1   
    12    5   23 1   
    13    6    7 ar  
    14    6   11 ar  
    15    7   10 ar  
    16    7   18 1   
    17    8    9 ar  
    18    8   11 ar  
    19    8   19 1   
    20    9   10 ar  
    21    9   20 1   
    22   10   21 1   
    23   11   22 1   
@<TRIPOS>SUBSTRUCTURE
     1 GRN         1 TEMP              0 ****  ****    0 ROOT
