@<TRIPOS>MOLECULE
GRN
   23    23     1     0     0
SMALL
bcc


@<TRIPOS>ATOM
      1 O           0.8990   -0.6520   -0.7300 o         1 GRN     -0.754800
      2 C           1.9520   -0.7690   -0.0850 c         1 GRN      0.938600
      3 CA          2.0100    0.0450    1.3230 c3        1 GRN      0.006500
      4 C1          1.5130    1.4570    1.0530 c3        1 GRN     -0.101100
      5 N           3.4630    0.0540    1.7660 nz        1 GRN     -0.844600
      6 CB          1.1820   -0.6190    2.3860 ca        1 GRN     -0.110300
      7 CG2         0.4270   -1.7610    2.1000 ca        1 GRN     -0.111500
      8 CD2         0.3810   -0.6800    4.6760 ca        1 GRN     -0.131500
      9 CE         -0.3670   -1.8230    4.3860 ca        1 GRN     -0.114000
     10 CD1        -0.3460   -2.3560    3.0990 ca        1 GRN     -0.131500
     11 CG1         1.1480   -0.0800    3.6820 ca        1 GRN     -0.111500
     12 O1          2.9970   -1.4150   -0.3590 o         1 GRN     -0.754800
     13 H1          0.4790    1.3640    0.6290 hc        1 GRN      0.060700
     14 H2          2.1480    1.9690    0.2900 hc        1 GRN      0.060700
     15 H3          1.4740    2.0730    1.9830 hc        1 GRN      0.060700
     16 H4          3.9260   -0.7210    1.2400 hn        1 GRN      0.443800
     17 H5          3.9000    0.9350    1.5110 hn        1 GRN      0.443800
     18 H7          0.4240   -2.1820    1.0780 ha        1 GRN      0.147500
     19 H8          0.3570   -0.2490    5.6870 ha        1 GRN      0.138000
     20 H9         -0.9760   -2.2960    5.1710 ha        1 GRN      0.136000
     21 H10        -0.9420   -3.2510    2.8620 ha        1 GRN      0.138000
     22 H11         1.7070    0.8390    3.9160 ha        1 GRN      0.147500
     23 HN3         3.5460   -0.1030    2.7670 hn        1 GRN      0.443800
@<TRIPOS>BOND
     1    1    2 1   
     2    2    3 1   
     3    2   12 1   
     4    3    4 1   
     5    3    5 1   
     6    3    6 1   
     7    4   13 1   
     8    4   14 1   
     9    4   15 1   
    10    5   16 1   
    11    5   17 1   
    12    5   23 1   
    13    6    7 ar  
    14    6   11 ar  
    15    7   10 ar  
    16    7   18 1   
    17    8    9 ar  
    18    8   11 ar  
    19    8   19 1   
    20    9   10 ar  
    21    9   20 1   
    22   10   21 1   
    23   11   22 1   
@<TRIPOS>SUBSTRUCTURE
     1 GRN         1 TEMP              0 ****  ****    0 ROOT
