@<TRIPOS>MOLECULE
GRO
   20    18     1     0     0
SMALL
bcc


@<TRIPOS>ATOM
      1 O2         -1.6530   -1.1120   -1.9750 o         1 GRO     -0.572000
      2 C1         -2.1390   -0.5010   -0.9880 c2        1 GRO      0.342000
      3 O1         -3.2410    0.0980   -1.0980 o         1 GRO     -0.572000
      4 C2         -1.3910   -0.4740    0.3270 c3        1 GRO     -0.163000
      5 C3         -1.9320    0.6440    1.1910 c3        1 GRO     -0.179000
      6 C1'         0.0810   -0.2410    0.0660 c2        1 GRO     -0.007000
      7 C6'         1.0100   -1.2000    0.4390 c2        1 GRO     -0.149000
      8 C5'         2.3580   -0.9900    0.1940 c1        1 GRO     -0.149000
      9 C4'         2.7770    0.1780   -0.4240 c1        1 GRO     -0.156000
     10 C3'         1.8470    1.1360   -0.7970 c1        1 GRO     -0.156000
     11 C2'         0.4990    0.9260   -0.5520 c1        1 GRO     -0.118000
     12 HC2        -1.5100   -1.3270    0.7870 hc        1 GRO      0.083000
     13 HC31       -1.3860    0.7250    2.0010 hc        1 GRO      0.059000
     14 HC32       -2.8590    0.4450    1.4410 hc        1 GRO      0.059000
     15 HC33       -1.9030    1.4870    0.6920 hc        1 GRO      0.059000
     16 HC6'        0.7160   -2.0220    0.8740 ha        1 GRO      0.118000
     17 HC5'        3.0130   -1.6640    0.4570 ha        1 GRO      0.103000
     18 HC4'        3.7260    0.3260   -0.5970 ha        1 GRO      0.106500
     19 HC3'        2.1430    1.9640   -1.2220 ha        1 GRO      0.106500
     20 HC2'       -0.1560    1.6010   -0.8150 ha        1 GRO      0.185000
@<TRIPOS>BOND
     1    1    2 1   
     2    2    3 1   
     3    2    4 1   
     4    4    5 1   
     5    4    6 1   
     6    4   12 1   
     7    5   13 1   
     8    5   14 1   
     9    5   15 1   
    10    6    7 1   
    11    6   11 1   
    12    7    8 1   
    13    7   16 1   
    14    8   17 1   
    15    9   10 1   
    16    9   18 1   
    17   10   19 1   
    18   11   20 1   
@<TRIPOS>SUBSTRUCTURE
     1 GRO         1 TEMP              0 ****  ****    0 ROOT
