@<TRIPOS>MOLECULE
GRO
   20    20     1     0     0
SMALL
bcc


@<TRIPOS>ATOM
      1 O2          0.5210   -0.8620   -0.2850 o         1 GRO     -0.837300
      2 C1          1.2480    0.1310   -0.0110 c         1 GRO      0.922600
      3 O1          1.3060    1.1880   -0.7010 o         1 GRO     -0.837300
      4 C2          2.1000    0.0450    1.2920 c3        1 GRO     -0.166400
      5 C3          1.7630    1.2270    2.1760 c3        1 GRO     -0.061100
      6 C1'         3.5610    0.0010    1.0030 ca        1 GRO     -0.014300
      7 C6'         4.3840   -0.9450    1.6290 ca        1 GRO     -0.133500
      8 C5'         5.7550   -0.9720    1.3750 ca        1 GRO     -0.147500
      9 C4'         6.3220   -0.0570    0.4920 ca        1 GRO     -0.166000
     10 C3'         5.5080    0.8820   -0.1460 ca        1 GRO     -0.147500
     11 C2'         4.1390    0.9110    0.1040 ca        1 GRO     -0.133500
     12 HC2         1.8010   -0.9040    1.8190 hc        1 GRO      0.043700
     13 HC31        1.9560    2.1780    1.6230 hc        1 GRO      0.019700
     14 HC32        0.6810    1.1920    2.4510 hc        1 GRO      0.019700
     15 HC33        2.3710    1.2190    3.1130 hc        1 GRO      0.019700
     16 HC6'        3.9420   -1.6770    2.3210 ha        1 GRO      0.151500
     17 HC5'        6.3880   -1.7210    1.8720 ha        1 GRO      0.106500
     18 HC4'        7.4020   -0.0770    0.2930 ha        1 GRO      0.103000
     19 HC3'        5.9490    1.5960   -0.8550 ha        1 GRO      0.106500
     20 HC2'        3.4700    1.6230   -0.4160 ha        1 GRO      0.151500
@<TRIPOS>BOND
     1    1    2 1   
     2    2    3 1   
     3    2    4 1   
     4    4    5 1   
     5    4    6 1   
     6    4   12 1   
     7    5   13 1   
     8    5   14 1   
     9    5   15 1   
    10    6    7 ar  
    11    6   11 ar  
    12    7    8 ar  
    13    7   16 1   
    14    8    9 ar  
    15    8   17 1   
    16    9   10 ar  
    17    9   18 1   
    18   10   11 ar  
    19   10   19 1   
    20   11   20 1   
@<TRIPOS>SUBSTRUCTURE
     1 GRO         1 TEMP              0 ****  ****    0 ROOT
