@<TRIPOS>MOLECULE
GRO
   20    20     1     0     0
SMALL
bcc


@<TRIPOS>ATOM
      1 O2          0.4710   -0.8070   -0.2030 o         1 GRO     -0.837300
      2 C1          1.2340    0.1710    0.0240 c         1 GRO      0.922600
      3 O1          1.3170    1.1980   -0.7070 o         1 GRO     -0.837300
      4 C2          2.0990    0.1070    1.3200 c3        1 GRO     -0.166400
      5 C3          1.8120    1.3330    2.1610 c3        1 GRO     -0.061100
      6 C1'         3.5540    0.0040    1.0150 ca        1 GRO     -0.014300
      7 C6'         4.3540   -0.9440    1.6680 ca        1 GRO     -0.133500
      8 C5'         5.7200   -1.0270    1.3990 ca        1 GRO     -0.147500
      9 C4'         6.3050   -0.1650    0.4740 ca        1 GRO     -0.166000
     10 C3'         5.5140    0.7750   -0.1900 ca        1 GRO     -0.147500
     11 C2'         4.1500    0.8600    0.0750 ca        1 GRO     -0.133500
     12 HC2         1.7770   -0.8100    1.8860 hc        1 GRO      0.043700
     13 HC31        2.4320    1.3410    3.0900 hc        1 GRO      0.019700
     14 HC32        2.0280    2.2550    1.5680 hc        1 GRO      0.019700
     15 HC33        0.7340    1.3440    2.4500 hc        1 GRO      0.019700
     16 HC6'        3.8970   -1.6340    2.3920 ha        1 GRO      0.151500
     17 HC5'        6.3340   -1.7760    1.9170 ha        1 GRO      0.106500
     18 HC4'        7.3800   -0.2290    0.2630 ha        1 GRO      0.103000
     19 HC3'        5.9690    1.4470   -0.9310 ha        1 GRO      0.106500
     20 HC2'        3.4980    1.5720   -0.4650 ha        1 GRO      0.151500
@<TRIPOS>BOND
     1    1    2 1   
     2    2    3 1   
     3    2    4 1   
     4    4    5 1   
     5    4    6 1   
     6    4   12 1   
     7    5   13 1   
     8    5   14 1   
     9    5   15 1   
    10    6    7 ar  
    11    6   11 ar  
    12    7    8 ar  
    13    7   16 1   
    14    8    9 ar  
    15    8   17 1   
    16    9   10 ar  
    17    9   18 1   
    18   10   11 ar  
    19   10   19 1   
    20   11   20 1   
@<TRIPOS>SUBSTRUCTURE
     1 GRO         1 TEMP              0 ****  ****    0 ROOT
