@<TRIPOS>MOLECULE
GRO
   20    20     1     0     0
SMALL
bcc


@<TRIPOS>ATOM
      1 O2          0.5210   -1.2040   -2.6940 o         1 GRO     -0.837300
      2 C1          0.4450   -0.1530   -2.0020 c         1 GRO      0.922600
      3 O1          1.2710    0.8020   -2.0590 o         1 GRO     -0.837300
      4 C2         -0.7770   -0.0250   -1.0430 c3        1 GRO     -0.166400
      5 C3         -1.5240    1.2500   -1.3700 c3        1 GRO     -0.061100
      6 C1'        -0.3670   -0.0450    0.3900 ca        1 GRO     -0.014300
      7 C6'        -1.0370   -0.8610    1.3120 ca        1 GRO     -0.133500
      8 C5'        -0.6680   -0.8640    2.6570 ca        1 GRO     -0.147500
      9 C4'         0.3750   -0.0530    3.0980 ca        1 GRO     -0.166000
     10 C3'         1.0560    0.7540    2.1850 ca        1 GRO     -0.147500
     11 C2'         0.6910    0.7590    0.8420 ca        1 GRO     -0.133500
     12 HC2        -1.4480   -0.9050   -1.2450 hc        1 GRO      0.043700
     13 HC31       -0.8350    2.1250   -1.2750 hc        1 GRO      0.019700
     14 HC32       -1.8970    1.2070   -2.4210 hc        1 GRO      0.019700
     15 HC33       -2.3960    1.3960   -0.6870 hc        1 GRO      0.019700
     16 HC6'       -1.8550   -1.5100    0.9690 ha        1 GRO      0.151500
     17 HC5'       -1.2000   -1.5100    3.3680 ha        1 GRO      0.106500
     18 HC4'        0.6650   -0.0540    4.1570 ha        1 GRO      0.103000
     19 HC3'        1.8890    1.3840    2.5270 ha        1 GRO      0.106500
     20 HC2'        1.2400    1.3640    0.0950 ha        1 GRO      0.151500
@<TRIPOS>BOND
     1    1    2 1   
     2    2    3 1   
     3    2    4 1   
     4    4    5 1   
     5    4    6 1   
     6    4   12 1   
     7    5   13 1   
     8    5   14 1   
     9    5   15 1   
    10    6    7 ar  
    11    6   11 ar  
    12    7    8 ar  
    13    7   16 1   
    14    8    9 ar  
    15    8   17 1   
    16    9   10 ar  
    17    9   18 1   
    18   10   11 ar  
    19   10   19 1   
    20   11   20 1   
@<TRIPOS>SUBSTRUCTURE
     1 GRO         1 TEMP              0 ****  ****    0 ROOT
