@<TRIPOS>MOLECULE
GRR
   37    38     1     0     0
SMALL
bcc


@<TRIPOS>ATOM
      1 CAA         0.1800   -0.3710   -0.2400 c3        1 GRR     -0.087100
      2 CAM         1.6290    0.0470   -0.1670 c3        1 GRR     -0.021100
      3 CAQ         2.1360    0.0760    1.2320 ca        1 GRR     -0.147300
      4 CAJ         2.3700    1.2930    1.8820 ca        1 GRR     -0.106500
      5 CAL         2.8500    1.3300    3.1870 ca        1 GRR     -0.187000
      6 CAI         2.4000   -1.1190    1.9100 ca        1 GRR     -0.106500
      7 CAK         2.8730   -1.1080    3.2160 ca        1 GRR     -0.187000
      8 CAS         3.0960    0.1240    3.8640 ca        1 GRR      0.156100
      9 OAO         3.5930    0.0330    5.1390 os        1 GRR     -0.328900
     10 CAT         3.3860    1.1730    6.0050 c3        1 GRR      0.017100
     11 CAP         4.5400    2.2140    5.8620 c         1 GRR      0.905600
     12 OAC         5.6160    2.0130    6.4820 o         1 GRR     -0.822300
     13 OAB         4.2850    3.2340    5.1600 o         1 GRR     -0.822300
     14 CAN         3.3570    0.5920    7.4170 c3        1 GRR     -0.046100
     15 CAR         1.9810    0.3510    7.9270 ca        1 GRR     -0.048300
     16 CAG         1.5520   -0.9430    8.2500 ca        1 GRR     -0.131500
     17 CAE         0.2690   -1.1580    8.7500 ca        1 GRR     -0.137500
     18 CAD        -0.6020   -0.0850    8.9340 ca        1 GRR     -0.155000
     19 CAF        -0.1830    1.2070    8.6120 ca        1 GRR     -0.137500
     20 CAH         1.0980    1.4250    8.1130 ca        1 GRR     -0.131500
     21 HAA        -0.1610   -0.4070   -1.3030 hc        1 GRR      0.027033
     22 HAAA        0.0420   -1.3820    0.2130 hc        1 GRR      0.027033
     23 HAAB       -0.4660    0.3510    0.3160 hc        1 GRR      0.027033
     24 HAM         1.7460    1.0610   -0.6360 hc        1 GRR      0.032700
     25 HAMA        2.2500   -0.6680   -0.7710 hc        1 GRR      0.032700
     26 HAJ         2.1830    2.2390    1.3530 ha        1 GRR      0.114000
     27 HAL         3.0760    2.2950    3.6850 ha        1 GRR      0.169000
     28 HAI         2.2280   -2.0790    1.4020 ha        1 GRR      0.114000
     29 HAK         3.0860   -2.0430    3.7500 ha        1 GRR      0.169000
     30 HAT         2.4100    1.6660    5.7500 h1        1 GRR      0.042700
     31 HAN         3.8850    1.3180    8.0940 hc        1 GRR      0.075200
     32 HANA        3.9540   -0.3590    7.4250 hc        1 GRR      0.075200
     33 HAG         2.2330   -1.7930    8.1000 ha        1 GRR      0.137500
     34 HAE        -0.0580   -2.1780    8.9980 ha        1 GRR      0.115500
     35 HAD        -1.6130   -0.2550    9.3270 ha        1 GRR      0.113000
     36 HAF        -0.8680    2.0560    8.7510 ha        1 GRR      0.115500
     37 HAH         1.4290    2.4420    7.8530 ha        1 GRR      0.137500
@<TRIPOS>BOND
     1    1    2 1   
     2    1   21 1   
     3    1   22 1   
     4    1   23 1   
     5    2    3 1   
     6    2   24 1   
     7    2   25 1   
     8    3    4 ar  
     9    3    6 ar  
    10    4    5 ar  
    11    4   26 1   
    12    5    8 ar  
    13    5   27 1   
    14    6    7 ar  
    15    6   28 1   
    16    7    8 ar  
    17    7   29 1   
    18    8    9 1   
    19    9   10 1   
    20   10   11 1   
    21   10   14 1   
    22   10   30 1   
    23   11   12 1   
    24   11   13 1   
    25   14   15 1   
    26   14   31 1   
    27   14   32 1   
    28   15   16 ar  
    29   15   20 ar  
    30   16   17 ar  
    31   16   33 1   
    32   17   18 ar  
    33   17   34 1   
    34   18   19 ar  
    35   18   35 1   
    36   19   20 ar  
    37   19   36 1   
    38   20   37 1   
@<TRIPOS>SUBSTRUCTURE
     1 GRR         1 TEMP              0 ****  ****    0 ROOT
