@<TRIPOS>MOLECULE
GRR
   37    34     1     0     0
SMALL
bcc


@<TRIPOS>ATOM
      1 CAA        -0.0630   -0.1290   -5.5090 c3        1 GRR     -0.205000
      2 CAM        -0.4430   -1.4830   -4.9500 c3        1 GRR     -0.106000
      3 CAQ        -0.1860   -1.5020   -3.4570 c2        1 GRR     -0.143000
      4 CAJ        -1.1860   -1.1210   -2.5760 c2        1 GRR     -0.108000
      5 CAL        -0.9540   -1.1500   -1.2100 c1        1 GRR     -0.187000
      6 CAI         1.0460   -1.9130   -2.9710 c1        1 GRR     -0.096000
      7 CAK         1.2780   -1.9420   -1.6050 c1        1 GRR     -0.193000
      8 CAS         0.2770   -1.5600   -0.7240 c1        1 GRR      0.118000
      9 OAO         0.5140   -1.5860    0.6630 os        1 GRR     -0.209000
     10 CAT         0.6090   -0.3110    1.2490 c3        1 GRR     -0.050000
     11 CAP         1.9090    0.3380    0.8330 c2        1 GRR      0.318000
     12 OAC         2.9490   -0.3600    0.7070 o         1 GRR     -0.555500
     13 OAB         1.9580    1.5820    0.6410 o         1 GRR     -0.555500
     14 CAN         0.5700   -0.4440    2.7560 c3        1 GRR     -0.128000
     15 CAR        -0.1020    0.7750    3.3540 c2        1 GRR     -0.047000
     16 CAG        -1.3980    0.6830    3.8390 c2        1 GRR     -0.144000
     17 CAE        -1.9920    1.7820    4.4400 c1        1 GRR     -0.147000
     18 CAD        -1.2910    2.9730    4.5570 c1        1 GRR     -0.145500
     19 CAF         0.0040    3.0640    4.0720 c1        1 GRR     -0.145500
     20 CAH         0.5990    1.9660    3.4700 c1        1 GRR     -0.119000
     21 HAA        -0.6290    0.5620   -5.1060 hc        1 GRR      0.066667
     22 HAAA        0.8780    0.0570   -5.3030 hc        1 GRR      0.066667
     23 HAAB       -0.1900   -0.1300   -6.4820 hc        1 GRR      0.066667
     24 HAM        -1.3920   -1.6500   -5.1190 hc        1 GRR      0.071500
     25 HAMA        0.0930   -2.1770   -5.3820 hc        1 GRR      0.071500
     26 HAJ        -2.0560   -0.8390   -2.9180 ha        1 GRR      0.110000
     27 HAL        -1.6640   -0.8980   -0.5890 ha        1 GRR      0.132000
     28 HAI         1.7550   -2.1680   -3.5920 ha        1 GRR      0.119000
     29 HAK         2.1360   -2.2550   -1.2620 ha        1 GRR      0.198000
     30 HAT        -0.1410    0.2410    0.9510 h1        1 GRR      0.082000
     31 HAN         0.0670   -1.2470    3.0000 hc        1 GRR      0.105000
     32 HANA        1.4830   -0.5150    3.1010 hc        1 GRR      0.105000
     33 HAG        -1.8850   -0.1600    3.7730 ha        1 GRR      0.119000
     34 HAE        -2.9080    1.7200    4.7740 ha        1 GRR      0.110000
     35 HAD        -1.7100    3.7470    4.9790 ha        1 GRR      0.116000
     36 HAF         0.5070    3.8950    4.1770 ha        1 GRR      0.116000
     37 HAH         1.5560    2.1540    3.4170 ha        1 GRR      0.194000
@<TRIPOS>BOND
     1    1    2 1   
     2    1   21 1   
     3    1   22 1   
     4    1   23 1   
     5    2    3 1   
     6    2   24 1   
     7    2   25 1   
     8    3    4 1   
     9    3    6 1   
    10    4    5 1   
    11    4   26 1   
    12    5   27 1   
    13    6   28 1   
    14    7    8 1   
    15    7   29 1   
    16    8    9 1   
    17    9   10 1   
    18   10   11 1   
    19   10   14 1   
    20   10   30 1   
    21   11   12 1   
    22   11   13 1   
    23   14   15 1   
    24   14   31 1   
    25   14   32 1   
    26   15   16 1   
    27   15   20 1   
    28   16   17 1   
    29   16   33 1   
    30   17   34 1   
    31   18   19 1   
    32   18   35 1   
    33   19   36 1   
    34   20   37 1   
@<TRIPOS>SUBSTRUCTURE
     1 GRR         1 TEMP              0 ****  ****    0 ROOT
