@<TRIPOS>MOLECULE
GRR
   37    38     1     0     0
SMALL
bcc


@<TRIPOS>ATOM
      1 CAA         0.5440   -0.0040   -0.8400 c3        1 GRR     -0.087100
      2 CAM         2.0190    0.2040   -0.5890 c3        1 GRR     -0.020100
      3 CAQ         2.3620    0.1060    0.8550 ca        1 GRR     -0.150300
      4 CAJ         2.0100    1.1370    1.7360 ca        1 GRR     -0.102000
      5 CAL         2.3260    1.0690    3.0870 ca        1 GRR     -0.190000
      6 CAI         3.0550   -1.0030    1.3510 ca        1 GRR     -0.102000
      7 CAK         3.3790   -1.0960    2.6990 ca        1 GRR     -0.190000
      8 CAS         3.0090   -0.0570    3.5770 ca        1 GRR      0.163100
      9 OAO         3.3790   -0.2470    4.8840 os        1 GRR     -0.325900
     10 CAT         2.7750    0.6280    5.8640 c3        1 GRR      0.011100
     11 CAP         3.4040    2.0530    5.8600 c         1 GRR      0.898600
     12 OAC         4.6300    2.1820    6.0990 o         1 GRR     -0.820800
     13 OAB         2.5960    3.0050    5.6530 o         1 GRR     -0.820800
     14 CAN         3.0260   -0.0710    7.1990 c3        1 GRR     -0.042100
     15 CAR         1.9260    0.1470    8.1770 ca        1 GRR     -0.054300
     16 CAG         1.5370   -0.8910    9.0330 ca        1 GRR     -0.131500
     17 CAE         0.5290   -0.6910    9.9750 ca        1 GRR     -0.141500
     18 CAD        -0.1020    0.5480   10.0700 ca        1 GRR     -0.155000
     19 CAF         0.2800    1.5860    9.2190 ca        1 GRR     -0.141500
     20 CAH         1.2870    1.3910    8.2770 ca        1 GRR     -0.131500
     21 HAA        -0.0570    0.7450   -0.2710 hc        1 GRR      0.027367
     22 HAAA        0.2290   -1.0240   -0.5140 hc        1 GRR      0.027367
     23 HAAB        0.3160    0.1070   -1.9280 hc        1 GRR      0.027367
     24 HAM         2.3180    1.2180   -0.9720 hc        1 GRR      0.032200
     25 HAMA        2.6040   -0.5550   -1.1750 hc        1 GRR      0.032200
     26 HAJ         1.4800    2.0200    1.3500 ha        1 GRR      0.114500
     27 HAL         2.0770    1.9060    3.7670 ha        1 GRR      0.165000
     28 HAI         3.3480   -1.8140    0.6680 ha        1 GRR      0.114500
     29 HAK         3.9290   -1.9620    3.0910 ha        1 GRR      0.165000
     30 HAT         1.6740    0.7010    5.6500 h1        1 GRR      0.042700
     31 HAN         3.1730   -1.1700    7.0220 hc        1 GRR      0.065700
     32 HANA        3.9870    0.3330    7.6250 hc        1 GRR      0.065700
     33 HAG         2.0310   -1.8710    8.9600 ha        1 GRR      0.156500
     34 HAE         0.2320   -1.5120   10.6420 ha        1 GRR      0.116000
     35 HAD        -0.8960    0.7070   10.8120 ha        1 GRR      0.110000
     36 HAF        -0.2150    2.5650    9.2900 ha        1 GRR      0.116000
     37 HAH         1.5910    2.2130    7.5970 ha        1 GRR      0.156500
@<TRIPOS>BOND
     1    1    2 1   
     2    1   21 1   
     3    1   22 1   
     4    1   23 1   
     5    2    3 1   
     6    2   24 1   
     7    2   25 1   
     8    3    4 ar  
     9    3    6 ar  
    10    4    5 ar  
    11    4   26 1   
    12    5    8 ar  
    13    5   27 1   
    14    6    7 ar  
    15    6   28 1   
    16    7    8 ar  
    17    7   29 1   
    18    8    9 1   
    19    9   10 1   
    20   10   11 1   
    21   10   14 1   
    22   10   30 1   
    23   11   12 1   
    24   11   13 1   
    25   14   15 1   
    26   14   31 1   
    27   14   32 1   
    28   15   16 ar  
    29   15   20 ar  
    30   16   17 ar  
    31   16   33 1   
    32   17   18 ar  
    33   17   34 1   
    34   18   19 ar  
    35   18   35 1   
    36   19   20 ar  
    37   19   36 1   
    38   20   37 1   
@<TRIPOS>SUBSTRUCTURE
     1 GRR         1 TEMP              0 ****  ****    0 ROOT
