@<TRIPOS>MOLECULE
GRR
   37    38     1     0     0
SMALL
bcc


@<TRIPOS>ATOM
      1 CAA         5.8500   -1.7690   -0.8460 c3        1 GRR     -0.087100
      2 CAM         5.6070   -0.3710   -0.3280 c3        1 GRR     -0.020100
      3 CAQ         4.1800   -0.1410    0.0200 ca        1 GRR     -0.150300
      4 CAJ         3.2210    0.0070   -0.9900 ca        1 GRR     -0.102000
      5 CAL         1.8830    0.2290   -0.6870 ca        1 GRR     -0.190000
      6 CAI         3.7760   -0.0510    1.3560 ca        1 GRR     -0.102000
      7 CAK         2.4430    0.1660    1.6850 ca        1 GRR     -0.190000
      8 CAS         1.4860    0.3020    0.6590 ca        1 GRR      0.163100
      9 OAO         0.2030    0.5160    1.0900 os        1 GRR     -0.325900
     10 CAT        -0.8470    0.3660    0.1070 c3        1 GRR      0.011100
     11 CAP        -0.9360    1.5850   -0.8600 c         1 GRR      0.898600
     12 OAC        -1.1660    2.7260   -0.3880 o         1 GRR     -0.820800
     13 OAB        -0.8120    1.3140   -2.0900 o         1 GRR     -0.820800
     14 CAN        -2.1240    0.2390    0.9360 c3        1 GRR     -0.042100
     15 CAR        -3.1320   -0.6540    0.3040 ca        1 GRR     -0.054300
     16 CAG        -3.9170   -1.4970    1.1010 ca        1 GRR     -0.131500
     17 CAE        -4.8860   -2.3160    0.5230 ca        1 GRR     -0.141500
     18 CAD        -5.0810   -2.3020   -0.8560 ca        1 GRR     -0.155000
     19 CAF        -4.3010   -1.4660   -1.6570 ca        1 GRR     -0.141500
     20 CAH        -3.3320   -0.6460   -1.0850 ca        1 GRR     -0.131500
     21 HAA         5.5930   -2.5270   -0.0670 hc        1 GRR      0.027367
     22 HAAA        5.2180   -1.9660   -1.7460 hc        1 GRR      0.027367
     23 HAAB        6.9230   -1.8980   -1.1270 hc        1 GRR      0.027367
     24 HAM         6.2550   -0.1920    0.5720 hc        1 GRR      0.032200
     25 HAMA        5.9200    0.3720   -1.1120 hc        1 GRR      0.032200
     26 HAJ         3.5340   -0.0450   -2.0440 ha        1 GRR      0.114500
     27 HAL         1.1410    0.3820   -1.4940 ha        1 GRR      0.165000
     28 HAI         4.5200   -0.1530    2.1600 ha        1 GRR      0.114500
     29 HAK         2.1230    0.2440    2.7320 ha        1 GRR      0.165000
     30 HAT        -0.6560   -0.5710   -0.4820 h1        1 GRR      0.042700
     31 HAN        -1.8660   -0.1370    1.9630 hc        1 GRR      0.065700
     32 HANA       -2.5640    1.2690    1.0550 hc        1 GRR      0.065700
     33 HAG        -3.7660   -1.5130    2.1900 ha        1 GRR      0.156500
     34 HAE        -5.4960   -2.9730    1.1590 ha        1 GRR      0.116000
     35 HAD        -5.8450   -2.9470   -1.3120 ha        1 GRR      0.110000
     36 HAF        -4.4500   -1.4520   -2.7460 ha        1 GRR      0.116000
     37 HAH        -2.7080    0.0180   -1.7170 ha        1 GRR      0.156500
@<TRIPOS>BOND
     1    1    2 1   
     2    1   21 1   
     3    1   22 1   
     4    1   23 1   
     5    2    3 1   
     6    2   24 1   
     7    2   25 1   
     8    3    4 ar  
     9    3    6 ar  
    10    4    5 ar  
    11    4   26 1   
    12    5    8 ar  
    13    5   27 1   
    14    6    7 ar  
    15    6   28 1   
    16    7    8 ar  
    17    7   29 1   
    18    8    9 1   
    19    9   10 1   
    20   10   11 1   
    21   10   14 1   
    22   10   30 1   
    23   11   12 1   
    24   11   13 1   
    25   14   15 1   
    26   14   31 1   
    27   14   32 1   
    28   15   16 ar  
    29   15   20 ar  
    30   16   17 ar  
    31   16   33 1   
    32   17   18 ar  
    33   17   34 1   
    34   18   19 ar  
    35   18   35 1   
    36   19   20 ar  
    37   19   36 1   
    38   20   37 1   
@<TRIPOS>SUBSTRUCTURE
     1 GRR         1 TEMP              0 ****  ****    0 ROOT
