@<TRIPOS>MOLECULE
GRX
   29    29     1     0     0
SMALL
bcc


@<TRIPOS>ATOM
      1 O1P         2.6550   -0.8990   -0.8750 o         1 GRX     -0.898500
      2 P           2.9320    0.1370    0.1660 p5        1 GRX      1.191700
      3 O2P         4.0660   -0.1750    1.1080 o         1 GRX     -0.898500
      4 O3P         2.7390    1.5590   -0.2400 o         1 GRX     -0.898500
      5 C7          1.3170   -0.1540    1.4290 c3        1 GRX     -0.000600
      6 F1          1.4760    0.9740    2.2030 f         1 GRX     -0.276300
      7 C1          1.0070   -1.3980    2.2500 c3        1 GRX      0.147100
      8 O5         -0.3700   -1.2640    2.6860 os        1 GRX     -0.447600
      9 C5         -0.8570   -2.3580    3.4420 c3        1 GRX      0.105100
     10 C6         -2.3200   -2.0430    3.7590 c3        1 GRX      0.146400
     11 O6         -3.0870   -1.8730    2.5830 oh        1 GRX     -0.635800
     12 C4         -0.0410   -2.5190    4.7340 c3        1 GRX      0.111100
     13 O4         -0.5570   -3.6350    5.4530 oh        1 GRX     -0.628800
     14 C3          1.4290   -2.7240    4.3530 c3        1 GRX      0.096100
     15 O3          2.1760   -2.8300    5.5610 oh        1 GRX     -0.654800
     16 C2          1.9160   -1.5510    3.4790 c3        1 GRX      0.129100
     17 O2          3.2510   -1.8570    3.1600 oh        1 GRX     -0.695800
     18 H7          0.4820    0.0040    0.7050 h1        1 GRX      0.021700
     19 H1          1.0790   -2.3130    1.6020 h1        1 GRX      0.049700
     20 H2          1.8800   -0.5990    4.0810 h1        1 GRX      0.042700
     21 H5         -0.7900   -3.3060    2.8380 h1        1 GRX      0.040700
     22 H61C       -2.7860   -2.9030    4.3080 h1        1 GRX      0.033700
     23 H62C       -2.3840   -1.1110    4.3800 h1        1 GRX      0.033700
     24 H4         -0.1440   -1.6010    5.3770 h1        1 GRX      0.047700
     25 HA          0.1470   -3.9130    6.0520 ho        1 GRX      0.406000
     26 H3          1.5480   -3.6930    3.7920 h1        1 GRX      0.045700
     27 HB          3.0670   -2.5180    5.3500 ho        1 GRX      0.433000
     28 HC          3.5320   -1.2560    2.4060 ho        1 GRX      0.523000
     29 H6         -2.5530   -1.3400    1.9760 ho        1 GRX      0.432000
@<TRIPOS>BOND
     1    1    2 1   
     2    2    3 1   
     3    2    4 1   
     4    2    5 1   
     5    5    6 1   
     6    5    7 1   
     7    5   18 1   
     8    7    8 1   
     9    7   16 1   
    10    7   19 1   
    11    8    9 1   
    12    9   10 1   
    13    9   12 1   
    14    9   21 1   
    15   10   11 1   
    16   10   22 1   
    17   10   23 1   
    18   11   29 1   
    19   12   13 1   
    20   12   14 1   
    21   12   24 1   
    22   13   25 1   
    23   14   15 1   
    24   14   16 1   
    25   14   26 1   
    26   15   27 1   
    27   16   17 1   
    28   16   20 1   
    29   17   28 1   
@<TRIPOS>SUBSTRUCTURE
     1 GRX         1 TEMP              0 ****  ****    0 ROOT
