@<TRIPOS>MOLECULE
GRX
   29    29     1     0     0
SMALL
bcc


@<TRIPOS>ATOM
      1 O1P         1.8390   -1.4460   -0.3480 o         1 GRX     -0.916500
      2 P           2.5270   -0.2470    0.2510 p5        1 GRX      1.205700
      3 O2P         3.7960   -0.6060    1.0070 o         1 GRX     -0.916500
      4 O3P         2.5710    0.9910   -0.5910 o         1 GRX     -0.916500
      5 C7          1.3730    0.1710    1.6380 c3        1 GRX     -0.006600
      6 F1          1.9320    1.1730    2.3960 f         1 GRX     -0.266300
      7 C1          1.1090   -1.1170    2.3910 c3        1 GRX      0.099100
      8 O5         -0.2970   -1.1030    2.7490 os        1 GRX     -0.441600
      9 C5         -0.7520   -2.3310    3.2960 c3        1 GRX      0.105100
     10 C6         -2.2540   -2.1620    3.5270 c3        1 GRX      0.146400
     11 O6         -2.9570   -1.9430    2.3190 oh        1 GRX     -0.635800
     12 C4         -0.0230   -2.6210    4.6180 c3        1 GRX      0.112100
     13 O4         -0.4860   -3.8700    5.1210 oh        1 GRX     -0.628800
     14 C3          1.4840   -2.6380    4.3430 c3        1 GRX      0.082100
     15 O3          2.1470   -2.8550    5.5850 oh        1 GRX     -0.656800
     16 C2          1.9140   -1.3030    3.6900 c3        1 GRX      0.140100
     17 O2          3.3050   -1.3590    3.5460 oh        1 GRX     -0.710800
     18 H7          0.4170    0.5380    1.1880 h1        1 GRX      0.042700
     19 H1          1.2970   -1.9700    1.6690 h1        1 GRX      0.120700
     20 H2          1.6690   -0.4610    4.3990 h1        1 GRX      0.025700
     21 H5         -0.5640   -3.1700    2.5700 h1        1 GRX      0.059700
     22 H61C       -2.4400   -1.2980    4.2200 h1        1 GRX      0.031700
     23 H62C       -2.6790   -3.1030    3.9660 h1        1 GRX      0.031700
     24 H4         -0.2630   -1.8270    5.3780 h1        1 GRX      0.040700
     25 HA          0.2230   -4.2130    5.6790 ho        1 GRX      0.406000
     26 H3          1.7420   -3.4940    3.6600 h1        1 GRX      0.053700
     27 HB          3.0240   -2.4600    5.4870 ho        1 GRX      0.432000
     28 HC          3.5510   -1.0520    2.6080 ho        1 GRX      0.527000
     29 H6         -2.3930   -1.3860    1.7620 ho        1 GRX      0.434000
@<TRIPOS>BOND
     1    1    2 1   
     2    2    3 1   
     3    2    4 1   
     4    2    5 1   
     5    5    6 1   
     6    5    7 1   
     7    5   18 1   
     8    7    8 1   
     9    7   16 1   
    10    7   19 1   
    11    8    9 1   
    12    9   10 1   
    13    9   12 1   
    14    9   21 1   
    15   10   11 1   
    16   10   22 1   
    17   10   23 1   
    18   11   29 1   
    19   12   13 1   
    20   12   14 1   
    21   12   24 1   
    22   13   25 1   
    23   14   15 1   
    24   14   16 1   
    25   14   26 1   
    26   15   27 1   
    27   16   17 1   
    28   16   20 1   
    29   17   28 1   
@<TRIPOS>SUBSTRUCTURE
     1 GRX         1 TEMP              0 ****  ****    0 ROOT
