@<TRIPOS>MOLECULE
GS
   36    38     1     0     0
SMALL
bcc


@<TRIPOS>ATOM
      1 P           0.1920    0.5280    4.5270 p5        1 GS       1.293800
      2 OP1         1.3350    1.2440    3.9380 o         1 GS      -0.771000
      3 S2P        -1.6410    1.7240    4.0890 sh        1 GS      -0.715200
      4 OP3         0.0280    0.0560    5.9020 o         1 GS      -0.771000
      5 O5'        -0.0250   -0.7440    3.5090 os        1 GS      -0.553200
      6 C5'        -0.1570   -0.4640    2.1480 c3        1 GS       0.172400
      7 C4'         1.1790   -0.6520    1.4090 c3        1 GS       0.068100
      8 O4'         0.9270   -1.3400    0.1680 os        1 GS      -0.417600
      9 C3'         1.9070    0.6720    1.0870 c3        1 GS       0.142100
     10 O3'         3.1600    0.7310    1.7340 oh        1 GS      -0.626800
     11 C2'         2.1520    0.6440   -0.4250 c3        1 GS      -0.124400
     12 C1'         1.3400   -0.5580   -0.9530 c3        1 GS       0.252800
     13 N9          0.1780   -0.1910   -1.7490 na        1 GS      -0.205900
     14 C8         -1.1230    0.1380   -1.3030 cc        1 GS       0.429400
     15 N7         -1.9860    0.3790   -2.3100 nd        1 GS      -0.605000
     16 C5         -1.2380    0.1980   -3.4740 cd        1 GS       0.187800
     17 C6         -1.6150    0.3270   -4.8650 c         1 GS       0.649000
     18 O6         -2.7170    0.6310   -5.3480 o         1 GS      -0.616500
     19 N1         -0.5600    0.0520   -5.7780 n         1 GS      -0.505400
     20 C2          0.7440   -0.2780   -5.3560 cd        1 GS       0.643800
     21 N2          1.7310   -0.4100   -6.3790 nh        1 GS      -0.877800
     22 N3          1.1180   -0.4260   -4.0700 nc        1 GS      -0.652100
     23 C4          0.1190   -0.1650   -3.1450 cc        1 GS       0.085800
     24 HSP2       -2.3780    1.3390    5.1210 hs        1 GS       0.315800
     25 H5'        -0.5510    0.5830    2.0130 h1        1 GS       0.049700
     26 H5''       -0.9010   -1.2000    1.7300 h1        1 GS       0.049700
     27 H4'         1.8490   -1.3380    1.9980 h1        1 GS       0.094700
     28 H3'         1.2810    1.5570    1.3850 h1        1 GS       0.081700
     29 HO3'        2.9840    1.0080    2.6500 ho        1 GS       0.464000
     30 H2'         3.2370    0.4710   -0.6350 hc        1 GS       0.074200
     31 H2''        1.8540    1.6100   -0.8950 hc        1 GS       0.074200
     32 H1'         1.9740   -1.2430   -1.5910 h2        1 GS       0.092700
     33 H8         -1.3590    0.1690   -0.2290 h5        1 GS       0.089100
     34 HN1        -0.7470    0.1950   -6.7460 hn        1 GS       0.328500
     35 HN21        2.6290   -0.6680   -6.0210 hn        1 GS       0.401300
     36 HN22        1.4410   -1.0040   -7.1270 hn        1 GS       0.401300
@<TRIPOS>BOND
     1    1    2 1   
     2    1    3 1   
     3    1    4 1   
     4    1    5 1   
     5    3   24 1   
     6    5    6 1   
     7    6    7 1   
     8    6   25 1   
     9    6   26 1   
    10    7    8 1   
    11    7    9 1   
    12    7   27 1   
    13    8   12 1   
    14    9   10 1   
    15    9   11 1   
    16    9   28 1   
    17   10   29 1   
    18   11   12 1   
    19   11   30 1   
    20   11   31 1   
    21   12   13 1   
    22   12   32 1   
    23   13   14 1   
    24   13   23 1   
    25   14   15 2   
    26   14   33 1   
    27   15   16 1   
    28   16   17 1   
    29   16   23 2   
    30   17   18 2   
    31   17   19 1   
    32   19   20 1   
    33   19   34 1   
    34   20   21 1   
    35   20   22 2   
    36   21   35 1   
    37   21   36 1   
    38   22   23 1   
@<TRIPOS>SUBSTRUCTURE
     1 GS          1 TEMP              0 ****  ****    0 ROOT
