@<TRIPOS>MOLECULE
GS
   36    34     1     0     0
SMALL
bcc


@<TRIPOS>ATOM
      1 P           3.2500   -3.6680    1.9940 p3        1 GS       2.529000
      2 OP1         4.5350   -3.1620    1.2610 o         1 GS      -1.090500
      3 S2P         3.5490   -3.5790    4.0810 s         1 GS      -0.906000
      4 OP3         2.9650   -5.1010    1.5820 o         1 GS      -1.090500
      5 O5'         2.0110   -2.7440    1.5930 os        1 GS      -0.715000
      6 C5'         1.7710   -2.4910    0.2080 c3        1 GS       0.022000
      7 C4'         0.3670   -1.9990    0.0290 c3        1 GS      -0.043000
      8 O4'         0.2540   -0.8310    0.5090 os        1 GS      -0.274000
      9 C3'         0.0140   -1.8740   -1.5680 c3        1 GS       0.031000
     10 O3'        -0.4190   -3.1850   -2.0930 oh        1 GS      -0.354000
     11 C2'        -0.9070   -1.0630   -1.6510 c3        1 GS      -0.203000
     12 C1'        -0.7470   -0.1350   -0.3950 c3        1 GS       0.161000
     13 N9         -0.2970    1.0360   -0.7560 n3        1 GS      -0.161000
     14 C8          0.8130    1.4760   -1.4220 c1        1 GS      -0.059000
     15 N7          0.7840    2.8380   -1.4350 n2        1 GS      -0.079000
     16 C5         -0.3240    3.2340   -0.7890 c1        1 GS      -0.230000
     17 C6         -0.8700    4.5900   -0.4650 c1        1 GS       0.396000
     18 O6         -0.2460    5.6050   -0.7970 o         1 GS      -0.341000
     19 N1         -2.0410    4.7080    0.2960 n3        1 GS      -0.345000
     20 C2         -2.7140    3.5320    0.7640 c2        1 GS       0.197000
     21 N2         -3.9260    3.6510    1.4700 n3        1 GS      -0.316000
     22 N3         -2.1890    2.2330    0.4560 n1        1 GS      -0.225000
     23 C4         -0.9970    2.1050   -0.3660 c1        1 GS       0.036000
     24 HSP2        4.4410   -4.3010    4.3860 hs        1 GS       0.144000
     25 H5'         1.9000   -3.3380   -0.3140 h1        1 GS       0.089000
     26 H5''        2.3820   -1.8290   -0.1050 h1        1 GS       0.089000
     27 H4'        -0.2590   -2.6040    0.4660 h1        1 GS       0.134000
     28 H3'         0.8060   -1.5470   -2.0710 h1        1 GS       0.121000
     29 HO3'       -0.2030   -3.2480   -2.9410 ho        1 GS       0.263000
     30 H2'        -0.8210   -0.5160   -2.5100 hc        1 GS       0.113500
     31 H2''       -1.8120   -1.5460   -1.6220 hc        1 GS       0.113500
     32 H1'        -1.6330   -0.0350    0.0810 h2        1 GS       0.132000
     33 H8          1.5530    0.9010   -1.7750 DU        1 GS       0.226000
     34 HN1        -2.3730    5.5250    0.4900 hn        1 GS       0.242000
     35 HN21       -4.3500    2.9050    1.7770 hn        1 GS       0.196500
     36 HN22       -4.2690    4.4570    1.6330 hn        1 GS       0.196500
@<TRIPOS>BOND
     1    1    2 1   
     2    1    4 1   
     3    1    5 1   
     4    3   24 1   
     5    5    6 1   
     6    6    7 1   
     7    6   25 1   
     8    6   26 1   
     9    7    8 1   
    10    7    9 1   
    11    7   27 1   
    12    8   12 1   
    13    9   10 1   
    14    9   11 1   
    15    9   28 1   
    16   10   29 1   
    17   11   12 1   
    18   11   30 1   
    19   11   31 1   
    20   12   13 1   
    21   12   32 1   
    22   13   14 1   
    23   13   23 1   
    24   14   15 1   
    25   15   16 1   
    26   16   23 1   
    27   17   18 1   
    28   17   19 1   
    29   19   20 1   
    30   19   34 1   
    31   20   21 1   
    32   20   22 1   
    33   21   35 1   
    34   21   36 1   
@<TRIPOS>SUBSTRUCTURE
     1 GS          1 TEMP              0 ****  ****    0 ROOT
