@<TRIPOS>MOLECULE
GS1
   24    24     1     0     0
SMALL
bcc


@<TRIPOS>ATOM
      1 C1         -0.7350   -0.6820   -1.3780 c3        1 GS1      0.200200
      2 S1         -1.3010   -0.4670   -3.0140 sh        1 GS1     -0.353900
      3 C2          0.7750   -0.6820   -1.3780 c3        1 GS1      0.081100
      4 O2          1.2420   -1.8580   -2.0750 oh        1 GS1     -0.600800
      5 C3          1.3390   -0.6820   -0.0060 c3        1 GS1      0.118100
      6 O3          2.7790   -0.4980   -0.0900 oh        1 GS1     -0.581800
      7 C4          0.7620    0.4040    0.8410 c3        1 GS1      0.121100
      8 O4          1.2160    0.2290    2.1910 oh        1 GS1     -0.569800
      9 C5         -0.7550    0.4000    0.8290 c3        1 GS1      0.058100
     10 O5         -1.3050    0.3960   -0.5260 os        1 GS1     -0.413600
     11 C6         -1.2500    1.6240    1.5520 c3        1 GS1      0.139400
     12 O6         -2.6590    1.7050    1.4320 oh        1 GS1     -0.593800
     13 H1         -1.0500   -1.5450   -1.0470 h2        1 GS1      0.090700
     14 HS1        -2.4520   -0.7080   -3.0660 hs        1 GS1      0.228800
     15 H2          1.0920    0.1120   -1.8500 h1        1 GS1      0.066700
     16 HO2         1.6230   -1.6170   -2.8390 ho        1 GS1      0.426000
     17 H3          1.1530   -1.5440    0.4130 h1        1 GS1      0.048700
     18 HO3         3.1880   -1.2200    0.2260 ho        1 GS1      0.422000
     19 H4          1.0790    1.2650    0.5090 h1        1 GS1      0.103700
     20 HO4         1.1380   -0.6240    2.4220 ho        1 GS1      0.403000
     21 H5         -1.0720   -0.3940    1.3000 h1        1 GS1      0.059700
     22 H61        -0.8440    2.4200    1.1600 h1        1 GS1      0.067200
     23 H62        -1.0070    1.5650    2.4960 h1        1 GS1      0.067200
     24 HO6        -2.9560    2.3990    1.8990 ho        1 GS1      0.410000
@<TRIPOS>BOND
     1    1    2 1   
     2    1    3 1   
     3    1   10 1   
     4    1   13 1   
     5    2   14 1   
     6    3    4 1   
     7    3    5 1   
     8    3   15 1   
     9    4   16 1   
    10    5    6 1   
    11    5    7 1   
    12    5   17 1   
    13    6   18 1   
    14    7    8 1   
    15    7    9 1   
    16    7   19 1   
    17    8   20 1   
    18    9   10 1   
    19    9   11 1   
    20    9   21 1   
    21   11   12 1   
    22   11   22 1   
    23   11   23 1   
    24   12   24 1   
@<TRIPOS>SUBSTRUCTURE
     1 GS1         1 TEMP              0 ****  ****    0 ROOT
