@<TRIPOS>MOLECULE
GS1
   24    24     1     0     0
SMALL
bcc


@<TRIPOS>ATOM
      1 C1          0.7810    0.4920   -0.8910 c3        1 GS1      0.202200
      2 S1          2.0730    0.0660   -2.0400 sh        1 GS1     -0.354900
      3 C2         -0.5800   -0.0940   -1.2860 c3        1 GS1      0.083100
      4 O2         -1.0770    0.4990   -2.4730 oh        1 GS1     -0.599800
      5 C3         -1.6160    0.2180   -0.1930 c3        1 GS1      0.109100
      6 O3         -2.8270   -0.4770   -0.4320 oh        1 GS1     -0.604800
      7 C4         -1.0960   -0.2700    1.1700 c3        1 GS1      0.124100
      8 O4         -1.9500    0.1700    2.2110 oh        1 GS1     -0.593800
      9 C5          0.2900    0.3330    1.4390 c3        1 GS1      0.094100
     10 O5          1.1870   -0.0050    0.3740 os        1 GS1     -0.418600
     11 C6          0.9120   -0.2580    2.7070 c3        1 GS1      0.141400
     12 O6          2.1000    0.4140    3.0550 oh        1 GS1     -0.592800
     13 H1          0.7290    1.6140   -0.8840 h2        1 GS1      0.093700
     14 HS1         2.3650   -1.1490   -1.6000 hs        1 GS1      0.228800
     15 H2         -0.4960   -1.2080   -1.4220 h1        1 GS1      0.063700
     16 HO2        -0.4020    0.3670   -3.1550 ho        1 GS1      0.426000
     17 H3         -1.8150    1.3250   -0.1620 h1        1 GS1      0.066700
     18 HO3        -3.1250   -0.2180   -1.3150 ho        1 GS1      0.428000
     19 H4         -1.0420   -1.3940    1.1700 h1        1 GS1      0.061700
     20 HO4        -2.8390   -0.1330    1.9800 ho        1 GS1      0.426000
     21 H5          0.2170    1.4520    1.5260 h1        1 GS1      0.075700
     22 H61         1.1060   -1.3540    2.5640 h1        1 GS1      0.065200
     23 H62         0.2080   -0.0930    3.5670 h1        1 GS1      0.065200
     24 HO6         2.7100    0.3190    2.3120 ho        1 GS1      0.410000
@<TRIPOS>BOND
     1    1    2 1   
     2    1    3 1   
     3    1   10 1   
     4    1   13 1   
     5    2   14 1   
     6    3    4 1   
     7    3    5 1   
     8    3   15 1   
     9    4   16 1   
    10    5    6 1   
    11    5    7 1   
    12    5   17 1   
    13    6   18 1   
    14    7    8 1   
    15    7    9 1   
    16    7   19 1   
    17    8   20 1   
    18    9   10 1   
    19    9   11 1   
    20    9   21 1   
    21   11   12 1   
    22   11   22 1   
    23   11   23 1   
    24   12   24 1   
@<TRIPOS>SUBSTRUCTURE
     1 GS1         1 TEMP              0 ****  ****    0 ROOT
