@<TRIPOS>MOLECULE
GS2
   68    72     1     0     0
SMALL
bcc


@<TRIPOS>ATOM
      1 C1          1.0260   -1.5510   -1.5600 c3        1 GS2      0.085100
      2 N1          2.0800   -1.6710   -0.5310 ny        1 GS2     -0.670800
      3 C2          2.1940   -0.4440    0.3690 c         1 GS2      0.590700
      4 O1          1.2060    0.2820    0.3680 o         1 GS2     -0.456100
      5 C3          3.4560   -0.2870    1.0750 ca        1 GS2     -0.325600
      6 C4          4.1650   -1.4120    1.5990 ca        1 GS2      0.172900
      7 F1          3.6350   -2.6560    1.4730 f         1 GS2     -0.148900
      8 C5          5.3780   -1.2660    2.2610 ca        1 GS2     -0.175000
      9 C6          5.9100    0.0210    2.4300 ca        1 GS2     -0.014000
     10 C7          5.2410    1.1350    1.9720 ca        1 GS2     -0.171000
     11 C8          3.9930    1.0250    1.2930 ca        1 GS2      0.312600
     12 N2          3.2970    2.1400    0.8710 nu        1 GS2     -0.753300
     13 C9          3.8330    3.4110    0.5700 ca        1 GS2      0.738200
     14 N3          5.1390    3.5600    0.2470 nb        1 GS2     -0.798000
     15 C10         5.5910    4.8470   -0.0690 ca        1 GS2      0.896900
     16 N4          6.9960    4.9480   -0.2680 nu        1 GS2     -0.677300
     17 C11         7.5300    6.0540   -0.9780 ca        1 GS2      0.113600
     18 C12         7.5670    7.3210   -0.3640 ca        1 GS2     -0.060000
     19 C13         8.1970    8.3630   -1.0420 ca        1 GS2     -0.022400
     20 N5          8.4040    9.7260   -0.6610 n         1 GS2     -0.237200
     21 C14         9.1080   10.3590   -1.7340 cc        1 GS2     -0.115400
     22 C15         9.3410    9.4600   -2.7480 cd        1 GS2     -0.081200
     23 C16         8.7830    8.1770   -2.3400 ca        1 GS2     -0.061800
     24 C17         8.7430    6.9320   -2.9490 ca        1 GS2     -0.142000
     25 C18         8.1210    5.8790   -2.2720 ca        1 GS2      0.108100
     26 O2          8.0330    4.6000   -2.7870 os        1 GS2     -0.339900
     27 C19         8.7070    4.3580   -4.0200 c3        1 GS2      0.112700
     28 C20         8.0900   10.2900    0.5480 c         1 GS2      0.664100
     29 O3          7.4810    9.6970    1.4590 o         1 GS2     -0.581100
     30 C21         8.5090   11.7610    0.7620 c3        1 GS2      0.015800
     31 N6          8.2360   12.2120    2.1630 nx        1 GS2     -0.671400
     32 C22         9.2890   11.7260    3.0960 c3        1 GS2      0.082100
     33 C23         8.1040   13.6900    2.2270 c3        1 GS2      0.082100
     34 N7          4.8300    5.9900   -0.1360 nb        1 GS2     -0.743000
     35 C24         3.5160    5.7980    0.1760 ca        1 GS2      0.496800
     36 N8          2.4880    6.7420    0.2070 na        1 GS2     -0.278100
     37 C25         1.3030    6.0910    0.5780 cc        1 GS2     -0.090100
     38 C26         1.5400    4.7380    0.7990 cd        1 GS2     -0.160200
     39 C27         2.9380    4.5130    0.5510 ca        1 GS2     -0.376400
     40 H1          0.9850   -2.5020   -2.1560 hx        1 GS2      0.112700
     41 H1A         1.2590   -0.6840   -2.2350 hx        1 GS2      0.112700
     42 H1B         0.0340   -1.3690   -1.0630 hx        1 GS2      0.112700
     43 HN1         2.9920   -1.8270   -0.9750 hn        1 GS2      0.466800
     44 H5          5.9010   -2.1500    2.6590 ha        1 GS2      0.185000
     45 H6          6.8730    0.1360    2.9600 ha        1 GS2      0.174000
     46 H7          5.6780    2.1310    2.1620 ha        1 GS2      0.188000
     47 HN2         2.2990    2.0920    0.8140 hn        1 GS2      0.475800
     48 HN4         7.4210    4.0780   -0.5420 hn        1 GS2      0.445800
     49 H12         7.1090    7.4830    0.6260 ha        1 GS2      0.183000
     50 H14         9.3660   11.4180   -1.6760 h4        1 GS2      0.168000
     51 H15         9.8480    9.6530   -3.6940 ha        1 GS2      0.185000
     52 H17         9.1890    6.7920   -3.9450 ha        1 GS2      0.164000
     53 H19         8.2460    4.9610   -4.8400 h1        1 GS2      0.057367
     54 H19A        9.7970    4.5800   -3.9250 h1        1 GS2      0.057367
     55 H19B        8.5380    3.2640   -4.1910 h1        1 GS2      0.057367
     56 H21         9.6100   11.8890    0.5530 hx        1 GS2      0.127700
     57 H21A        7.9190   12.4110    0.0510 hx        1 GS2      0.127700
     58 H22        10.2800   12.1710    2.8180 hx        1 GS2      0.110700
     59 H22A        9.3360   10.6040    3.0330 hx        1 GS2      0.110700
     60 H22B        9.0200   12.0320    4.1440 hx        1 GS2      0.110700
     61 H23         7.9160   13.9950    3.2930 hx        1 GS2      0.110700
     62 H23A        7.2420   14.0200    1.5860 hx        1 GS2      0.110700
     63 H23B        9.0520   14.1700    1.8630 hx        1 GS2      0.110700
     64 HN8         2.5790    7.6960   -0.0320 hn        1 GS2      0.319700
     65 H25         0.3700    6.6570    0.6600 h4        1 GS2      0.189000
     66 H26         0.8080    3.9970    1.1070 ha        1 GS2      0.165000
     67 H121        1.8860   -2.4840    0.0720 hn        1 GS2      0.466800
     68 H61         7.3400   11.7780    2.4560 hn        1 GS2      0.475800
@<TRIPOS>BOND
     1    1    2 1   
     2    1   40 1   
     3    1   41 1   
     4    1   42 1   
     5    2    3 1   
     6    2   43 1   
     7    2   67 1   
     8    3    4 2   
     9    3    5 1   
    10    5    6 ar  
    11    5   11 ar  
    12    6    7 1   
    13    6    8 ar  
    14    8    9 ar  
    15    8   44 1   
    16    9   10 ar  
    17    9   45 1   
    18   10   11 ar  
    19   10   46 1   
    20   11   12 1   
    21   12   13 1   
    22   12   47 1   
    23   13   14 ar  
    24   13   39 ar  
    25   14   15 ar  
    26   15   16 1   
    27   15   34 ar  
    28   16   17 1   
    29   16   48 1   
    30   17   18 ar  
    31   17   25 ar  
    32   18   19 ar  
    33   18   49 1   
    34   19   20 1   
    35   19   23 ar  
    36   20   21 1   
    37   20   28 1   
    38   21   22 2   
    39   21   50 1   
    40   22   23 1   
    41   22   51 1   
    42   23   24 ar  
    43   24   25 ar  
    44   24   52 1   
    45   25   26 1   
    46   26   27 1   
    47   27   53 1   
    48   27   54 1   
    49   27   55 1   
    50   28   29 2   
    51   28   30 1   
    52   30   31 1   
    53   30   56 1   
    54   30   57 1   
    55   31   32 1   
    56   31   33 1   
    57   31   68 1   
    58   32   58 1   
    59   32   59 1   
    60   32   60 1   
    61   33   61 1   
    62   33   62 1   
    63   33   63 1   
    64   34   35 ar  
    65   35   36 1   
    66   35   39 ar  
    67   36   37 1   
    68   36   64 1   
    69   37   38 2   
    70   37   65 1   
    71   38   39 1   
    72   38   66 1   
@<TRIPOS>SUBSTRUCTURE
     1 GS2         1 TEMP              0 ****  ****    0 ROOT
