@<TRIPOS>MOLECULE
GS2
   66    56     1     0     0
SMALL
bcc


@<TRIPOS>ATOM
      1 C1         -6.0710   -0.1570    3.8500 c3        1 GS2     -0.080000
      2 N1         -4.7420   -0.6410    4.0040 n         1 GS2     -0.361000
      3 C2         -4.4300   -1.9860    3.6680 c2        1 GS2      0.354000
      4 O1         -5.3480   -2.7970    3.4360 o         1 GS2     -0.391000
      5 C3         -3.0060   -2.4610    3.7290 c2        1 GS2     -0.206000
      6 C4         -2.3370   -2.4910    4.9440 c2        1 GS2      0.127000
      7 F1         -2.9730   -2.1610    6.0590 f         1 GS2     -0.108000
      8 C5         -1.0270   -2.9080    4.9990 c1        1 GS2     -0.194000
      9 C6         -0.3720   -3.2980    3.8340 c1        1 GS2     -0.110500
     10 C7         -1.0410   -3.2680    2.6170 c1        1 GS2     -0.110500
     11 C8         -2.3510   -2.8520    2.5630 c1        1 GS2      0.155000
     12 N2         -3.0670   -2.9810    1.3790 n3        1 GS2     -0.266000
     13 C9         -2.8200   -2.0880    0.2980 c2        1 GS2      0.238000
     14 N3         -1.5590   -2.1620   -0.0720 n2        1 GS2     -0.292000
     15 C10        -1.1060   -1.4170   -1.1520 c1        1 GS2      0.182000
     16 N4          0.1250   -1.6330   -1.8210 n2        1 GS2     -0.199000
     17 C11         0.7970   -0.5090   -2.5150 c2        1 GS2      0.026000
     18 C12         1.7440    0.1840   -1.7690 c2        1 GS2     -0.064000
     19 C13         2.4260    1.2790   -2.3380 c1        1 GS2     -0.011000
     20 N5          3.3780    2.1460   -1.8260 n1        1 GS2     -0.184000
     21 C14         3.6860    3.0500   -2.7920 c1        1 GS2     -0.054000
     22 C15         2.9340    2.7550   -3.9090 c1        1 GS2     -0.186000
     23 C16         2.1570    1.6580   -3.6190 c1        1 GS2     -0.054000
     24 C17         1.1960    0.9560   -4.3770 c1        1 GS2     -0.161000
     25 C18         0.5240   -0.1230   -3.8170 c1        1 GS2      0.037000
     26 O2         -0.2010   -1.1640   -4.3760 os        1 GS2     -0.226000
     27 C19        -0.3060   -1.0980   -5.8010 c3        1 GS2     -0.071000
     28 C20         3.9410    2.0910   -0.5300 c1        1 GS2      0.321000
     29 O3          3.5950    1.2520    0.2300 o         1 GS2     -0.321000
     30 C21         4.9660    3.1700   -0.0840 c3        1 GS2     -0.088000
     31 N6          5.8430    2.6140    0.9450 n3        1 GS2     -0.267000
     32 C22         7.1850    2.4820    0.4210 c3        1 GS2     -0.124500
     33 C23         5.8560    3.4640    2.0520 c3        1 GS2     -0.124500
     34 N7         -1.9510   -0.6210   -1.8210 n2        1 GS2     -0.235000
     35 C24        -3.2570   -0.5400   -1.4430 c1        1 GS2      0.105000
     36 N8         -4.3190    0.2660   -1.9030 n1        1 GS2     -0.199000
     37 C25        -5.4120    0.0200   -1.1150 c1        1 GS2     -0.106000
     38 C26        -5.0550   -0.9200   -0.1760 c1        1 GS2     -0.151000
     39 C27        -3.7010   -1.2610   -0.3960 c1        1 GS2     -0.253000
     40 H1         -6.1950    0.1690    2.9350 h1        1 GS2      0.086000
     41 H1A        -6.2280    0.5770    4.4830 h1        1 GS2      0.086000
     42 H1B        -6.6900   -0.8650    4.0230 h1        1 GS2      0.086000
     43 HN1        -4.1020   -0.0980    4.3200 hn        1 GS2      0.231000
     44 H5         -0.5420   -2.9300    5.8810 ha        1 GS2      0.152000
     45 H6          0.5550   -3.5930    3.8720 ha        1 GS2      0.154000
     46 H7         -0.5830   -3.5420    1.8020 ha        1 GS2      0.154000
     47 HN2        -3.5960   -3.6660    1.2640 hn        1 GS2      0.271000
     48 HN4         0.4530   -2.4900   -1.9110 hn        1 GS2      0.233000
     49 H12         1.9660   -0.1130   -0.8410 ha        1 GS2      0.188000
     50 H14         4.3050    3.7770   -2.7050 DU        1 GS2      0.186000
     51 H15         2.9490    3.2430   -4.7650 DU        1 GS2      0.186000
     52 H17         0.9970    1.2390   -5.3300 ha        1 GS2      0.143000
     53 H19        -0.6420   -0.2330   -6.0590 h1        1 GS2      0.083667
     54 H19A        0.5530   -1.2330   -6.1910 h1        1 GS2      0.083667
     55 H19B       -0.9080   -1.7800   -6.1090 h1        1 GS2      0.083667
     56 H21         4.4780    3.9590    0.2850 h1        1 GS2      0.104000
     57 H21A        5.4980    3.4470   -0.8520 h1        1 GS2      0.104000
     58 H22         7.3720    3.2240   -0.1890 h1        1 GS2      0.078833
     59 H22A        7.2680    1.5960   -0.0830 h1        1 GS2      0.078833
     60 H22B        7.8510    2.4990    1.1870 h1        1 GS2      0.078833
     61 H23         6.4070    3.0880    2.7350 h1        1 GS2      0.078833
     62 H23A        6.2190    4.3530    1.7850 h1        1 GS2      0.078833
     63 H23B        4.9510    3.5720    2.3890 h1        1 GS2      0.078833
     64 HN8        -4.2850    0.8230   -2.5710 DU        1 GS2      0.186000
     65 H25        -6.3240    0.4080   -1.2390 DU        1 GS2      0.186000
     66 H26        -5.6260   -1.2820    0.5080 DU        1 GS2      0.186000
@<TRIPOS>BOND
     1    1    2 1   
     2    1   40 1   
     3    1   41 1   
     4    1   42 1   
     5    2    3 1   
     6    2   43 1   
     7    3    4 1   
     8    3    5 1   
     9    5    6 1   
    10    5   11 1   
    11    6    7 1   
    12    6    8 1   
    13    8   44 1   
    14    9   10 1   
    15    9   45 1   
    16   10   46 1   
    17   11   12 1   
    18   12   13 1   
    19   12   47 1   
    20   13   14 1   
    21   13   39 1   
    22   14   15 1   
    23   15   34 1   
    24   16   17 1   
    25   16   48 1   
    26   17   18 1   
    27   17   25 1   
    28   18   19 1   
    29   18   49 1   
    30   20   21 1   
    31   21   22 1   
    32   22   23 1   
    33   23   24 1   
    34   24   52 1   
    35   25   26 1   
    36   26   27 1   
    37   27   53 1   
    38   27   54 1   
    39   27   55 1   
    40   28   29 1   
    41   28   30 1   
    42   30   31 1   
    43   30   56 1   
    44   30   57 1   
    45   31   32 1   
    46   31   33 1   
    47   32   58 1   
    48   32   59 1   
    49   32   60 1   
    50   33   61 1   
    51   33   62 1   
    52   33   63 1   
    53   34   35 1   
    54   36   37 1   
    55   37   38 1   
    56   38   39 1   
@<TRIPOS>SUBSTRUCTURE
     1 GS2         1 TEMP              0 ****  ****    0 ROOT
