@<TRIPOS>MOLECULE
GS2
   66    70     1     0     0
SMALL
bcc


@<TRIPOS>ATOM
      1 C1         -7.2000    0.3440   -3.1510 c3        1 GS2      0.075300
      2 N1         -6.6470   -0.2660   -1.9830 n         1 GS2     -0.551900
      3 C2         -6.2010    0.4700   -0.9070 c         1 GS2      0.679700
      4 O1         -6.1420    1.7190   -0.9620 o         1 GS2     -0.629100
      5 C3         -5.7350   -0.2880    0.2920 ca        1 GS2     -0.227600
      6 C4         -6.5430   -1.2950    0.8620 ca        1 GS2      0.161900
      7 F1         -7.7560   -1.5850    0.3250 f         1 GS2     -0.143900
      8 C5         -6.1190   -2.0150    1.9890 ca        1 GS2     -0.195000
      9 C6         -4.8800   -1.7230    2.5500 ca        1 GS2     -0.072000
     10 C7         -4.0700   -0.7260    2.0250 ca        1 GS2     -0.148000
     11 C8         -4.4810    0.0140    0.8900 ca        1 GS2      0.237600
     12 N2         -3.7070    1.0750    0.4040 nh        1 GS2     -0.746300
     13 C9         -2.3280    1.0270    0.1810 ca        1 GS2      0.759200
     14 N3         -1.5930   -0.0740    0.4810 nb        1 GS2     -0.818000
     15 C10        -0.2120   -0.0190    0.2680 ca        1 GS2      0.899900
     16 N4          0.5010   -1.1600    0.7360 nh        1 GS2     -0.679300
     17 C11         1.7860   -1.4570    0.2150 ca        1 GS2      0.112600
     18 C12         2.8680   -0.6050    0.4850 ca        1 GS2     -0.067000
     19 C13         4.1380   -0.9710    0.0270 ca        1 GS2     -0.008400
     20 N5          5.3860   -0.3070    0.1450 n         1 GS2     -0.262200
     21 C14         6.3530   -1.1190   -0.4950 cc        1 GS2     -0.080400
     22 C15         5.7650   -2.2590   -1.0110 cd        1 GS2     -0.160200
     23 C16         4.3510   -2.1960   -0.6960 ca        1 GS2     -0.073800
     24 C17         3.2810   -3.0450   -0.9560 ca        1 GS2     -0.159000
     25 C18         2.0150   -2.6770   -0.5100 ca        1 GS2      0.081100
     26 O2          0.8840   -3.4530   -0.7190 os        1 GS2     -0.341900
     27 C19         1.0820   -4.6920   -1.3860 c3        1 GS2      0.119700
     28 C20         5.6270    0.9210    0.7850 c         1 GS2      0.676100
     29 O3          4.7100    1.4890    1.3920 o         1 GS2     -0.536100
     30 C21         7.0650    1.4530    0.6930 c3        1 GS2      0.110800
     31 N6          7.1960    2.8420    1.0900 n3        1 GS2     -0.729600
     32 C22         7.0370    3.0620    2.5100 c3        1 GS2      0.152600
     33 C23         8.3860    3.4590    0.5480 c3        1 GS2      0.152600
     34 N7          0.4980    1.0240   -0.2730 nb        1 GS2     -0.760000
     35 C24        -0.2710    2.1120   -0.5760 ca        1 GS2      0.496800
     36 N8          0.1390    3.3280   -1.1280 na        1 GS2     -0.283100
     37 C25        -0.9900    4.1500   -1.2640 cc        1 GS2     -0.132100
     38 C26        -2.1290    3.4860   -0.8190 cd        1 GS2     -0.140200
     39 C27        -1.7070    2.1860   -0.3730 ca        1 GS2     -0.394400
     40 H1         -6.8100   -0.1860   -4.0620 h1        1 GS2      0.046367
     41 H1A        -8.3220    0.2750   -3.1470 h1        1 GS2      0.046367
     42 H1B        -6.9060    1.4260   -3.1990 h1        1 GS2      0.046367
     43 HN1        -6.7970   -1.2400   -1.8620 hn        1 GS2      0.316500
     44 H5         -6.7670   -2.7940    2.4130 ha        1 GS2      0.152000
     45 H6         -4.5400   -2.2860    3.4340 ha        1 GS2      0.143000
     46 H7         -3.1040   -0.5100    2.5070 ha        1 GS2      0.168000
     47 HN2        -4.1940    1.7910   -0.1030 hn        1 GS2      0.476800
     48 HN4        -0.0780   -1.9770    0.8220 hn        1 GS2      0.438800
     49 H12         2.7280    0.3370    1.0420 ha        1 GS2      0.189000
     50 H14         7.4020   -0.8150   -0.5230 h4        1 GS2      0.164000
     51 H15         6.2580   -3.0620   -1.5520 ha        1 GS2      0.159000
     52 H17         3.4490   -3.9790   -1.5090 ha        1 GS2      0.143000
     53 H19         1.7770   -5.3480   -0.8080 h1        1 GS2      0.045033
     54 H19A        0.0540   -5.1360   -1.4170 h1        1 GS2      0.045033
     55 H19B        1.4690   -4.5250   -2.4210 h1        1 GS2      0.045033
     56 H21         7.7040    0.7640    1.3230 h1        1 GS2      0.058200
     57 H21A        7.4010    1.3680   -0.3810 h1        1 GS2      0.058200
     58 H22         7.8490    2.5830    3.1220 h1        1 GS2      0.039033
     59 H22A        7.0490    4.1670    2.7030 h1        1 GS2      0.039033
     60 H22B        6.0440    2.6520    2.8350 h1        1 GS2      0.039033
     61 H23         8.3640    3.3880   -0.5710 h1        1 GS2      0.039033
     62 H23A        8.3870    4.5430    0.8380 h1        1 GS2      0.039033
     63 H23B        9.3380    2.9890    0.9200 h1        1 GS2      0.039033
     64 HN8         1.0710    3.5730   -1.3400 hn        1 GS2      0.312700
     65 H25        -0.8860    5.1550   -1.6750 h4        1 GS2      0.169000
     66 H26        -3.1450    3.8710   -0.8070 ha        1 GS2      0.163000
@<TRIPOS>BOND
     1    1    2 1   
     2    1   40 1   
     3    1   41 1   
     4    1   42 1   
     5    2    3 1   
     6    2   43 1   
     7    3    4 2   
     8    3    5 1   
     9    5    6 ar  
    10    5   11 ar  
    11    6    7 1   
    12    6    8 ar  
    13    8    9 ar  
    14    8   44 1   
    15    9   10 ar  
    16    9   45 1   
    17   10   11 ar  
    18   10   46 1   
    19   11   12 1   
    20   12   13 1   
    21   12   47 1   
    22   13   14 ar  
    23   13   39 ar  
    24   14   15 ar  
    25   15   16 1   
    26   15   34 ar  
    27   16   17 1   
    28   16   48 1   
    29   17   18 ar  
    30   17   25 ar  
    31   18   19 ar  
    32   18   49 1   
    33   19   20 1   
    34   19   23 ar  
    35   20   21 1   
    36   20   28 1   
    37   21   22 2   
    38   21   50 1   
    39   22   23 1   
    40   22   51 1   
    41   23   24 ar  
    42   24   25 ar  
    43   24   52 1   
    44   25   26 1   
    45   26   27 1   
    46   27   53 1   
    47   27   54 1   
    48   27   55 1   
    49   28   29 2   
    50   28   30 1   
    51   30   31 1   
    52   30   56 1   
    53   30   57 1   
    54   31   32 1   
    55   31   33 1   
    56   32   58 1   
    57   32   59 1   
    58   32   60 1   
    59   33   61 1   
    60   33   62 1   
    61   33   63 1   
    62   34   35 ar  
    63   35   36 1   
    64   35   39 ar  
    65   36   37 1   
    66   36   64 1   
    67   37   38 2   
    68   37   65 1   
    69   38   39 1   
    70   38   66 1   
@<TRIPOS>SUBSTRUCTURE
     1 GS2         1 TEMP              0 ****  ****    0 ROOT
