@<TRIPOS>MOLECULE
GS2
   70    74     1     0     0
SMALL
bcc


@<TRIPOS>ATOM
      1 C1          0.5930   -1.6580    2.8970 c3        1 GS2      0.085100
      2 N1          1.5540   -1.8130    1.7690 n4        1 GS2     -0.648800
      3 C2          2.1240   -0.5150    1.2800 c         1 GS2      0.566700
      4 O1          1.7120    0.4910    1.8630 o         1 GS2     -0.479100
      5 C3          3.1020   -0.4920    0.1770 ca        1 GS2     -0.236600
      6 C4          3.5340   -1.6580   -0.5040 ca        1 GS2      0.229900
      7 F1          3.0620   -2.8740   -0.1630 f         1 GS2     -0.096900
      8 C5          4.4720   -1.6040   -1.5660 ca        1 GS2     -0.099000
      9 C6          4.9890   -0.3870   -1.9590 ca        1 GS2     -0.012000
     10 C7          4.5880    0.7950   -1.3100 ca        1 GS2     -0.092000
     11 C8          3.6680    0.7560   -0.2670 ca        1 GS2      0.044600
     12 N2          3.2680    2.0180    0.3860 n4        1 GS2     -0.624100
     13 C9          3.8770    3.2660   -0.1410 ca        1 GS2      0.529200
     14 N3          5.0220    3.7080    0.4360 nb        1 GS2     -0.681000
     15 C10         5.5030    4.9320    0.0160 ca        1 GS2      0.726900
     16 N4          6.7520    5.3960    0.7130 n4        1 GS2     -0.577100
     17 C11         7.5670    6.3670   -0.0200 ca        1 GS2     -0.093400
     18 C12         7.5470    7.7230    0.3780 ca        1 GS2     -0.053000
     19 C13         8.4150    8.5930   -0.2680 ca        1 GS2     -0.009400
     20 N5          8.6680    9.9820   -0.0740 n         1 GS2     -0.258200
     21 C14         9.6500   10.3670   -1.0340 cc        1 GS2     -0.036400
     22 C15        10.0230    9.2920   -1.8110 cd        1 GS2     -0.115200
     23 C16         9.2670    8.1370   -1.3500 ca        1 GS2      0.013200
     24 C17         9.2590    6.8110   -1.7420 ca        1 GS2     -0.136000
     25 C18         8.4140    5.9150   -1.0720 ca        1 GS2      0.176100
     26 O2          8.3480    4.5710   -1.3540 os        1 GS2     -0.372900
     27 C19         9.3480    4.0500   -2.2450 c3        1 GS2      0.112700
     28 C20         8.1470   10.7820    0.9330 c         1 GS2      0.675100
     29 O3          7.3090   10.3520    1.7440 o         1 GS2     -0.564100
     30 C21         8.6330   12.2390    0.9970 c3        1 GS2      0.024800
     31 N6          8.0970   12.9760    2.1830 n4        1 GS2     -0.671400
     32 C22         8.8740   12.6580    3.4150 c3        1 GS2      0.079100
     33 C23         8.0950   14.4460    1.9280 c3        1 GS2      0.079100
     34 N7          4.9680    5.7620   -0.9330 nb        1 GS2     -0.573000
     35 C24         3.8380    5.2880   -1.5080 ca        1 GS2      0.460800
     36 N8          3.0370    5.8710   -2.4950 na        1 GS2     -0.229100
     37 C25         1.9710    5.0210   -2.7560 cc        1 GS2      0.049900
     38 C26         2.0410    3.8660   -1.9530 cd        1 GS2     -0.208200
     39 C27         3.2070    3.9870   -1.1480 ca        1 GS2     -0.241400
     40 H1          0.2250   -2.6840    3.1860 hx        1 GS2      0.132700
     41 H1A         1.1070   -1.1760    3.7720 hx        1 GS2      0.132700
     42 H1B        -0.2730   -1.0180    2.5740 hx        1 GS2      0.132700
     43 HN1         1.0780   -2.2830    0.9800 hn        1 GS2      0.487300
     44 H5          4.7710   -2.5510   -2.0640 ha        1 GS2      0.232000
     45 H6          5.7200   -0.3320   -2.7910 ha        1 GS2      0.215000
     46 H7          5.0270    1.7470   -1.6610 ha        1 GS2      0.184000
     47 HN2         3.4790    1.9330    1.3990 hn        1 GS2      0.490800
     48 HN4         7.3480    4.5640    0.8800 hn        1 GS2      0.487300
     49 H12         6.8860    8.0880    1.1840 ha        1 GS2      0.183000
     50 H14         9.9990   11.4050   -1.0880 h4        1 GS2      0.198000
     51 H15        10.7520    9.2890   -2.6250 ha        1 GS2      0.214000
     52 H17         9.9130    6.4700   -2.5630 ha        1 GS2      0.196000
     53 H19         9.1860    4.4530   -3.2740 h1        1 GS2      0.077367
     54 H19A        9.1600    2.9470   -2.2110 h1        1 GS2      0.077367
     55 H19B       10.3710    4.2900   -1.8680 h1        1 GS2      0.077367
     56 H21         8.2900   12.7710    0.0580 hx        1 GS2      0.140700
     57 H21A        9.7620   12.2700    1.0410 hx        1 GS2      0.140700
     58 H22         9.9340   13.0120    3.3010 hx        1 GS2      0.118700
     59 H22A        8.8510   11.5480    3.5850 hx        1 GS2      0.118700
     60 H22B        8.4020   13.1830    4.2910 hx        1 GS2      0.118700
     61 H23         9.1420   14.7950    1.7140 hx        1 GS2      0.118700
     62 H23A        7.4280   14.6780    1.0550 hx        1 GS2      0.118700
     63 H23B        7.7080   14.9720    2.8450 hx        1 GS2      0.118700
     64 HN8         3.2150    6.7510   -2.9330 hn        1 GS2      0.367700
     65 H25         1.2080    5.2900   -3.5080 h4        1 GS2      0.246000
     66 H26         1.3190    3.0500   -1.9720 ha        1 GS2      0.197000
     67 H121        2.3320   -2.4250    2.0670 hn        1 GS2      0.487300
     68 H221        2.2400    2.1230    0.2890 hn        1 GS2      0.490800
     69 H42         6.4640    5.8060    1.6150 hn        1 GS2      0.487300
     70 H61         7.1230   12.6650    2.3380 hn        1 GS2      0.470800
@<TRIPOS>BOND
     1    1    2 1   
     2    1   40 1   
     3    1   41 1   
     4    1   42 1   
     5    2    3 1   
     6    2   43 1   
     7    2   67 1   
     8    3    4 2   
     9    3    5 1   
    10    5    6 ar  
    11    5   11 ar  
    12    6    7 1   
    13    6    8 ar  
    14    8    9 ar  
    15    8   44 1   
    16    9   10 ar  
    17    9   45 1   
    18   10   11 ar  
    19   10   46 1   
    20   11   12 1   
    21   12   13 1   
    22   12   47 1   
    23   12   68 1   
    24   13   14 ar  
    25   13   39 ar  
    26   14   15 ar  
    27   15   16 1   
    28   15   34 ar  
    29   16   17 1   
    30   16   48 1   
    31   16   69 1   
    32   17   18 ar  
    33   17   25 ar  
    34   18   19 ar  
    35   18   49 1   
    36   19   20 1   
    37   19   23 ar  
    38   20   21 1   
    39   20   28 1   
    40   21   22 2   
    41   21   50 1   
    42   22   23 1   
    43   22   51 1   
    44   23   24 ar  
    45   24   25 ar  
    46   24   52 1   
    47   25   26 1   
    48   26   27 1   
    49   27   53 1   
    50   27   54 1   
    51   27   55 1   
    52   28   29 2   
    53   28   30 1   
    54   30   31 1   
    55   30   56 1   
    56   30   57 1   
    57   31   32 1   
    58   31   33 1   
    59   31   70 1   
    60   32   58 1   
    61   32   59 1   
    62   32   60 1   
    63   33   61 1   
    64   33   62 1   
    65   33   63 1   
    66   34   35 ar  
    67   35   36 1   
    68   35   39 ar  
    69   36   37 1   
    70   36   64 1   
    71   37   38 2   
    72   37   65 1   
    73   38   39 1   
    74   38   66 1   
@<TRIPOS>SUBSTRUCTURE
     1 GS2         1 TEMP              0 ****  ****    0 ROOT
