@<TRIPOS>MOLECULE
GS2
   68    72     1     0     0
SMALL
bcc


@<TRIPOS>ATOM
      1 C1          1.0190   -1.5440   -1.5530 c3        1 GS2      0.085100
      2 N1          2.0860   -1.6710   -0.5390 n4        1 GS2     -0.670800
      3 C2          2.2100   -0.4520    0.3700 c         1 GS2      0.590700
      4 O1          1.2210    0.2730    0.3880 o         1 GS2     -0.456100
      5 C3          3.4800   -0.2990    1.0620 ca        1 GS2     -0.325600
      6 C4          4.1970   -1.4270    1.5680 ca        1 GS2      0.172900
      7 F1          3.6670   -2.6710    1.4380 f         1 GS2     -0.148900
      8 C5          5.4180   -1.2850    2.2160 ca        1 GS2     -0.175000
      9 C6          5.9510    0.0010    2.3890 ca        1 GS2     -0.014000
     10 C7          5.2740    1.1180    1.9480 ca        1 GS2     -0.171000
     11 C8          4.0180    1.0120    1.2840 ca        1 GS2      0.312600
     12 N2          3.3160    2.1300    0.8790 nh        1 GS2     -0.753300
     13 C9          3.8470    3.4030    0.5820 ca        1 GS2      0.738200
     14 N3          5.1490    3.5570    0.2460 nb        1 GS2     -0.798000
     15 C10         5.5940    4.8480   -0.0660 ca        1 GS2      0.896900
     16 N4          6.9970    4.9520   -0.2790 nh        1 GS2     -0.677300
     17 C11         7.5220    6.0650   -0.9860 ca        1 GS2      0.113600
     18 C12         7.5620    7.3270   -0.3640 ca        1 GS2     -0.060000
     19 C13         8.1830    8.3750   -1.0410 ca        1 GS2     -0.022400
     20 N5          8.3910    9.7360   -0.6530 n         1 GS2     -0.237200
     21 C14         9.0820   10.3780   -1.7280 cc        1 GS2     -0.115400
     22 C15         9.3070    9.4870   -2.7520 cd        1 GS2     -0.081200
     23 C16         8.7550    8.2000   -2.3470 ca        1 GS2     -0.061800
     24 C17         8.7110    6.9600   -2.9640 ca        1 GS2     -0.142000
     25 C18         8.0990    5.9000   -2.2880 ca        1 GS2      0.108100
     26 O2          8.0080    4.6250   -2.8110 os        1 GS2     -0.339900
     27 C19         8.6690    4.3940   -4.0540 c3        1 GS2      0.112700
     28 C20         8.0890   10.2910    0.5630 c         1 GS2      0.664100
     29 O3          7.4900    9.6900    1.4760 o         1 GS2     -0.581100
     30 C21         8.5070   11.7620    0.7840 c3        1 GS2      0.015800
     31 N6          8.2470   12.2020    2.1910 n4        1 GS2     -0.671400
     32 C22         9.3120   11.7110    3.1090 c3        1 GS2      0.082100
     33 C23         8.1130   13.6790    2.2670 c3        1 GS2      0.082100
     34 N7          4.8310    5.9900   -0.1150 nb        1 GS2     -0.743000
     35 C24         3.5210    5.7930    0.2100 ca        1 GS2      0.496800
     36 N8          2.4920    6.7360    0.2600 na        1 GS2     -0.278100
     37 C25         1.3120    6.0790    0.6400 cc        1 GS2     -0.090100
     38 C26         1.5540    4.7250    0.8470 cd        1 GS2     -0.160200
     39 C27         2.9500    4.5040    0.5820 ca        1 GS2     -0.376400
     40 H1          0.9720   -2.4900   -2.1560 hx        1 GS2      0.112700
     41 H1A         1.2420   -0.6710   -2.2230 hx        1 GS2      0.112700
     42 H1B         0.0330   -1.3670   -1.0420 hx        1 GS2      0.112700
     43 HN1         1.9010   -2.4900    0.0610 hn        1 GS2      0.466800
     44 H5          5.9470   -2.1720    2.6010 ha        1 GS2      0.185000
     45 H6          6.9200    0.1140    2.9080 ha        1 GS2      0.174000
     46 H7          5.7120    2.1130    2.1420 ha        1 GS2      0.188000
     47 HN2         2.3170    2.0800    0.8340 hn        1 GS2      0.475800
     48 HN4         7.4210    4.0850   -0.5650 hn        1 GS2      0.445800
     49 H12         7.1140    7.4810    0.6320 ha        1 GS2      0.183000
     50 H14         9.3390   11.4370   -1.6650 h4        1 GS2      0.168000
     51 H15         9.8030    9.6880   -3.7010 ha        1 GS2      0.185000
     52 H17         9.1470    6.8280   -3.9660 ha        1 GS2      0.164000
     53 H19         8.1990    5.0010   -4.8640 h1        1 GS2      0.057367
     54 H19A        9.7600    4.6170   -3.9680 h1        1 GS2      0.057367
     55 H19B        8.5010    3.3000   -4.2300 h1        1 GS2      0.057367
     56 H21         7.9070   12.4150    0.0840 hx        1 GS2      0.127700
     57 H21A        9.6050   11.8930    0.5640 hx        1 GS2      0.127700
     58 H22         9.3610   10.5900    3.0370 hx        1 GS2      0.110700
     59 H22A        9.0540   12.0090    4.1610 hx        1 GS2      0.110700
     60 H22B       10.2990   12.1610    2.8230 hx        1 GS2      0.110700
     61 H23         9.0560   14.1630    1.8970 hx        1 GS2      0.110700
     62 H23A        7.2440   14.0110    1.6380 hx        1 GS2      0.110700
     63 H23B        7.9360   13.9760    3.3370 hx        1 GS2      0.110700
     64 HN8         2.5790    7.6910    0.0270 hn        1 GS2      0.319700
     65 H25         0.3800    6.6430    0.7360 h4        1 GS2      0.189000
     66 H26         0.8270    3.9800    1.1590 ha        1 GS2      0.165000
     67 H121        2.9930   -1.8220   -0.9950 hn        1 GS2      0.466800
     68 H61         7.3560   11.7630    2.4900 hn        1 GS2      0.475800
@<TRIPOS>BOND
     1    1    2 1   
     2    1   40 1   
     3    1   41 1   
     4    1   42 1   
     5    2    3 1   
     6    2   43 1   
     7    2   67 1   
     8    3    4 2   
     9    3    5 1   
    10    5    6 ar  
    11    5   11 ar  
    12    6    7 1   
    13    6    8 ar  
    14    8    9 ar  
    15    8   44 1   
    16    9   10 ar  
    17    9   45 1   
    18   10   11 ar  
    19   10   46 1   
    20   11   12 1   
    21   12   13 1   
    22   12   47 1   
    23   13   14 ar  
    24   13   39 ar  
    25   14   15 ar  
    26   15   16 1   
    27   15   34 ar  
    28   16   17 1   
    29   16   48 1   
    30   17   18 ar  
    31   17   25 ar  
    32   18   19 ar  
    33   18   49 1   
    34   19   20 1   
    35   19   23 ar  
    36   20   21 1   
    37   20   28 1   
    38   21   22 2   
    39   21   50 1   
    40   22   23 1   
    41   22   51 1   
    42   23   24 ar  
    43   24   25 ar  
    44   24   52 1   
    45   25   26 1   
    46   26   27 1   
    47   27   53 1   
    48   27   54 1   
    49   27   55 1   
    50   28   29 2   
    51   28   30 1   
    52   30   31 1   
    53   30   56 1   
    54   30   57 1   
    55   31   32 1   
    56   31   33 1   
    57   31   68 1   
    58   32   58 1   
    59   32   59 1   
    60   32   60 1   
    61   33   61 1   
    62   33   62 1   
    63   33   63 1   
    64   34   35 ar  
    65   35   36 1   
    66   35   39 ar  
    67   36   37 1   
    68   36   64 1   
    69   37   38 2   
    70   37   65 1   
    71   38   39 1   
    72   38   66 1   
@<TRIPOS>SUBSTRUCTURE
     1 GS2         1 TEMP              0 ****  ****    0 ROOT
