@<TRIPOS>MOLECULE
GS3
   72    76     1     0     0
SMALL
bcc


@<TRIPOS>ATOM
      1 C1         -0.0490   -1.6480    0.4580 c3        1 GS3      0.116700
      2 O1          1.2300   -1.0540    0.2030 os        1 GS3     -0.369900
      3 C2          1.7950   -0.3120    1.2120 ca        1 GS3      0.256100
      4 C3          1.2640   -0.1980    2.4860 ca        1 GS3     -0.305000
      5 C4          1.9030    0.5970    3.4900 ca        1 GS3      0.296600
      6 C5          3.1110    1.2880    3.0990 ca        1 GS3     -0.219000
      7 C6          3.6290    1.1730    1.8390 ca        1 GS3     -0.024000
      8 C7          2.9870    0.3860    0.8520 ca        1 GS3     -0.256400
      9 N1          3.4960    0.3260   -0.5010 n4        1 GS3     -0.545100
     10 C8          4.6750   -0.6010   -0.6490 ca        1 GS3      0.737900
     11 N2          5.8990   -0.0110   -0.8750 nb        1 GS3     -0.703000
     12 C9          6.9700   -0.8380   -0.9670 ca        1 GS3      0.525200
     13 N3          8.3230   -0.2300   -1.1300 n4        1 GS3     -0.633100
     14 C10         8.4860    0.5900   -2.3450 ca        1 GS3      0.057600
     15 C11         7.8560    1.8370   -2.3410 ca        1 GS3     -0.093000
     16 C12         7.9230    2.6840   -3.4590 ca        1 GS3     -0.007000
     17 C13         8.6090    2.2850   -4.5910 ca        1 GS3     -0.103000
     18 C14         9.2800    1.0400   -4.5960 ca        1 GS3      0.219900
     19 F1          9.9370    0.6960   -5.7250 f         1 GS3     -0.103900
     20 C15         9.2770    0.1760   -3.4680 ca        1 GS3     -0.225600
     21 C16        10.0540   -1.0670   -3.4290 c         1 GS3      0.585700
     22 O2          9.9700   -1.9620   -2.5870 o         1 GS3     -0.469100
     23 N4         11.1080   -1.3430   -4.4620 n4        1 GS3     -0.742400
     24 C17         6.8690   -2.2350   -0.8510 ca        1 GS3     -0.249400
     25 C18         7.7200   -3.3790   -0.8720 cc        1 GS3     -0.221200
     26 C19         6.9040   -4.5020   -0.6540 cd        1 GS3      0.036900
     27 N5          5.5740   -4.1300   -0.5050 na        1 GS3     -0.235100
     28 C20         5.4900   -2.7390   -0.6100 ca        1 GS3      0.475800
     29 N6          4.4040   -1.9390   -0.5150 nb        1 GS3     -0.574000
     30 N7          1.4110    0.6830    4.7560 nh        1 GS3     -0.590000
     31 C21         2.0120    1.6170    5.6960 c3        1 GS3      0.193300
     32 C22         1.4930    1.5380    7.1460 c3        1 GS3      0.160800
     33 N8          0.0570    1.3440    7.2030 n3        1 GS3     -0.731600
     34 C23        -0.2980    0.1010    6.5470 c3        1 GS3      0.160800
     35 C24         0.1220    0.0810    5.0630 c3        1 GS3      0.193300
     36 C25        -0.5090    1.5190    8.5460 c3        1 GS3      0.181500
     37 C26        -2.0360    1.5940    8.5250 c3        1 GS3     -0.113600
     38 C27        -0.0820    0.4780    9.5810 c3        1 GS3     -0.113600
     39 H1          0.0380   -2.4140    1.2650 h1        1 GS3      0.072367
     40 H1A        -0.7980   -0.8630    0.7220 h1        1 GS3      0.072367
     41 H1B        -0.3000   -2.1270   -0.5240 h1        1 GS3      0.072367
     42 H3          0.3220   -0.7210    2.7140 ha        1 GS3      0.175000
     43 H5          3.6280    1.9420    3.8200 ha        1 GS3      0.168000
     44 H6          4.5500    1.7240    1.5850 ha        1 GS3      0.130000
     45 HN1         3.7770    1.2700   -0.7950 hn        1 GS3      0.483800
     46 HN3         8.4960    0.3840   -0.3130 hn        1 GS3      0.490800
     47 H11         7.2860    2.1940   -1.4600 ha        1 GS3      0.198000
     48 H12         7.4190    3.6720   -3.4290 ha        1 GS3      0.217000
     49 H13         8.6540    2.9240   -5.4970 ha        1 GS3      0.229000
     50 HN4        10.6770   -1.4700   -5.3910 hn        1 GS3      0.498133
     51 HN4A       11.7730   -0.5580   -4.5230 hn        1 GS3      0.498133
     52 H18         8.7980   -3.4030   -1.0220 ha        1 GS3      0.191000
     53 H19         7.1970   -5.5630   -0.5940 h4        1 GS3      0.236000
     54 HN5         4.8020   -4.7380   -0.3280 hn        1 GS3      0.367700
     55 H21         3.1220    1.4180    5.7390 h1        1 GS3      0.062450
     56 H21A        1.8440    2.6640    5.3090 h1        1 GS3      0.062450
     57 H22         2.0580    0.7200    7.6830 h1        1 GS3      0.060950
     58 H22A        1.7490    2.5180    7.6410 h1        1 GS3      0.060950
     59 H23        -1.4190   -0.0140    6.5740 h1        1 GS3      0.060950
     60 H23A        0.1580   -0.7970    7.0580 h1        1 GS3      0.060950
     61 H24        -0.6680    0.6140    4.4570 h1        1 GS3      0.062450
     62 H24A        0.1510   -1.0030    4.7490 h1        1 GS3      0.062450
     63 H25        -0.1290    2.5300    8.8930 h1        1 GS3      0.068700
     64 H26        -2.3970    2.2870    7.7280 hc        1 GS3      0.048867
     65 H26A       -2.3830    1.9800    9.5150 hc        1 GS3      0.048867
     66 H26B       -2.4890    0.5870    8.3630 hc        1 GS3      0.048867
     67 H27        -0.4470   -0.5390    9.3020 hc        1 GS3      0.048867
     68 H27A       -0.5220    0.7480   10.5720 hc        1 GS3      0.048867
     69 H27B        1.0280    0.4450    9.6860 hc        1 GS3      0.048867
     70 H121        2.7410   -0.0260   -1.1190 hn        1 GS3      0.483800
     71 H32         9.0030   -1.0090   -1.0970 hn        1 GS3      0.490800
     72 H43        11.6230   -2.2060   -4.2120 hn        1 GS3      0.498133
@<TRIPOS>BOND
     1    1    2 1   
     2    1   39 1   
     3    1   40 1   
     4    1   41 1   
     5    2    3 1   
     6    3    4 ar  
     7    3    8 ar  
     8    4    5 ar  
     9    4   42 1   
    10    5    6 ar  
    11    5   30 1   
    12    6    7 ar  
    13    6   43 1   
    14    7    8 ar  
    15    7   44 1   
    16    8    9 1   
    17    9   10 1   
    18    9   45 1   
    19    9   70 1   
    20   10   11 ar  
    21   10   29 ar  
    22   11   12 ar  
    23   12   13 1   
    24   12   24 ar  
    25   13   14 1   
    26   13   46 1   
    27   13   71 1   
    28   14   15 ar  
    29   14   20 ar  
    30   15   16 ar  
    31   15   47 1   
    32   16   17 ar  
    33   16   48 1   
    34   17   18 ar  
    35   17   49 1   
    36   18   19 1   
    37   18   20 ar  
    38   20   21 1   
    39   21   22 2   
    40   21   23 1   
    41   23   50 1   
    42   23   51 1   
    43   23   72 1   
    44   24   25 1   
    45   24   28 ar  
    46   25   26 2   
    47   25   52 1   
    48   26   27 1   
    49   26   53 1   
    50   27   28 1   
    51   27   54 1   
    52   28   29 ar  
    53   30   31 1   
    54   30   35 1   
    55   31   32 1   
    56   31   55 1   
    57   31   56 1   
    58   32   33 1   
    59   32   57 1   
    60   32   58 1   
    61   33   34 1   
    62   33   36 1   
    63   34   35 1   
    64   34   59 1   
    65   34   60 1   
    66   35   61 1   
    67   35   62 1   
    68   36   37 1   
    69   36   38 1   
    70   36   63 1   
    71   37   64 1   
    72   37   65 1   
    73   37   66 1   
    74   38   67 1   
    75   38   68 1   
    76   38   69 1   
@<TRIPOS>SUBSTRUCTURE
     1 GS3         1 TEMP              0 ****  ****    0 ROOT
