@<TRIPOS>MOLECULE
GS3
   70    74     1     0     0
SMALL
bcc


@<TRIPOS>ATOM
      1 C1          1.0360    0.6970    0.0350 c3        1 GS3      0.117700
      2 O1          2.4340    0.6510    0.2980 os        1 GS3     -0.352900
      3 C2          2.8180    0.6700    1.6290 ca        1 GS3      0.136100
      4 C3          1.9110    0.6690    2.6850 ca        1 GS3     -0.238000
      5 C4          2.3650    0.6850    4.0270 ca        1 GS3      0.199600
      6 C5          3.7610    0.7190    4.2480 ca        1 GS3     -0.218000
      7 C6          4.6600    0.7230    3.1920 ca        1 GS3     -0.035000
      8 C7          4.2230    0.7040    1.8570 ca        1 GS3      0.024600
      9 N1          5.1510    0.7930    0.7850 nu        1 GS3     -0.659300
     10 C8          5.9920   -0.3070    0.4930 ca        1 GS3      0.901900
     11 N2          6.5190   -0.3230   -0.8070 nb        1 GS3     -0.805000
     12 C9          7.4330   -1.2720   -1.1060 ca        1 GS3      0.717200
     13 N3          8.0500   -1.2980   -2.3840 nu        1 GS3     -0.741300
     14 C10         7.5370   -0.7660   -3.5400 ca        1 GS3      0.329600
     15 C11         6.1240   -0.6560   -3.7450 ca        1 GS3     -0.168000
     16 C12         5.6060   -0.1820   -4.9250 ca        1 GS3     -0.015000
     17 C13         6.4450    0.1990   -5.9890 ca        1 GS3     -0.178000
     18 C14         7.8180    0.1220   -5.8240 ca        1 GS3      0.168900
     19 F1          8.6250    0.4540   -6.8660 f         1 GS3     -0.153900
     20 C15         8.4050   -0.3240   -4.5960 ca        1 GS3     -0.338600
     21 C16         9.8360   -0.3560   -4.3990 c         1 GS3      0.594700
     22 O2         10.5430   -1.1190   -3.7470 o         1 GS3     -0.464100
     23 N4         10.6410    0.7630   -5.0480 nz        1 GS3     -0.761400
     24 C17         7.8470   -2.2360   -0.1560 ca        1 GS3     -0.379400
     25 C18         8.7480   -3.3560   -0.1050 cc        1 GS3     -0.167200
     26 C19         8.6530   -3.8930    1.1750 cd        1 GS3     -0.089100
     27 N5          7.7380   -3.1650    1.9480 na        1 GS3     -0.281100
     28 C20         7.2180   -2.1360    1.1590 ca        1 GS3      0.504800
     29 N6          6.2980   -1.1950    1.5030 nb        1 GS3     -0.729000
     30 N7          1.4370    0.5810    5.0830 nh        1 GS3     -0.641000
     31 C21         1.9820    0.4380    6.4220 c3        1 GS3      0.190300
     32 C22         0.9020    0.1170    7.4770 c3        1 GS3      0.166800
     33 N8         -0.2160    1.0440    7.4280 n3        1 GS3     -0.733600
     34 C23        -0.7820    1.1290    6.0930 c3        1 GS3      0.166800
     35 C24         0.2770    1.4570    5.0200 c3        1 GS3      0.190300
     36 C25        -1.2000    0.8150    8.4890 c3        1 GS3      0.183500
     37 C26        -2.1650    1.9910    8.6440 c3        1 GS3     -0.109600
     38 C27        -2.0190   -0.4720    8.3760 c3        1 GS3     -0.109600
     39 H1          0.5830    1.6250    0.4620 h1        1 GS3      0.049033
     40 H1A         0.9850    0.7120   -1.0830 h1        1 GS3      0.049033
     41 H1B         0.5300   -0.2130    0.4390 h1        1 GS3      0.049033
     42 H3          0.8330    0.6250    2.4710 ha        1 GS3      0.147000
     43 H5          4.1690    0.7500    5.2700 ha        1 GS3      0.143000
     44 H6          5.7400    0.7490    3.4120 ha        1 GS3      0.150000
     45 HN1         4.7520    1.2240   -0.0300 hn        1 GS3      0.437800
     46 HN3         8.9670   -1.6960   -2.3870 hn        1 GS3      0.474800
     47 H11         5.4330   -0.9810   -2.9470 ha        1 GS3      0.191000
     48 H12         4.5120   -0.1160   -5.0610 ha        1 GS3      0.172000
     49 H13         6.0180    0.5400   -6.9450 ha        1 GS3      0.180000
     50 HN4        11.6180    0.7140   -4.7390 hn        1 GS3      0.468800
     51 HN4A       10.6010    0.6690   -6.0710 hn        1 GS3      0.468800
     52 H18         9.3740   -3.7200   -0.9140 ha        1 GS3      0.159000
     53 H19         9.1730   -4.7510    1.6100 h4        1 GS3      0.184000
     54 HN5         7.4800   -3.3540    2.8830 hn        1 GS3      0.324700
     55 H21         2.5320    1.3710    6.7400 h1        1 GS3      0.045450
     56 H21A        2.7110   -0.4220    6.4170 h1        1 GS3      0.045450
     57 H22         1.3870    0.2030    8.4890 h1        1 GS3      0.042700
     58 H22A        0.5730   -0.9540    7.3380 h1        1 GS3      0.042700
     59 H23        -1.5370    1.9640    6.0850 h1        1 GS3      0.042700
     60 H23A       -1.3100    0.1760    5.7960 h1        1 GS3      0.042700
     61 H24        -0.2190    1.3420    4.0180 h1        1 GS3      0.045450
     62 H24A        0.5890    2.5360    5.1350 h1        1 GS3      0.045450
     63 H25        -0.5960    0.7510    9.4460 h1        1 GS3      0.056700
     64 H26        -2.9010    2.0220    7.8060 hc        1 GS3      0.041033
     65 H26A       -1.6160    2.9620    8.6750 hc        1 GS3      0.041033
     66 H26B       -2.7260    1.8670    9.6020 hc        1 GS3      0.041033
     67 H27        -2.6800   -0.4490    7.4770 hc        1 GS3      0.041033
     68 H27A       -2.6630   -0.5760    9.2830 hc        1 GS3      0.041033
     69 H27B       -1.3570   -1.3670    8.3090 hc        1 GS3      0.041033
     70 H43        10.2390    1.6670   -4.7890 hn        1 GS3      0.468800
@<TRIPOS>BOND
     1    1    2 1   
     2    1   39 1   
     3    1   40 1   
     4    1   41 1   
     5    2    3 1   
     6    3    4 ar  
     7    3    8 ar  
     8    4    5 ar  
     9    4   42 1   
    10    5    6 ar  
    11    5   30 1   
    12    6    7 ar  
    13    6   43 1   
    14    7    8 ar  
    15    7   44 1   
    16    8    9 1   
    17    9   10 1   
    18    9   45 1   
    19   10   11 ar  
    20   10   29 ar  
    21   11   12 ar  
    22   12   13 1   
    23   12   24 ar  
    24   13   14 1   
    25   13   46 1   
    26   14   15 ar  
    27   14   20 ar  
    28   15   16 ar  
    29   15   47 1   
    30   16   17 ar  
    31   16   48 1   
    32   17   18 ar  
    33   17   49 1   
    34   18   19 1   
    35   18   20 ar  
    36   20   21 1   
    37   21   22 2   
    38   21   23 1   
    39   23   50 1   
    40   23   51 1   
    41   23   70 1   
    42   24   25 1   
    43   24   28 ar  
    44   25   26 2   
    45   25   52 1   
    46   26   27 1   
    47   26   53 1   
    48   27   28 1   
    49   27   54 1   
    50   28   29 ar  
    51   30   31 1   
    52   30   35 1   
    53   31   32 1   
    54   31   55 1   
    55   31   56 1   
    56   32   33 1   
    57   32   57 1   
    58   32   58 1   
    59   33   34 1   
    60   33   36 1   
    61   34   35 1   
    62   34   59 1   
    63   34   60 1   
    64   35   61 1   
    65   35   62 1   
    66   36   37 1   
    67   36   38 1   
    68   36   63 1   
    69   37   64 1   
    70   37   65 1   
    71   37   66 1   
    72   38   67 1   
    73   38   68 1   
    74   38   69 1   
@<TRIPOS>SUBSTRUCTURE
     1 GS3         1 TEMP              0 ****  ****    0 ROOT
