@<TRIPOS>MOLECULE
GS3
   70    74     1     0     0
SMALL
bcc


@<TRIPOS>ATOM
      1 C1          1.0400    0.7220    0.0390 c3        1 GS3      0.117700
      2 O1          2.4380    0.6660    0.3020 os        1 GS3     -0.352900
      3 C2          2.8220    0.6780    1.6330 ca        1 GS3      0.136100
      4 C3          1.9150    0.6760    2.6890 ca        1 GS3     -0.238000
      5 C4          2.3690    0.6830    4.0310 ca        1 GS3      0.199600
      6 C5          3.7650    0.7100    4.2520 ca        1 GS3     -0.218000
      7 C6          4.6650    0.7150    3.1950 ca        1 GS3     -0.035000
      8 C7          4.2270    0.7030    1.8610 ca        1 GS3      0.024600
      9 N1          5.1550    0.7930    0.7890 nh        1 GS3     -0.659300
     10 C8          5.9910   -0.3100    0.4920 ca        1 GS3      0.901900
     11 N2          6.5170   -0.3230   -0.8090 nb        1 GS3     -0.805000
     12 C9          7.4260   -1.2760   -1.1120 ca        1 GS3      0.717200
     13 N3          8.0420   -1.3000   -2.3910 nh        1 GS3     -0.741300
     14 C10         7.5310   -0.7600   -3.5440 ca        1 GS3      0.329600
     15 C11         6.1190   -0.6420   -3.7470 ca        1 GS3     -0.168000
     16 C12         5.6030   -0.1610   -4.9260 ca        1 GS3     -0.015000
     17 C13         6.4430    0.2200   -5.9890 ca        1 GS3     -0.178000
     18 C14         7.8160    0.1350   -5.8250 ca        1 GS3      0.168900
     19 F1          8.6240    0.4670   -6.8660 f         1 GS3     -0.153900
     20 C15         8.4010   -0.3190   -4.5990 ca        1 GS3     -0.338600
     21 C16         9.8320   -0.3590   -4.4030 c         1 GS3      0.594700
     22 O2         10.5360   -1.1270   -3.7550 o         1 GS3     -0.464100
     23 N4         10.6420    0.7590   -5.0480 n4        1 GS3     -0.761400
     24 C17         7.8350   -2.2460   -0.1670 ca        1 GS3     -0.379400
     25 C18         8.7310   -3.3710   -0.1200 cc        1 GS3     -0.167200
     26 C19         8.6340   -3.9120    1.1570 cd        1 GS3     -0.089100
     27 N5          7.7230   -3.1830    1.9330 na        1 GS3     -0.281100
     28 C20         7.2080   -2.1480    1.1490 ca        1 GS3      0.504800
     29 N6          6.2930   -1.2040    1.4980 nb        1 GS3     -0.729000
     30 N7          1.4410    0.5790    5.0860 nh        1 GS3     -0.641000
     31 C21         1.9860    0.4270    6.4250 c3        1 GS3      0.190300
     32 C22         0.9050    0.1060    7.4780 c3        1 GS3      0.166800
     33 N8         -0.2100    1.0380    7.4340 n3        1 GS3     -0.733600
     34 C23        -0.7760    1.1310    6.0990 c3        1 GS3      0.166800
     35 C24         0.2850    1.4600    5.0270 c3        1 GS3      0.190300
     36 C25        -1.1950    0.8070    8.4930 c3        1 GS3      0.183500
     37 C26        -2.1560    1.9870    8.6540 c3        1 GS3     -0.109600
     38 C27        -2.0190   -0.4760    8.3760 c3        1 GS3     -0.109600
     39 H1          0.9890    0.7430   -1.0790 h1        1 GS3      0.049033
     40 H1A         0.5920    1.6500    0.4700 h1        1 GS3      0.049033
     41 H1B         0.5290   -0.1870    0.4390 h1        1 GS3      0.049033
     42 H3          0.8370    0.6380    2.4750 ha        1 GS3      0.147000
     43 H5          4.1740    0.7350    5.2740 ha        1 GS3      0.143000
     44 H6          5.7450    0.7350    3.4150 ha        1 GS3      0.150000
     45 HN1         4.7590    1.2290   -0.0250 hn        1 GS3      0.437800
     46 HN3         8.9580   -1.7020   -2.3960 hn        1 GS3      0.474800
     47 H11         5.4260   -0.9670   -2.9510 ha        1 GS3      0.191000
     48 H12         4.5080   -0.0890   -5.0600 ha        1 GS3      0.172000
     49 H13         6.0170    0.5670   -6.9430 ha        1 GS3      0.180000
     50 HN4        10.6010    0.6690   -6.0720 hn        1 GS3      0.468800
     51 HN4A       10.2450    1.6640   -4.7850 hn        1 GS3      0.468800
     52 H18         9.3540   -3.7340   -0.9310 ha        1 GS3      0.159000
     53 H19         9.1490   -4.7750    1.5880 h4        1 GS3      0.184000
     54 HN5         7.4640   -3.3740    2.8680 hn        1 GS3      0.324700
     55 H21         2.7110   -0.4350    6.4150 h1        1 GS3      0.045450
     56 H21A        2.5400    1.3570    6.7470 h1        1 GS3      0.045450
     57 H22         0.5720   -0.9630    7.3350 h1        1 GS3      0.042700
     58 H22A        1.3900    0.1850    8.4910 h1        1 GS3      0.042700
     59 H23        -1.3080    0.1820    5.7980 h1        1 GS3      0.042700
     60 H23A       -1.5270    1.9700    6.0950 h1        1 GS3      0.042700
     61 H24         0.6010    2.5370    5.1470 h1        1 GS3      0.045450
     62 H24A       -0.2120    1.3510    4.0240 h1        1 GS3      0.045450
     63 H25        -0.5910    0.7370    9.4510 h1        1 GS3      0.056700
     64 H26        -1.6030    2.9550    8.6890 hc        1 GS3      0.041033
     65 H26A       -2.7170    1.8600    9.6110 hc        1 GS3      0.041033
     66 H26B       -2.8920    2.0230    7.8160 hc        1 GS3      0.041033
     67 H27        -2.6790   -0.4460    7.4760 hc        1 GS3      0.041033
     68 H27A       -2.6620   -0.5820    9.2810 hc        1 GS3      0.041033
     69 H27B       -1.3590   -1.3730    8.3040 hc        1 GS3      0.041033
     70 H43        11.6190    0.7030   -4.7400 hn        1 GS3      0.468800
@<TRIPOS>BOND
     1    1    2 1   
     2    1   39 1   
     3    1   40 1   
     4    1   41 1   
     5    2    3 1   
     6    3    4 ar  
     7    3    8 ar  
     8    4    5 ar  
     9    4   42 1   
    10    5    6 ar  
    11    5   30 1   
    12    6    7 ar  
    13    6   43 1   
    14    7    8 ar  
    15    7   44 1   
    16    8    9 1   
    17    9   10 1   
    18    9   45 1   
    19   10   11 ar  
    20   10   29 ar  
    21   11   12 ar  
    22   12   13 1   
    23   12   24 ar  
    24   13   14 1   
    25   13   46 1   
    26   14   15 ar  
    27   14   20 ar  
    28   15   16 ar  
    29   15   47 1   
    30   16   17 ar  
    31   16   48 1   
    32   17   18 ar  
    33   17   49 1   
    34   18   19 1   
    35   18   20 ar  
    36   20   21 1   
    37   21   22 2   
    38   21   23 1   
    39   23   50 1   
    40   23   51 1   
    41   23   70 1   
    42   24   25 1   
    43   24   28 ar  
    44   25   26 2   
    45   25   52 1   
    46   26   27 1   
    47   26   53 1   
    48   27   28 1   
    49   27   54 1   
    50   28   29 ar  
    51   30   31 1   
    52   30   35 1   
    53   31   32 1   
    54   31   55 1   
    55   31   56 1   
    56   32   33 1   
    57   32   57 1   
    58   32   58 1   
    59   33   34 1   
    60   33   36 1   
    61   34   35 1   
    62   34   59 1   
    63   34   60 1   
    64   35   61 1   
    65   35   62 1   
    66   36   37 1   
    67   36   38 1   
    68   36   63 1   
    69   37   64 1   
    70   37   65 1   
    71   37   66 1   
    72   38   67 1   
    73   38   68 1   
    74   38   69 1   
@<TRIPOS>SUBSTRUCTURE
     1 GS3         1 TEMP              0 ****  ****    0 ROOT
