@<TRIPOS>MOLECULE
GS3
   69    73     1     0     0
SMALL
bcc


@<TRIPOS>ATOM
      1 C1         -1.7740    3.2970   -1.1490 c3        1 GS3      0.119700
      2 O1         -1.0860    2.2940   -0.4130 os        1 GS3     -0.342900
      3 C2         -1.8480    1.2430    0.0710 ca        1 GS3      0.118100
      4 C3         -3.2350    1.1930   -0.0430 ca        1 GS3     -0.224000
      5 C4         -3.9600    0.0980    0.4820 ca        1 GS3      0.166600
      6 C5         -3.2370   -0.9240    1.1310 ca        1 GS3     -0.209000
      7 C6         -1.8530   -0.8660    1.2470 ca        1 GS3     -0.048000
      8 C7         -1.1160    0.2100    0.7270 ca        1 GS3      0.063600
      9 N1          0.2850    0.3010    0.9280 nh        1 GS3     -0.672300
     10 C8          1.1500   -0.6160    0.2640 ca        1 GS3      0.899900
     11 N2          2.4580   -0.1540    0.0870 nb        1 GS3     -0.819000
     12 C9          3.3740   -1.0110   -0.4300 ca        1 GS3      0.759200
     13 N3          4.6980   -0.6270   -0.6600 nh        1 GS3     -0.745300
     14 C10         5.2530    0.6050   -0.2920 ca        1 GS3      0.237600
     15 C11         4.5950    1.8200   -0.5980 ca        1 GS3     -0.148000
     16 C12         5.1850    3.0400   -0.3010 ca        1 GS3     -0.072000
     17 C13         6.4430    3.1060    0.2910 ca        1 GS3     -0.194000
     18 C14         7.1120    1.9120    0.6050 ca        1 GS3      0.162900
     19 F1          8.3400    1.9880    1.1770 f         1 GS3     -0.143900
     20 C15         6.5300    0.6560    0.3320 ca        1 GS3     -0.226600
     21 C16         7.2540   -0.6030    0.6730 c         1 GS3      0.680700
     22 O2          7.3510   -1.5580   -0.1320 o         1 GS3     -0.634100
     23 N4          7.7850   -0.7220    1.9310 n         1 GS3     -0.651000
     24 C17         3.0010   -2.3430   -0.7850 ca        1 GS3     -0.396400
     25 C18         3.6550   -3.4990   -1.3360 cc        1 GS3     -0.137200
     26 C19         2.6900   -4.4940   -1.4490 cd        1 GS3     -0.133100
     27 N5          1.4490   -4.0240   -0.9930 na        1 GS3     -0.287100
     28 C20         1.6100   -2.6990   -0.5760 ca        1 GS3      0.495800
     29 N6          0.6630   -1.8600   -0.0600 nb        1 GS3     -0.766000
     30 N7         -5.3590    0.0280    0.2680 nh        1 GS3     -0.636000
     31 C21        -6.0020   -1.2300    0.6110 c3        1 GS3      0.186300
     32 C22        -7.4760   -1.2770    0.1590 c3        1 GS3      0.168300
     33 N8         -8.2400   -0.1280    0.6200 n3        1 GS3     -0.733600
     34 C23        -7.5970    1.1280    0.2710 c3        1 GS3      0.168300
     35 C24        -6.1200    1.1860    0.7150 c3        1 GS3      0.186300
     36 C25        -9.6570   -0.2000    0.2560 c3        1 GS3      0.184500
     37 C26       -10.5050    0.8010    1.0420 c3        1 GS3     -0.108600
     38 C27        -9.9800   -0.0430   -1.2310 c3        1 GS3     -0.108600
     39 H1         -0.9530    3.9880   -1.4710 h1        1 GS3      0.045033
     40 H1A        -2.2890    2.8570   -2.0370 h1        1 GS3      0.045033
     41 H1B        -2.5040    3.8330   -0.4950 h1        1 GS3      0.045033
     42 H3         -3.7680    1.9990   -0.5690 ha        1 GS3      0.142000
     43 H5         -3.7540   -1.7920    1.5660 ha        1 GS3      0.136000
     44 H6         -1.3280   -1.6870    1.7630 ha        1 GS3      0.156000
     45 HN1         0.6140    1.2500    0.8880 hn        1 GS3      0.434800
     46 HN3         5.3410   -1.3870   -0.7900 hn        1 GS3      0.477800
     47 H11         3.6070    1.8080   -1.0840 ha        1 GS3      0.166000
     48 H12         4.6540    3.9730   -0.5470 ha        1 GS3      0.143000
     49 H13         6.9180    4.0710    0.5140 ha        1 GS3      0.153000
     50 HN4         7.8280    0.0580    2.5360 hn        1 GS3      0.316000
     51 HN4A        8.3220   -1.5250    2.1510 hn        1 GS3      0.316000
     52 H18         4.7050   -3.5750   -1.6080 ha        1 GS3      0.164000
     53 H19         2.7820   -5.5150   -1.8220 h4        1 GS3      0.170000
     54 HN5         0.6030   -4.5290   -0.9770 hn        1 GS3      0.309700
     55 H21        -5.4560   -2.0600    0.0810 h1        1 GS3      0.043950
     56 H21A       -5.9600   -1.4280    1.7220 h1        1 GS3      0.043950
     57 H22        -7.5040   -1.3830   -0.9640 h1        1 GS3      0.038950
     58 H22A       -7.9360   -2.2030    0.6060 h1        1 GS3      0.038950
     59 H23        -7.6460    1.3330   -0.8390 h1        1 GS3      0.038950
     60 H23A       -8.1420    1.9570    0.8020 h1        1 GS3      0.038950
     61 H24        -6.0840    1.2850    1.8390 h1        1 GS3      0.043950
     62 H24A       -5.6690    2.1140    0.2690 h1        1 GS3      0.043950
     63 H25        -9.9930   -1.2370    0.5680 h1        1 GS3      0.052700
     64 H26       -11.5830    0.5460    0.8990 hc        1 GS3      0.039033
     65 H26A      -10.2690    0.7610    2.1320 hc        1 GS3      0.039033
     66 H26B      -10.3380    1.8430    0.6780 hc        1 GS3      0.039033
     67 H27        -9.4130   -0.7820   -1.8460 hc        1 GS3      0.039033
     68 H27A      -11.0710   -0.2150   -1.3890 hc        1 GS3      0.039033
     69 H27B       -9.7300    0.9840   -1.5880 hc        1 GS3      0.039033
@<TRIPOS>BOND
     1    1    2 1   
     2    1   39 1   
     3    1   40 1   
     4    1   41 1   
     5    2    3 1   
     6    3    4 ar  
     7    3    8 ar  
     8    4    5 ar  
     9    4   42 1   
    10    5    6 ar  
    11    5   30 1   
    12    6    7 ar  
    13    6   43 1   
    14    7    8 ar  
    15    7   44 1   
    16    8    9 1   
    17    9   10 1   
    18    9   45 1   
    19   10   11 ar  
    20   10   29 ar  
    21   11   12 ar  
    22   12   13 1   
    23   12   24 ar  
    24   13   14 1   
    25   13   46 1   
    26   14   15 ar  
    27   14   20 ar  
    28   15   16 ar  
    29   15   47 1   
    30   16   17 ar  
    31   16   48 1   
    32   17   18 ar  
    33   17   49 1   
    34   18   19 1   
    35   18   20 ar  
    36   20   21 1   
    37   21   22 2   
    38   21   23 1   
    39   23   50 1   
    40   23   51 1   
    41   24   25 1   
    42   24   28 ar  
    43   25   26 2   
    44   25   52 1   
    45   26   27 1   
    46   26   53 1   
    47   27   28 1   
    48   27   54 1   
    49   28   29 ar  
    50   30   31 1   
    51   30   35 1   
    52   31   32 1   
    53   31   55 1   
    54   31   56 1   
    55   32   33 1   
    56   32   57 1   
    57   32   58 1   
    58   33   34 1   
    59   33   36 1   
    60   34   35 1   
    61   34   59 1   
    62   34   60 1   
    63   35   61 1   
    64   35   62 1   
    65   36   37 1   
    66   36   38 1   
    67   36   63 1   
    68   37   64 1   
    69   37   65 1   
    70   37   66 1   
    71   38   67 1   
    72   38   68 1   
    73   38   69 1   
@<TRIPOS>SUBSTRUCTURE
     1 GS3         1 TEMP              0 ****  ****    0 ROOT
