@<TRIPOS>MOLECULE
GS4
   24    24     1     0     0
SMALL
bcc


@<TRIPOS>ATOM
      1 C1          1.2480    0.4420   -1.2120 c3        1 GS4      0.313900
      2 O1          2.3390    0.0080   -1.9760 oh        1 GS4     -0.594800
      3 C2         -0.0780   -0.1420   -1.7360 c3        1 GS4      0.050100
      4 O2         -0.4470    0.4700   -2.9590 oh        1 GS4     -0.600800
      5 C3         -1.2120    0.1560   -0.7400 c3        1 GS4      0.147100
      6 O3         -2.3880   -0.5430   -1.1150 oh        1 GS4     -0.606800
      7 C4         -0.8140   -0.3310    0.6520 c3        1 GS4     -0.007600
      8 S4         -1.9860    0.1720    1.8940 sh        1 GS4     -0.369900
      9 C5          0.5370    0.2500    1.0560 c3        1 GS4      0.120100
     10 O5          1.5410   -0.0600    0.0830 os        1 GS4     -0.459600
     11 C6          1.0480   -0.3670    2.3650 c3        1 GS4      0.136400
     12 O6          2.2190    0.2830    2.8040 oh        1 GS4     -0.590800
     13 H1          1.2500    1.5660   -1.2430 h2        1 GS4      0.090700
     14 HO1         2.5760   -0.8850   -1.6880 ho        1 GS4      0.427000
     15 H2          0.0230   -1.2530   -1.8840 h1        1 GS4      0.062700
     16 HO2         0.3210    0.4040   -3.5440 ho        1 GS4      0.425000
     17 H3         -1.4190    1.2630   -0.7290 h1        1 GS4      0.069700
     18 HO3        -2.5690   -0.3010   -2.0340 ho        1 GS4      0.431000
     19 H4         -0.7560   -1.4510    0.6350 h1        1 GS4      0.095700
     20 HS4        -3.0990   -0.2270    1.2900 hs        1 GS4      0.235800
     21 H5          0.4660    1.3700    1.1560 h1        1 GS4      0.076700
     22 H61         1.2360   -1.4640    2.2210 h1        1 GS4      0.067700
     23 H62         0.2900   -0.2020    3.1780 h1        1 GS4      0.067700
     24 HO6         2.8810    0.1790    2.1080 ho        1 GS4      0.412000
@<TRIPOS>BOND
     1    1    2 1   
     2    1    3 1   
     3    1   10 1   
     4    1   13 1   
     5    2   14 1   
     6    3    4 1   
     7    3    5 1   
     8    3   15 1   
     9    4   16 1   
    10    5    6 1   
    11    5    7 1   
    12    5   17 1   
    13    6   18 1   
    14    7    8 1   
    15    7    9 1   
    16    7   19 1   
    17    8   20 1   
    18    9   10 1   
    19    9   11 1   
    20    9   21 1   
    21   11   12 1   
    22   11   22 1   
    23   11   23 1   
    24   12   24 1   
@<TRIPOS>SUBSTRUCTURE
     1 GS4         1 TEMP              0 ****  ****    0 ROOT
