@<TRIPOS>MOLECULE
GS4
   24    24     1     0     0
SMALL
bcc


@<TRIPOS>ATOM
      1 C1         -0.8090   -0.7380   -1.4450 c3        1 GS4      0.313900
      2 O1         -1.2560   -0.5690   -2.7400 oh        1 GS4     -0.594800
      3 C2          0.7050   -0.7380   -1.4450 c3        1 GS4      0.050100
      4 O2          1.1720   -1.9160   -2.1420 oh        1 GS4     -0.600800
      5 C3          1.2680   -0.7380   -0.0740 c3        1 GS4      0.147100
      6 O3          2.7070   -0.5560   -0.1570 oh        1 GS4     -0.606800
      7 C4          0.6900    0.3510    0.7760 c3        1 GS4     -0.007600
      8 S4          1.2610    0.1320    2.4730 sh        1 GS4     -0.369900
      9 C5         -0.8310    0.3480    0.7640 c3        1 GS4      0.120100
     10 O5         -1.3810    0.3430   -0.5900 os        1 GS4     -0.459600
     11 C6         -1.3250    1.5710    1.4860 c3        1 GS4      0.136400
     12 O6         -2.7430    1.5980    1.4540 oh        1 GS4     -0.590800
     13 H1         -1.1240   -1.6010   -1.1140 h2        1 GS4      0.090700
     14 HO1        -2.0720   -0.9090   -2.8180 ho        1 GS4      0.427000
     15 H2          1.0220    0.0550   -1.9180 h1        1 GS4      0.062700
     16 HO2         1.6080   -1.6720   -2.8760 ho        1 GS4      0.425000
     17 H3          1.0820   -1.6000    0.3450 h1        1 GS4      0.069700
     18 HO3         3.1150   -1.2540    0.2090 ho        1 GS4      0.431000
     19 H4          1.0070    1.2120    0.4440 h1        1 GS4      0.095700
     20 HS4         2.0830    0.9380    2.7180 hs        1 GS4      0.235800
     21 H5         -1.1480   -0.4460    1.2350 h1        1 GS4      0.076700
     22 H61        -1.0210    1.5470    2.4130 h1        1 GS4      0.067700
     23 H62        -0.9750    2.3710    1.0490 h1        1 GS4      0.067700
     24 HO6        -3.0370    2.2730    1.9500 ho        1 GS4      0.412000
@<TRIPOS>BOND
     1    1    2 1   
     2    1    3 1   
     3    1   10 1   
     4    1   13 1   
     5    2   14 1   
     6    3    4 1   
     7    3    5 1   
     8    3   15 1   
     9    4   16 1   
    10    5    6 1   
    11    5    7 1   
    12    5   17 1   
    13    6   18 1   
    14    7    8 1   
    15    7    9 1   
    16    7   19 1   
    17    8   20 1   
    18    9   10 1   
    19    9   11 1   
    20    9   21 1   
    21   11   12 1   
    22   11   22 1   
    23   11   23 1   
    24   12   24 1   
@<TRIPOS>SUBSTRUCTURE
     1 GS4         1 TEMP              0 ****  ****    0 ROOT
