@<TRIPOS>MOLECULE
GS5
   52    55     1     0     0
SMALL
bcc


@<TRIPOS>ATOM
      1 CL         -6.5610   -0.9110   -2.0920 cl        1 GS5     -0.086400
      2 C13        -6.2450   -2.2130   -1.0460 ca        1 GS5     -0.001600
      3 C14        -7.2890   -3.1310   -0.7660 ca        1 GS5     -0.091000
      4 C11        -7.0740   -4.2010    0.0760 ca        1 GS5     -0.101000
      5 C6         -5.8060   -4.3810    0.6610 ca        1 GS5     -0.089100
      6 C5         -4.7630   -3.4530    0.3740 ca        1 GS5     -0.114800
      7 C10        -4.9890   -2.3620   -0.4860 ca        1 GS5     -0.060000
      8 C2         -3.5630   -3.8080    1.0610 cc        1 GS5      0.032800
      9 C1         -3.7130   -4.9550    1.8270 cd        1 GS5     -0.464500
     10 S4         -2.4850   -5.5590    2.7790 sy        1 GS5      1.546800
     11 O8         -2.0460   -4.5830    3.6930 o         1 GS5     -0.651300
     12 O9         -2.9190   -6.7800    3.3300 o         1 GS5     -0.651300
     13 N7         -1.2940   -5.8550    1.7060 n3        1 GS5     -0.893100
     14 C12        -0.0300   -5.1930    1.7010 c3        1 GS5      0.172500
     15 C15         0.1930   -4.3130    0.4370 c         1 GS5      0.680500
     16 O19        -0.6030   -3.4680   -0.0040 o         1 GS5     -0.651500
     17 C16         1.2030   -6.1330    1.7250 c3        1 GS5     -0.108400
     18 C20         2.1340   -5.6490    0.5970 c3        1 GS5      0.083000
     19 N18         1.4360   -4.5890   -0.1070 n         1 GS5     -0.471800
     20 C21         1.9520   -4.0070   -1.3160 c3        1 GS5      0.063700
     21 C23         3.4190   -3.5810   -1.2200 c3        1 GS5     -0.105100
     22 C22         1.8540   -5.0120   -2.4970 c         1 GS5      0.639100
     23 O25         2.6990   -5.9280   -2.5850 o         1 GS5     -0.616100
     24 N24         0.8580   -4.8860   -3.4420 n         1 GS5     -0.467800
     25 C26         0.9070   -5.6800   -4.6530 c3        1 GS5      0.051500
     26 C28        -0.4660   -6.2060   -5.0860 c3        1 GS5      0.113400
     27 O30        -1.4370   -5.1670   -5.1190 os        1 GS5     -0.409600
     28 C29        -1.5680   -4.5190   -3.8610 c3        1 GS5      0.113400
     29 C27        -0.2340   -3.9460   -3.3540 c3        1 GS5      0.051500
     30 S3         -5.2710   -5.5650    1.6980 ss        1 GS5      0.235500
     31 H14        -8.2770   -2.9790   -1.2290 ha        1 GS5      0.152000
     32 H10        -4.1720   -1.6540   -0.6950 ha        1 GS5      0.159000
     33 H11        -7.8850   -4.9120    0.2940 ha        1 GS5      0.146000
     34 H2         -2.6320   -3.2300    0.9650 ha        1 GS5      0.194000
     35 H7         -1.3940   -6.5360    0.9910 hn        1 GS5      0.448800
     36 H12         0.0160   -4.4900    2.5900 h1        1 GS5      0.116700
     37 H161        0.9230   -7.2010    1.5580 hc        1 GS5      0.070200
     38 H162        1.7160   -6.0610    2.7140 hc        1 GS5      0.070200
     39 H201        3.0960   -5.2470    1.0190 h1        1 GS5      0.065200
     40 H202        2.3860   -6.4800   -0.1190 h1        1 GS5      0.065200
     41 H21         1.3390   -3.0780   -1.5270 h1        1 GS5      0.090700
     42 H231        4.0820   -4.4700   -1.0780 hc        1 GS5      0.056700
     43 H232        3.7050   -3.0740   -2.1720 hc        1 GS5      0.056700
     44 H233        3.5670   -2.8720   -0.3710 hc        1 GS5      0.056700
     45 H261        1.6010   -6.5550   -4.5020 h1        1 GS5      0.067200
     46 H262        1.3210   -5.0350   -5.4810 h1        1 GS5      0.067200
     47 H271        0.0230   -3.0360   -3.9690 h1        1 GS5      0.067200
     48 H272       -0.3990   -3.6250   -2.2850 h1        1 GS5      0.067200
     49 H281       -0.4170   -6.5780   -6.1430 h1        1 GS5      0.057700
     50 H282       -0.8150   -7.0260   -4.4050 h1        1 GS5      0.057700
     51 H291       -1.9960   -5.2370   -3.1130 h1        1 GS5      0.057700
     52 H292       -2.2900   -3.6820   -4.0490 h1        1 GS5      0.057700
@<TRIPOS>BOND
     1    1    2 1   
     2    2    3 ar  
     3    2    7 ar  
     4    3    4 ar  
     5    3   31 1   
     6    4    5 ar  
     7    4   33 1   
     8    5    6 ar  
     9    5   30 1   
    10    6    7 ar  
    11    6    8 1   
    12    7   32 1   
    13    8    9 2   
    14    8   34 1   
    15    9   10 1   
    16    9   30 1   
    17   10   11 2   
    18   10   12 2   
    19   10   13 1   
    20   13   14 1   
    21   13   35 1   
    22   14   15 1   
    23   14   17 1   
    24   14   36 1   
    25   15   16 2   
    26   15   19 1   
    27   17   18 1   
    28   17   37 1   
    29   17   38 1   
    30   18   19 1   
    31   18   39 1   
    32   18   40 1   
    33   19   20 1   
    34   20   21 1   
    35   20   22 1   
    36   20   41 1   
    37   21   42 1   
    38   21   43 1   
    39   21   44 1   
    40   22   23 2   
    41   22   24 1   
    42   24   25 1   
    43   24   29 1   
    44   25   26 1   
    45   25   45 1   
    46   25   46 1   
    47   26   27 1   
    48   26   49 1   
    49   26   50 1   
    50   27   28 1   
    51   28   29 1   
    52   28   51 1   
    53   28   52 1   
    54   29   47 1   
    55   29   48 1   
@<TRIPOS>SUBSTRUCTURE
     1 GS5         1 TEMP              0 ****  ****    0 ROOT
