@<TRIPOS>MOLECULE
GS5
   52    48     1     0     0
SMALL
bcc


@<TRIPOS>ATOM
      1 CL          6.6720    4.3500   -4.1400 cl        1 GS5     -0.005000
      2 C13         5.0420    3.7310   -4.1600 c2        1 GS5     -0.076000
      3 C14         4.7640    2.5300   -4.8500 c2        1 GS5     -0.092000
      4 C11         3.5010    1.9370   -4.7430 c1        1 GS5     -0.099000
      5 C6          2.5230    2.5260   -3.9580 c1        1 GS5     -0.205500
      6 C5          2.8050    3.7420   -3.2580 c1        1 GS5     -0.205500
      7 C10         4.0560    4.3280   -3.3670 c1        1 GS5     -0.064000
      8 C2          1.4900    4.1750   -2.4430 c1        1 GS5      0.003000
      9 C1          0.4590    3.1910   -2.6890 c1        1 GS5     -1.135000
     10 S4         -1.2600    3.0840   -2.2680 ss        1 GS5      2.889000
     11 O8         -1.7760    4.3590   -1.8530 o         1 GS5     -0.924000
     12 O9         -2.0650    2.8200   -3.4280 o         1 GS5     -0.924000
     13 N7         -1.4910    1.9420   -1.1100 n2        1 GS5     -0.868000
     14 C12        -2.4150    0.9180   -1.3160 c3        1 GS5      0.023000
     15 C15        -2.8960    0.5560   -0.2100 c2        1 GS5      0.287000
     16 O19        -3.7170    1.1660    0.4450 o         1 GS5     -0.339000
     17 C16        -1.5850   -0.5190   -1.8390 c3        1 GS5     -0.191000
     18 C20        -1.0540   -1.0070   -0.8460 c3        1 GS5     -0.034000
     19 N18        -1.9040   -0.5690    0.3390 n         1 GS5     -0.334000
     20 C21        -2.0180   -1.2480    1.5820 c3        1 GS5      0.038000
     21 C23        -3.3660   -1.9250    1.6650 c3        1 GS5     -0.221000
     22 C22        -0.9240   -2.2870    1.6910 c2        1 GS5      0.278000
     23 O25        -0.3510   -2.6720    0.6930 o         1 GS5     -0.377000
     24 N24        -0.6290   -2.8750    2.9490 n         1 GS5     -0.316000
     25 C26         0.3410   -3.9790    3.3060 c3        1 GS5     -0.067500
     26 C28         1.4120   -3.5140    4.2680 c3        1 GS5     -0.036500
     27 O30         1.0560   -2.4160    4.8610 os        1 GS5     -0.269000
     28 C29        -0.1300   -2.1070    5.2890 c3        1 GS5     -0.036500
     29 C27        -1.1930   -2.5810    4.3200 c3        1 GS5     -0.067500
     30 S3          1.0430    2.1190   -3.6380 s         1 GS5      0.688000
     31 H14         5.4560    2.1090   -5.3950 ha        1 GS5      0.153000
     32 H10         4.2560    5.1470   -2.8750 ha        1 GS5      0.158000
     33 H11         3.3100    1.1070   -5.2200 ha        1 GS5      0.146000
     34 H2          1.4010    4.9670   -1.8800 DU        1 GS5      0.183000
     35 H7         -1.0360    1.9940   -0.3210 hn        1 GS5      0.247000
     36 H12        -3.0250    1.3420   -1.9540 h1        1 GS5      0.153000
     37 H161       -2.2260   -1.1540   -2.2230 hc        1 GS5      0.104500
     38 H162       -0.9030   -0.2880   -2.5040 hc        1 GS5      0.104500
     39 H201       -0.1400   -0.6670   -0.7490 h1        1 GS5      0.104000
     40 H202       -1.0470   -1.9850   -0.9130 h1        1 GS5      0.104000
     41 H21        -1.9310   -0.6050    2.3140 h1        1 GS5      0.133000
     42 H231       -4.0750   -1.2580    1.5520 hc        1 GS5      0.094667
     43 H232       -3.4620   -2.3570    2.5400 hc        1 GS5      0.094667
     44 H233       -3.4370   -2.6000    0.9580 hc        1 GS5      0.094667
     45 H261       -0.1550   -4.7160    3.7160 h1        1 GS5      0.107000
     46 H262        0.7690   -4.3020    2.4870 h1        1 GS5      0.107000
     47 H271       -1.8780   -1.8880    4.2390 h1        1 GS5      0.107000
     48 H272       -1.6040   -3.3940    4.6750 h1        1 GS5      0.107000
     49 H281        1.5640   -4.2090    4.9420 h1        1 GS5      0.095250
     50 H282        2.2440   -3.3570    3.7730 h1        1 GS5      0.095250
     51 H291       -0.1940   -1.1350    5.3860 h1        1 GS5      0.095250
     52 H292       -0.2780   -2.5290    6.1600 h1        1 GS5      0.095250
@<TRIPOS>BOND
     1    1    2 1   
     2    2    3 1   
     3    2    7 1   
     4    3    4 1   
     5    3   31 1   
     6    4   33 1   
     7    5    6 1   
     8    7   32 1   
     9    8    9 1   
    10    9   30 1   
    11   10   11 1   
    12   10   12 1   
    13   13   14 1   
    14   13   35 1   
    15   14   15 1   
    16   14   17 1   
    17   14   36 1   
    18   15   16 1   
    19   15   19 1   
    20   17   18 1   
    21   17   37 1   
    22   17   38 1   
    23   18   19 1   
    24   18   39 1   
    25   18   40 1   
    26   19   20 1   
    27   20   21 1   
    28   20   22 1   
    29   20   41 1   
    30   21   42 1   
    31   21   43 1   
    32   21   44 1   
    33   22   23 1   
    34   22   24 1   
    35   24   25 1   
    36   24   29 1   
    37   25   26 1   
    38   25   45 1   
    39   25   46 1   
    40   26   27 1   
    41   26   49 1   
    42   26   50 1   
    43   27   28 1   
    44   28   29 1   
    45   28   51 1   
    46   28   52 1   
    47   29   47 1   
    48   29   48 1   
@<TRIPOS>SUBSTRUCTURE
     1 GS5         1 TEMP              0 ****  ****    0 ROOT
