@<TRIPOS>MOLECULE
GS5
   53    55     1     0     0
SMALL
bcc


@<TRIPOS>ATOM
      1 Cl          2.9990   -0.6450    3.2550 cl        1 GS5     -0.027400
      2 C13         3.6350   -0.0040    1.8260 ca        1 GS5      0.000400
      3 C14         3.9160    1.3910    1.7690 ca        1 GS5     -0.028000
      4 C11         4.4360    1.9640    0.6290 ca        1 GS5     -0.124000
      5 C6          4.6930    1.1590   -0.4980 ca        1 GS5     -0.046100
      6 C5          4.4070   -0.2460   -0.4380 ca        1 GS5     -0.128800
      7 C10         3.8730   -0.8220    0.7410 ca        1 GS5     -0.046000
      8 C2          4.7210   -0.8830   -1.6500 cc        1 GS5      0.119800
      9 C1          5.2310    0.0150   -2.6290 cd        1 GS5     -0.718700
     10 S4          5.5790   -0.4450   -4.0560 s4        1 GS5      1.713100
     11 O8          5.0750   -1.6280   -4.4970 o         1 GS5     -0.445900
     12 O9          6.0470    0.4960   -4.9240 o         1 GS5     -0.445900
     13 N7          7.6880   -1.2500   -3.6260 n8        1 GS5     -0.990800
     14 C12         7.7950   -2.6950   -3.8130 c3        1 GS5      0.045500
     15 C15         7.4980   -3.4780   -2.5020 c         1 GS5      0.695500
     16 O19         6.5640   -3.1920   -1.7310 o         1 GS5     -0.670500
     17 C16         9.1690   -3.2310   -4.2690 c3        1 GS5     -0.113400
     18 C20         9.4380   -4.4720   -3.3930 c3        1 GS5      0.074000
     19 N18         8.4010   -4.5060   -2.3720 n         1 GS5     -0.435800
     20 C21         8.4950   -5.3670   -1.2170 c3        1 GS5      0.053700
     21 C23         8.8910   -6.8040   -1.5620 c3        1 GS5     -0.108100
     22 C22         9.5700   -4.8360   -0.2270 c         1 GS5      0.633100
     23 O25        10.7640   -4.8350   -0.5900 o         1 GS5     -0.604100
     24 N24         9.2100   -4.3620    1.0180 n         1 GS5     -0.460800
     25 C26        10.2350   -4.2120    2.0350 c3        1 GS5      0.050000
     26 C28         9.9220   -3.1030    3.0440 c3        1 GS5      0.116900
     27 O30         8.6030   -3.2280    3.5640 os        1 GS5     -0.398600
     28 C29         7.6220   -3.1970    2.5400 c3        1 GS5      0.116900
     29 C27         7.8420   -4.2820    1.4730 c3        1 GS5      0.050000
     30 S3          5.3000    1.5770   -1.9690 ss        1 GS5      0.308500
     31 H14         3.7090    2.0150    2.6570 ha        1 GS5      0.178000
     32 H10         3.6590   -1.9030    0.7670 ha        1 GS5      0.175000
     33 H11         4.6480    3.0450    0.5940 ha        1 GS5      0.169000
     34 H2          4.6090   -1.9680   -1.8210 ha        1 GS5      0.215000
     35 H7          8.3060   -0.7780   -4.2700 hn        1 GS5      0.411800
     36 H12         7.0050   -2.9970   -4.5680 h1        1 GS5      0.125700
     37 H161        9.1400   -3.5140   -5.3490 hc        1 GS5      0.079700
     38 H162        9.9860   -2.4800   -4.1280 hc        1 GS5      0.079700
     39 H201       10.4540   -4.4230   -2.9050 h1        1 GS5      0.090700
     40 H202        9.3810   -5.4130   -4.0060 h1        1 GS5      0.090700
     41 H21         7.4680   -5.3910   -0.7450 h1        1 GS5      0.092700
     42 H231        8.1770   -7.2440   -2.2980 hc        1 GS5      0.065700
     43 H232        8.8650   -7.4130   -0.6250 hc        1 GS5      0.065700
     44 H233        9.9260   -6.8410   -1.9820 hc        1 GS5      0.065700
     45 H261       10.3350   -5.1890    2.5920 h1        1 GS5      0.065950
     46 H262       11.2200   -3.9860    1.5370 h1        1 GS5      0.065950
     47 H271        7.5300   -5.2780    1.9030 h1        1 GS5      0.065950
     48 H272        7.1640   -4.0300    0.6070 h1        1 GS5      0.065950
     49 H281       10.5870   -3.2050    3.9420 h1        1 GS5      0.058950
     50 H282       10.0510   -2.0890    2.5810 h1        1 GS5      0.058950
     51 H291        6.6530   -3.3860    3.0740 h1        1 GS5      0.058950
     52 H292        7.6090   -2.1810    2.0630 h1        1 GS5      0.058950
     53 H72         7.9510   -0.9980   -2.6860 hn        1 GS5      0.411800
@<TRIPOS>BOND
     1    1    2 1   
     2    2    3 ar  
     3    2    7 ar  
     4    3    4 ar  
     5    3   31 1   
     6    4    5 ar  
     7    4   33 1   
     8    5    6 ar  
     9    5   30 1   
    10    6    7 ar  
    11    6    8 1   
    12    7   32 1   
    13    8    9 2   
    14    8   34 1   
    15    9   10 1   
    16    9   30 1   
    17   10   11 1   
    18   10   12 1   
    19   13   14 1   
    20   13   35 1   
    21   13   53 1   
    22   14   15 1   
    23   14   17 1   
    24   14   36 1   
    25   15   16 2   
    26   15   19 1   
    27   17   18 1   
    28   17   37 1   
    29   17   38 1   
    30   18   19 1   
    31   18   39 1   
    32   18   40 1   
    33   19   20 1   
    34   20   21 1   
    35   20   22 1   
    36   20   41 1   
    37   21   42 1   
    38   21   43 1   
    39   21   44 1   
    40   22   23 2   
    41   22   24 1   
    42   24   25 1   
    43   24   29 1   
    44   25   26 1   
    45   25   45 1   
    46   25   46 1   
    47   26   27 1   
    48   26   49 1   
    49   26   50 1   
    50   27   28 1   
    51   28   29 1   
    52   28   51 1   
    53   28   52 1   
    54   29   47 1   
    55   29   48 1   
@<TRIPOS>SUBSTRUCTURE
     1 GS5         1 TEMP              0 ****  ****    0 ROOT
