@<TRIPOS>MOLECULE
GS5
   53    55     1     0     0
SMALL
bcc


@<TRIPOS>ATOM
      1 CL          3.2490   -0.1010    3.0950 cl        1 GS5     -0.030400
      2 C13         3.8900    0.4210    1.6200 ca        1 GS5     -0.000600
      3 C14         4.3100    1.7770    1.5000 ca        1 GS5     -0.029000
      4 C11         4.8410    2.2530    0.3210 ca        1 GS5     -0.124000
      5 C6          4.9690    1.3870   -0.7830 ca        1 GS5     -0.046100
      6 C5          4.5410    0.0230   -0.6600 ca        1 GS5     -0.128800
      7 C10         3.9990   -0.4530    0.5590 ca        1 GS5     -0.043000
      8 C2          4.7400   -0.6840   -1.8570 cc        1 GS5      0.120800
      9 C1          5.3060    0.1190   -2.8850 cd        1 GS5     -0.714700
     10 S4          5.5610   -0.4260   -4.3030 s4        1 GS5      1.711100
     11 O8          4.9410   -1.5760   -4.6780 o         1 GS5     -0.446900
     12 O9          6.0650    0.4410   -5.2270 o         1 GS5     -0.446900
     13 N7          7.6050   -1.3720   -3.9180 n3        1 GS5     -0.991800
     14 C12         7.6000   -2.8310   -4.0300 c3        1 GS5      0.047500
     15 C15         7.2670   -3.5010   -2.6660 c         1 GS5      0.696500
     16 O19         6.3070   -3.1540   -1.9590 o         1 GS5     -0.650500
     17 C16         8.9300   -3.4830   -4.4600 c3        1 GS5     -0.110400
     18 C20         9.2440   -4.5490   -3.3920 c3        1 GS5      0.069000
     19 N18         8.1520   -4.5390   -2.4230 n         1 GS5     -0.413800
     20 C21         8.3490   -5.0820   -1.0940 c3        1 GS5      0.046700
     21 C23         9.0050   -6.4610   -1.1280 c3        1 GS5     -0.107100
     22 C22         9.2060   -4.1490   -0.1940 c         1 GS5      0.637100
     23 O25         9.8880   -3.2350   -0.7120 o         1 GS5     -0.640100
     24 N24         9.2210   -4.3350    1.1690 n         1 GS5     -0.458800
     25 C26        10.1020   -3.5380    2.0050 c3        1 GS5      0.053000
     26 C28         9.4080   -3.0170    3.2700 c3        1 GS5      0.110400
     27 O30         8.7410   -4.0600    3.9710 os        1 GS5     -0.398600
     28 C29         7.7920   -4.7360    3.1600 c3        1 GS5      0.110400
     29 C27         8.4350   -5.3120    1.8860 c3        1 GS5      0.053000
     30 S3          5.5610    1.6880   -2.2890 ss        1 GS5      0.306500
     31 H14         4.2040    2.4490    2.3700 ha        1 GS5      0.177000
     32 H10         3.6780   -1.5050    0.6340 ha        1 GS5      0.175000
     33 H11         5.1630    3.3040    0.2370 ha        1 GS5      0.168000
     34 H2          4.5040   -1.7550   -1.9840 ha        1 GS5      0.216000
     35 H7          8.2240   -0.9830   -4.6170 hn        1 GS5      0.414300
     36 H12         6.7810   -3.1120   -4.7600 h1        1 GS5      0.124700
     37 H161        9.7710   -2.7480   -4.5190 hc        1 GS5      0.079700
     38 H162        8.8150   -3.9590   -5.4650 hc        1 GS5      0.079700
     39 H201       10.2220   -4.3240   -2.8800 h1        1 GS5      0.082700
     40 H202        9.3000   -5.5730   -3.8520 h1        1 GS5      0.082700
     41 H21         7.3100   -5.1610   -0.6470 h1        1 GS5      0.097700
     42 H231        8.4200   -7.1580   -1.7760 hc        1 GS5      0.063367
     43 H232       10.0490   -6.3970   -1.5210 hc        1 GS5      0.063367
     44 H233        9.0380   -6.8810   -0.0940 hc        1 GS5      0.063367
     45 H261       10.4980   -2.6630    1.4170 h1        1 GS5      0.067950
     46 H262       10.9730   -4.1870    2.3100 h1        1 GS5      0.067950
     47 H271        7.6120   -5.7230    1.2400 h1        1 GS5      0.067950
     48 H272        9.1130   -6.1650    2.1830 h1        1 GS5      0.067950
     49 H281       10.1740   -2.6380    3.9970 h1        1 GS5      0.061450
     50 H282        8.6770   -2.2040    3.0190 h1        1 GS5      0.061450
     51 H291        7.4150   -5.5730    3.8060 h1        1 GS5      0.061450
     52 H292        6.9520   -4.0400    2.8980 h1        1 GS5      0.061450
     53 H72         7.9390   -1.0930   -3.0080 hn        1 GS5      0.414300
@<TRIPOS>BOND
     1    1    2 1   
     2    2    3 ar  
     3    2    7 ar  
     4    3    4 ar  
     5    3   31 1   
     6    4    5 ar  
     7    4   33 1   
     8    5    6 ar  
     9    5   30 1   
    10    6    7 ar  
    11    6    8 1   
    12    7   32 1   
    13    8    9 2   
    14    8   34 1   
    15    9   10 1   
    16    9   30 1   
    17   10   11 1   
    18   10   12 1   
    19   13   14 1   
    20   13   35 1   
    21   13   53 1   
    22   14   15 1   
    23   14   17 1   
    24   14   36 1   
    25   15   16 2   
    26   15   19 1   
    27   17   18 1   
    28   17   37 1   
    29   17   38 1   
    30   18   19 1   
    31   18   39 1   
    32   18   40 1   
    33   19   20 1   
    34   20   21 1   
    35   20   22 1   
    36   20   41 1   
    37   21   42 1   
    38   21   43 1   
    39   21   44 1   
    40   22   23 2   
    41   22   24 1   
    42   24   25 1   
    43   24   29 1   
    44   25   26 1   
    45   25   45 1   
    46   25   46 1   
    47   26   27 1   
    48   26   49 1   
    49   26   50 1   
    50   27   28 1   
    51   28   29 1   
    52   28   51 1   
    53   28   52 1   
    54   29   47 1   
    55   29   48 1   
@<TRIPOS>SUBSTRUCTURE
     1 GS5         1 TEMP              0 ****  ****    0 ROOT
