@<TRIPOS>MOLECULE
GS5
   53    55     1     0     0
SMALL
bcc


@<TRIPOS>ATOM
      1 CL          3.1370   -0.2640    3.0770 cl        1 GS5     -0.030400
      2 C13         3.7750    0.2910    1.6120 ca        1 GS5     -0.000600
      3 C14         4.1540    1.6600    1.5080 ca        1 GS5     -0.029000
      4 C11         4.6810    2.1630    0.3380 ca        1 GS5     -0.124000
      5 C6          4.8450    1.3120   -0.7720 ca        1 GS5     -0.046100
      6 C5          4.4580   -0.0660   -0.6650 ca        1 GS5     -0.128800
      7 C10         3.9210   -0.5700    0.5440 ca        1 GS5     -0.043000
      8 C2          4.6900   -0.7560   -1.8660 cc        1 GS5      0.120800
      9 C1          5.2400    0.0740   -2.8820 cd        1 GS5     -0.714700
     10 S4          5.5250   -0.4500   -4.3020 s4        1 GS5      1.711100
     11 O8          4.9440   -1.6160   -4.6930 o         1 GS5     -0.446900
     12 O9          6.0090    0.4400   -5.2140 o         1 GS5     -0.446900
     13 N7          7.5940   -1.3350   -3.9080 n3        1 GS5     -0.991800
     14 C12         7.6360   -2.7920   -4.0300 c3        1 GS5      0.047500
     15 C15         7.3120   -3.4840   -2.6750 c         1 GS5      0.696500
     16 O19         6.3350   -3.1730   -1.9740 o         1 GS5     -0.649500
     17 C16         8.9900   -3.3990   -4.4530 c3        1 GS5     -0.110400
     18 C20         9.3280   -4.4620   -3.3890 c3        1 GS5      0.069000
     19 N18         8.2280   -4.4940   -2.4310 n         1 GS5     -0.413800
     20 C21         8.4310   -5.0390   -1.1030 c3        1 GS5      0.046700
     21 C23         9.1340   -6.3960   -1.1410 c3        1 GS5     -0.107100
     22 C22         9.2490   -4.0840   -0.1900 c         1 GS5      0.637100
     23 O25         9.9040   -3.1440   -0.6960 o         1 GS5     -0.640100
     24 N24         9.2580   -4.2790    1.1720 n         1 GS5     -0.458800
     25 C26        10.1050   -3.4590    2.0210 c3        1 GS5      0.053000
     26 C28         9.3820   -2.9690    3.2820 c3        1 GS5      0.110400
     27 O30         8.7440   -4.0390    3.9710 os        1 GS5     -0.398600
     28 C29         7.8260   -4.7410    3.1470 c3        1 GS5      0.110400
     29 C27         8.4990   -5.2860    1.8750 c3        1 GS5      0.053000
     30 S3          5.4410    1.6450   -2.2700 ss        1 GS5      0.306500
     31 H14         4.0200    2.3210    2.3830 ha        1 GS5      0.177000
     32 H10         3.6310   -1.6320    0.6080 ha        1 GS5      0.175000
     33 H11         4.9710    3.2240    0.2660 ha        1 GS5      0.168000
     34 H2          4.4890   -1.8320   -2.0050 ha        1 GS5      0.216000
     35 H7          7.9120   -1.0530   -2.9920 hn        1 GS5      0.414300
     36 H12         6.8320   -3.0930   -4.7690 h1        1 GS5      0.124700
     37 H161        9.8070   -2.6370   -4.5010 hc        1 GS5      0.079700
     38 H162        8.8980   -3.8710   -5.4620 hc        1 GS5      0.079700
     39 H201        9.4220   -5.4810   -3.8570 h1        1 GS5      0.082700
     40 H202       10.2940   -4.2080   -2.8670 h1        1 GS5      0.082700
     41 H21         7.3920   -5.1560   -0.6670 h1        1 GS5      0.097700
     42 H231        9.1710   -6.8210   -0.1090 hc        1 GS5      0.063367
     43 H232       10.1790   -6.2950   -1.5230 hc        1 GS5      0.063367
     44 H233        8.5780   -7.1070   -1.7980 hc        1 GS5      0.063367
     45 H261       10.4760   -2.5680    1.4420 h1        1 GS5      0.067950
     46 H262       10.9940   -4.0800    2.3300 h1        1 GS5      0.067950
     47 H271        9.2030   -6.1180    2.1740 h1        1 GS5      0.067950
     48 H272        7.6960   -5.7210    1.2200 h1        1 GS5      0.067950
     49 H281        8.6270   -2.1800    3.0300 h1        1 GS5      0.061450
     50 H282       10.1290   -2.5700    4.0190 h1        1 GS5      0.061450
     51 H291        6.9650   -4.0720    2.8820 h1        1 GS5      0.061450
     52 H292        7.4710   -5.5940    3.7840 h1        1 GS5      0.061450
     53 H72         8.2060   -0.9210   -4.5970 hn        1 GS5      0.414300
@<TRIPOS>BOND
     1    1    2 1   
     2    2    3 ar  
     3    2    7 ar  
     4    3    4 ar  
     5    3   31 1   
     6    4    5 ar  
     7    4   33 1   
     8    5    6 ar  
     9    5   30 1   
    10    6    7 ar  
    11    6    8 1   
    12    7   32 1   
    13    8    9 2   
    14    8   34 1   
    15    9   10 1   
    16    9   30 1   
    17   10   11 1   
    18   10   12 1   
    19   13   14 1   
    20   13   35 1   
    21   13   53 1   
    22   14   15 1   
    23   14   17 1   
    24   14   36 1   
    25   15   16 2   
    26   15   19 1   
    27   17   18 1   
    28   17   37 1   
    29   17   38 1   
    30   18   19 1   
    31   18   39 1   
    32   18   40 1   
    33   19   20 1   
    34   20   21 1   
    35   20   22 1   
    36   20   41 1   
    37   21   42 1   
    38   21   43 1   
    39   21   44 1   
    40   22   23 2   
    41   22   24 1   
    42   24   25 1   
    43   24   29 1   
    44   25   26 1   
    45   25   45 1   
    46   25   46 1   
    47   26   27 1   
    48   26   49 1   
    49   26   50 1   
    50   27   28 1   
    51   28   29 1   
    52   28   51 1   
    53   28   52 1   
    54   29   47 1   
    55   29   48 1   
@<TRIPOS>SUBSTRUCTURE
     1 GS5         1 TEMP              0 ****  ****    0 ROOT
