@<TRIPOS>MOLECULE
GS6
   52    55     1     0     0
SMALL
bcc


@<TRIPOS>ATOM
      1 CL         -8.7950   -2.8690   -1.5410 cl        1 GS6     -0.082400
      2 C1         -7.2750   -3.1020   -0.8170 ca        1 GS6      0.050400
      3 C2         -7.0790   -4.1770    0.0330 ca        1 GS6     -0.108000
      4 C3         -5.8130   -4.3490    0.6200 ca        1 GS6     -0.080100
      5 C4         -4.7660   -3.4240    0.3340 ca        1 GS6     -0.122800
      6 C5         -3.5710   -3.7790    1.0290 cc        1 GS6      0.033800
      7 C9         -4.9940   -2.3390   -0.5330 ca        1 GS6     -0.055000
      8 C10        -6.2380   -2.1790   -1.1040 ca        1 GS6     -0.143000
      9 C6         -3.7270   -4.9210    1.8010 cd        1 GS6     -0.467500
     10 S1         -2.5050   -5.5190    2.7630 sy        1 GS6      1.547800
     11 O2         -2.0670   -4.5360    3.6700 o         1 GS6     -0.650800
     12 O1         -2.9440   -6.7340    3.3230 o         1 GS6     -0.650800
     13 N1         -1.3100   -5.8280    1.6970 n3        1 GS6     -0.893100
     14 C12        -0.0440   -5.1700    1.6940 c3        1 GS6      0.172500
     15 C13         1.1870   -6.1130    1.7320 c3        1 GS6     -0.108400
     16 C14         2.1260   -5.6400    0.6080 c3        1 GS6      0.083000
     17 C15         0.1900   -4.3010    0.4240 c         1 GS6      0.681500
     18 O3         -0.6020   -3.4570   -0.0290 o         1 GS6     -0.652500
     19 N2          1.4340   -4.5860   -0.1110 n         1 GS6     -0.471800
     20 C16         1.9630   -4.0100   -1.3170 c3        1 GS6      0.063700
     21 C17         3.4280   -3.5810   -1.2080 c3        1 GS6     -0.105100
     22 C18         1.8790   -5.0230   -2.4930 c         1 GS6      0.640100
     23 O4          2.7300   -5.9340   -2.5690 o         1 GS6     -0.615100
     24 N3          0.8900   -4.9070   -3.4470 n         1 GS6     -0.467800
     25 C19         0.9510   -5.7090   -4.6520 c3        1 GS6      0.051500
     26 C20        -0.4160   -6.2500   -5.0870 c3        1 GS6      0.113400
     27 O5         -1.3960   -5.2200   -5.1300 os        1 GS6     -0.409600
     28 C22        -1.5370   -4.5650   -3.8770 c3        1 GS6      0.113400
     29 C23        -0.2110   -3.9760   -3.3700 c3        1 GS6      0.051500
     30 S2         -5.2850   -5.5290    1.6670 ss        1 GS6      0.236500
     31 H2         -7.8910   -4.8870    0.2520 ha        1 GS6      0.156000
     32 H10        -6.4380   -1.3370   -1.7840 ha        1 GS6      0.153000
     33 H5         -2.6380   -3.2040    0.9340 ha        1 GS6      0.193000
     34 H9         -4.1760   -1.6320   -0.7430 ha        1 GS6      0.149000
     35 H1         -1.4090   -6.5140    0.9880 hn        1 GS6      0.448800
     36 H12        -0.0000   -4.4600    2.5780 h1        1 GS6      0.116700
     37 H131        0.9040   -7.1820    1.5710 hc        1 GS6      0.070200
     38 H132        1.6930   -6.0370    2.7250 hc        1 GS6      0.070200
     39 H141        3.0850   -5.2360    1.0330 h1        1 GS6      0.065200
     40 H142        2.3820   -6.4780   -0.1000 h1        1 GS6      0.065200
     41 H16         1.3500   -3.0840   -1.5410 h1        1 GS6      0.089700
     42 H171        4.0900   -4.4680   -1.0540 hc        1 GS6      0.056700
     43 H172        3.7230   -3.0790   -2.1610 hc        1 GS6      0.056700
     44 H173        3.5650   -2.8660   -0.3620 hc        1 GS6      0.056700
     45 H191        1.6530   -6.5760   -4.4930 h1        1 GS6      0.067200
     46 H192        1.3630   -5.0650   -5.4830 h1        1 GS6      0.067200
     47 H231        0.0400   -3.0690   -3.9920 h1        1 GS6      0.067200
     48 H232       -0.3820   -3.6480   -2.3040 h1        1 GS6      0.067200
     49 H201       -0.3590   -6.6280   -6.1420 h1        1 GS6      0.057450
     50 H202       -0.7590   -7.0690   -4.4020 h1        1 GS6      0.057450
     51 H221       -1.9610   -5.2830   -3.1250 h1        1 GS6      0.057450
     52 H222       -2.2670   -3.7370   -4.0720 h1        1 GS6      0.057450
@<TRIPOS>BOND
     1    1    2 1   
     2    2    3 ar  
     3    2    8 ar  
     4    3    4 ar  
     5    3   31 1   
     6    4    5 ar  
     7    4   30 1   
     8    5    6 1   
     9    5    7 ar  
    10    6    9 2   
    11    6   33 1   
    12    7    8 ar  
    13    7   34 1   
    14    8   32 1   
    15    9   10 1   
    16    9   30 1   
    17   10   11 2   
    18   10   12 2   
    19   10   13 1   
    20   13   14 1   
    21   13   35 1   
    22   14   15 1   
    23   14   17 1   
    24   14   36 1   
    25   15   16 1   
    26   15   37 1   
    27   15   38 1   
    28   16   19 1   
    29   16   39 1   
    30   16   40 1   
    31   17   18 2   
    32   17   19 1   
    33   19   20 1   
    34   20   21 1   
    35   20   22 1   
    36   20   41 1   
    37   21   42 1   
    38   21   43 1   
    39   21   44 1   
    40   22   23 2   
    41   22   24 1   
    42   24   25 1   
    43   24   29 1   
    44   25   26 1   
    45   25   45 1   
    46   25   46 1   
    47   26   27 1   
    48   26   49 1   
    49   26   50 1   
    50   27   28 1   
    51   28   29 1   
    52   28   51 1   
    53   28   52 1   
    54   29   47 1   
    55   29   48 1   
@<TRIPOS>SUBSTRUCTURE
     1 GS6         1 TEMP              0 ****  ****    0 ROOT
