@<TRIPOS>MOLECULE
GS6
   53    55     1     0     0
SMALL
bcc


@<TRIPOS>ATOM
      1 CL          0.6630    2.3360    1.8840 cl        1 GS6     -0.008400
      2 C1          1.9820    1.3610    1.4930 ca        1 GS6      0.104400
      3 C2          3.2380    1.9280    1.3400 ca        1 GS6     -0.142000
      4 C3          4.3220    1.0970    1.0120 ca        1 GS6     -0.030100
      5 C4          4.1160   -0.3140    0.8430 ca        1 GS6     -0.143800
      6 C5          5.3110   -0.9700    0.5160 cc        1 GS6      0.122800
      7 C9          2.8200   -0.8660    1.0060 ca        1 GS6     -0.029000
      8 C10         1.7720   -0.0390    1.3250 ca        1 GS6     -0.137000
      9 C6          6.4220   -0.0830    0.4220 cd        1 GS6     -0.723700
     10 S1          7.8200   -0.5660    0.0050 s4        1 GS6      1.714100
     11 O2          7.9330   -1.7720   -0.6110 o         1 GS6     -0.447400
     12 O1          8.8130    0.3640   -0.0690 o         1 GS6     -0.447400
     13 N1          8.5300   -1.3080    2.0670 n3        1 GS6     -0.989800
     14 C12         8.7400   -2.7530    2.1090 c3        1 GS6      0.046500
     15 C13         9.8350   -3.2640    3.0710 c3        1 GS6     -0.113400
     16 C14         9.2170   -4.4820    3.7880 c3        1 GS6      0.074000
     17 C15         7.4600   -3.5190    2.5510 c         1 GS6      0.695500
     18 O3          6.3190   -3.2410    2.1370 o         1 GS6     -0.670500
     19 N2          7.8080   -4.5210    3.4230 n         1 GS6     -0.436800
     20 C16         6.8640   -5.3620    4.1210 c3        1 GS6      0.053700
     21 C17         7.3590   -6.7950    4.3210 c3        1 GS6     -0.108100
     22 C18         6.5680   -4.7920    5.5360 c         1 GS6      0.633100
     23 O4          7.4890   -4.7820    6.3790 o         1 GS6     -0.603100
     24 N3          5.3200   -4.2920    5.8490 n         1 GS6     -0.460800
     25 C19         4.9690   -4.1000    7.2450 c3        1 GS6      0.050500
     26 C20         3.9620   -2.9660    7.4600 c3        1 GS6      0.116900
     27 O5          2.8410   -3.0920    6.5920 os        1 GS6     -0.399600
     28 C22         3.2230   -3.1050    5.2260 c3        1 GS6      0.116900
     29 C23         4.2330   -4.2180    4.9020 c3        1 GS6      0.050500
     30 S2          5.9030    1.4960    0.7690 ss        1 GS6      0.301500
     31 H2          3.3890    3.0120    1.4690 ha        1 GS6      0.177000
     32 H10         0.7540   -0.4460    1.4530 ha        1 GS6      0.178000
     33 H5          5.3940   -2.0600    0.3690 ha        1 GS6      0.213000
     34 H9          2.6750   -1.9500    0.8710 ha        1 GS6      0.167000
     35 H1          7.8600   -1.0310    2.7660 hn        1 GS6      0.410800
     36 H12         8.9810   -3.0900    1.0530 h1        1 GS6      0.125700
     37 H131       10.1350   -2.4910    3.8210 hc        1 GS6      0.079700
     38 H132       10.7470   -3.5660    2.5000 hc        1 GS6      0.079700
     39 H141        9.7110   -5.4360    3.4520 h1        1 GS6      0.090200
     40 H142        9.3200   -4.4010    4.9080 h1        1 GS6      0.090200
     41 H16         5.9310   -5.4010    3.4830 h1        1 GS6      0.091700
     42 H171        6.5410   -7.3890    4.7970 hc        1 GS6      0.065367
     43 H172        8.2510   -6.8170    4.9940 hc        1 GS6      0.065367
     44 H173        7.6230   -7.2620    3.3430 hc        1 GS6      0.065367
     45 H191        4.5230   -5.0590    7.6380 h1        1 GS6      0.066200
     46 H192        5.9040   -3.8760    7.8330 h1        1 GS6      0.066200
     47 H231        4.6370   -4.0020    3.8710 h1        1 GS6      0.066200
     48 H232        3.6870   -5.2050    4.8790 h1        1 GS6      0.066200
     49 H201        3.5260   -3.0340    8.4920 h1        1 GS6      0.058200
     50 H202        4.4450   -1.9650    7.3100 h1        1 GS6      0.058200
     51 H221        2.2680   -3.2910    4.6680 h1        1 GS6      0.058200
     52 H222        3.6460   -2.1030    4.9450 h1        1 GS6      0.058200
     53 H121        9.4020   -0.8330    2.2520 hn        1 GS6      0.410800
@<TRIPOS>BOND
     1    1    2 1   
     2    2    3 ar  
     3    2    8 ar  
     4    3    4 ar  
     5    3   31 1   
     6    4    5 ar  
     7    4   30 1   
     8    5    6 1   
     9    5    7 ar  
    10    6    9 2   
    11    6   33 1   
    12    7    8 ar  
    13    7   34 1   
    14    8   32 1   
    15    9   10 1   
    16    9   30 1   
    17   10   11 1   
    18   10   12 1   
    19   13   14 1   
    20   13   35 1   
    21   13   53 1   
    22   14   15 1   
    23   14   17 1   
    24   14   36 1   
    25   15   16 1   
    26   15   37 1   
    27   15   38 1   
    28   16   19 1   
    29   16   39 1   
    30   16   40 1   
    31   17   18 2   
    32   17   19 1   
    33   19   20 1   
    34   20   21 1   
    35   20   22 1   
    36   20   41 1   
    37   21   42 1   
    38   21   43 1   
    39   21   44 1   
    40   22   23 2   
    41   22   24 1   
    42   24   25 1   
    43   24   29 1   
    44   25   26 1   
    45   25   45 1   
    46   25   46 1   
    47   26   27 1   
    48   26   49 1   
    49   26   50 1   
    50   27   28 1   
    51   28   29 1   
    52   28   51 1   
    53   28   52 1   
    54   29   47 1   
    55   29   48 1   
@<TRIPOS>SUBSTRUCTURE
     1 GS6         1 TEMP              0 ****  ****    0 ROOT
