@<TRIPOS>MOLECULE
GS6
   53    55     1     0     0
SMALL
bcc


@<TRIPOS>ATOM
      1 CL          0.6310    2.3070    1.9180 cl        1 GS6     -0.008400
      2 C1          1.9590    1.3480    1.5210 ca        1 GS6      0.104400
      3 C2          3.2110    1.9270    1.3820 ca        1 GS6     -0.142000
      4 C3          4.3040    1.1100    1.0500 ca        1 GS6     -0.030100
      5 C4          4.1100   -0.3010    0.8630 ca        1 GS6     -0.143800
      6 C5          5.3130   -0.9430    0.5340 cc        1 GS6      0.122800
      7 C9          2.8180   -0.8660    1.0120 ca        1 GS6     -0.029000
      8 C10         1.7620   -0.0510    1.3360 ca        1 GS6     -0.137000
      9 C6          6.4160   -0.0460    0.4560 cd        1 GS6     -0.723700
     10 S1          7.8200   -0.5120    0.0410 s4        1 GS6      1.714100
     11 O2          7.9470   -1.7110   -0.5890 o         1 GS6     -0.447400
     12 O1          8.8060    0.4260   -0.0170 o         1 GS6     -0.447400
     13 N1          8.5260   -1.2740    2.0970 n3        1 GS6     -0.989800
     14 C12         8.7490   -2.7170    2.1230 c3        1 GS6      0.046500
     15 C13         9.8420   -3.2290    3.0850 c3        1 GS6     -0.113400
     16 C14         9.2320   -4.4610    3.7840 c3        1 GS6      0.074000
     17 C15         7.4730   -3.4990    2.5480 c         1 GS6      0.695500
     18 O3          6.3320   -3.2270    2.1310 o         1 GS6     -0.670500
     19 N2          7.8250   -4.5090    3.4100 n         1 GS6     -0.436800
     20 C16         6.8840   -5.3660    4.0920 c3        1 GS6      0.053700
     21 C17         7.3910   -6.7970    4.2810 c3        1 GS6     -0.108100
     22 C18         6.5730   -4.8140    5.5120 c         1 GS6      0.633100
     23 O4          7.4890   -4.8040    6.3600 o         1 GS6     -0.603100
     24 N3          5.3180   -4.3320    5.8220 n         1 GS6     -0.460800
     25 C19         4.9560   -4.1580    7.2170 c3        1 GS6      0.050500
     26 C20         3.9360   -3.0380    7.4390 c3        1 GS6      0.116900
     27 O5          2.8220   -3.1670    6.5620 os        1 GS6     -0.399600
     28 C22         3.2130   -3.1590    5.1980 c3        1 GS6      0.116900
     29 C23         4.2370   -4.2580    4.8680 c3        1 GS6      0.050500
     30 S2          5.8820    1.5240    0.8190 ss        1 GS6      0.301500
     31 H2          3.3530    3.0110    1.5240 ha        1 GS6      0.177000
     32 H10         0.7470   -0.4680    1.4540 ha        1 GS6      0.178000
     33 H5          5.4050   -2.0310    0.3740 ha        1 GS6      0.213000
     34 H9          2.6820   -1.9490    0.8640 ha        1 GS6      0.167000
     35 H1          9.3930   -0.7930    2.2930 hn        1 GS6      0.410800
     36 H12         8.9990   -3.0380    1.0650 h1        1 GS6      0.125700
     37 H131       10.1310   -2.4630    3.8460 hc        1 GS6      0.079700
     38 H132       10.7600   -3.5170    2.5170 hc        1 GS6      0.079700
     39 H141        9.7360   -5.4060    3.4410 h1        1 GS6      0.090200
     40 H142        9.3260   -4.3920    4.9060 h1        1 GS6      0.090200
     41 H16         5.9550   -5.4070    3.4470 h1        1 GS6      0.091700
     42 H171        8.2790   -6.8170    4.9590 hc        1 GS6      0.065367
     43 H172        6.5760   -7.4040    4.7430 hc        1 GS6      0.065367
     44 H173        7.6670   -7.2500    3.2990 hc        1 GS6      0.065367
     45 H191        5.8850   -3.9310    7.8140 h1        1 GS6      0.066200
     46 H192        4.5180   -5.1260    7.5970 h1        1 GS6      0.066200
     47 H231        4.6450   -4.0260    3.8420 h1        1 GS6      0.066200
     48 H232        3.7010   -5.2500    4.8310 h1        1 GS6      0.066200
     49 H201        4.4090   -2.0300    7.3030 h1        1 GS6      0.058200
     50 H202        3.4930   -3.1220    8.4660 h1        1 GS6      0.058200
     51 H221        3.6260   -2.1500    4.9320 h1        1 GS6      0.058200
     52 H222        2.2630   -3.3500    4.6320 h1        1 GS6      0.058200
     53 H121        7.8490   -1.0100    2.7960 hn        1 GS6      0.410800
@<TRIPOS>BOND
     1    1    2 1   
     2    2    3 ar  
     3    2    8 ar  
     4    3    4 ar  
     5    3   31 1   
     6    4    5 ar  
     7    4   30 1   
     8    5    6 1   
     9    5    7 ar  
    10    6    9 2   
    11    6   33 1   
    12    7    8 ar  
    13    7   34 1   
    14    8   32 1   
    15    9   10 1   
    16    9   30 1   
    17   10   11 1   
    18   10   12 1   
    19   13   14 1   
    20   13   35 1   
    21   13   53 1   
    22   14   15 1   
    23   14   17 1   
    24   14   36 1   
    25   15   16 1   
    26   15   37 1   
    27   15   38 1   
    28   16   19 1   
    29   16   39 1   
    30   16   40 1   
    31   17   18 2   
    32   17   19 1   
    33   19   20 1   
    34   20   21 1   
    35   20   22 1   
    36   20   41 1   
    37   21   42 1   
    38   21   43 1   
    39   21   44 1   
    40   22   23 2   
    41   22   24 1   
    42   24   25 1   
    43   24   29 1   
    44   25   26 1   
    45   25   45 1   
    46   25   46 1   
    47   26   27 1   
    48   26   49 1   
    49   26   50 1   
    50   27   28 1   
    51   28   29 1   
    52   28   51 1   
    53   28   52 1   
    54   29   47 1   
    55   29   48 1   
@<TRIPOS>SUBSTRUCTURE
     1 GS6         1 TEMP              0 ****  ****    0 ROOT
