@<TRIPOS>MOLECULE
GS6
   53    55     1     0     0
SMALL
bcc


@<TRIPOS>ATOM
      1 Cl          0.5800    2.2540    1.9170 cl        1 GS6     -0.008400
      2 C1          1.9310    1.3250    1.5270 ca        1 GS6      0.104400
      3 C2          3.1760    1.9260    1.4250 ca        1 GS6     -0.142000
      4 C3          4.2880    1.1330    1.0970 ca        1 GS6     -0.030100
      5 C4          4.1210   -0.2770    0.8760 ca        1 GS6     -0.143800
      6 C5          5.3400   -0.8930    0.5580 cc        1 GS6      0.122800
      7 C9          2.8350   -0.8640    0.9880 ca        1 GS6     -0.029000
      8 C10         1.7600   -0.0730    1.3070 ca        1 GS6     -0.137000
      9 C6          6.4300    0.0220    0.5210 cd        1 GS6     -0.723700
     10 S1          7.8490   -0.4130    0.1250 s4        1 GS6      1.714100
     11 O2          8.0070   -1.5950   -0.5280 o         1 GS6     -0.447400
     12 O1          8.8210    0.5420    0.1060 o         1 GS6     -0.447400
     13 N1          8.5270   -1.2080    2.1780 n8        1 GS6     -0.989800
     14 C12         8.7710   -2.6480    2.1770 c3        1 GS6      0.046500
     15 C13         9.8530   -3.1650    3.1490 c3        1 GS6     -0.113400
     16 C14         9.2480   -4.4210    3.8090 c3        1 GS6      0.074000
     17 C15         7.4990   -3.4570    2.5610 c         1 GS6      0.695500
     18 O3          6.3620   -3.1930    2.1280 o         1 GS6     -0.670500
     19 N2          7.8490   -4.4800    3.4080 n         1 GS6     -0.436800
     20 C16         6.9090   -5.3660    4.0540 c3        1 GS6      0.053700
     21 C17         7.4340   -6.7940    4.2180 c3        1 GS6     -0.108100
     22 C18         6.5660   -4.8520    5.4800 c         1 GS6      0.633100
     23 O4          7.4660   -4.8500    6.3450 o         1 GS6     -0.603100
     24 N3          5.3000   -4.3910    5.7770 n         1 GS6     -0.460800
     25 C19         4.9100   -4.2550    7.1700 c3        1 GS6      0.050500
     26 C20         3.8730   -3.1520    7.3980 c3        1 GS6      0.116900
     27 O5          2.7760   -3.2730    6.4980 os        1 GS6     -0.399600
     28 C22         3.1920   -3.2300    5.1430 c3        1 GS6      0.116900
     29 C23         4.2350   -4.3090    4.8060 c3        1 GS6      0.050500
     30 S2          5.8640    1.5760    0.9070 ss        1 GS6      0.301500
     31 H2          3.2980    3.0080    1.5940 ha        1 GS6      0.177000
     32 H10         0.7490   -0.5080    1.3960 ha        1 GS6      0.178000
     33 H5          5.4530   -1.9760    0.3770 ha        1 GS6      0.213000
     34 H9          2.7200   -1.9460    0.8130 ha        1 GS6      0.167000
     35 H1          7.8330   -0.9700    2.8690 hn        1 GS6      0.410800
     36 H12         9.0450   -2.9430    1.1170 h1        1 GS6      0.125700
     37 H131       10.7860   -3.4260    2.5920 hc        1 GS6      0.079700
     38 H132       10.1160   -2.4110    3.9320 hc        1 GS6      0.079700
     39 H141        9.7730   -5.3510    3.4540 h1        1 GS6      0.090200
     40 H142        9.3220   -4.3750    4.9330 h1        1 GS6      0.090200
     41 H16         5.9930   -5.4050    3.3920 h1        1 GS6      0.091700
     42 H171        7.7320   -7.2210    3.2310 hc        1 GS6      0.065367
     43 H172        8.3100   -6.8170    4.9120 hc        1 GS6      0.065367
     44 H173        6.6190   -7.4230    4.6530 hc        1 GS6      0.065367
     45 H191        4.4770   -5.2360    7.5190 h1        1 GS6      0.066200
     46 H192        5.8250   -4.0310    7.7890 h1        1 GS6      0.066200
     47 H231        3.7120   -5.3060    4.7370 h1        1 GS6      0.066200
     48 H232        4.6580   -4.0480    3.7940 h1        1 GS6      0.066200
     49 H201        3.4130   -3.2650    8.4150 h1        1 GS6      0.058200
     50 H202        4.3360   -2.1350    7.2940 h1        1 GS6      0.058200
     51 H221        3.5980   -2.2110    4.9070 h1        1 GS6      0.058200
     52 H222        2.2550   -3.4180    4.5550 h1        1 GS6      0.058200
     53 H121        9.3830   -0.7190    2.4000 hn        1 GS6      0.410800
@<TRIPOS>BOND
     1    1    2 1   
     2    2    3 ar  
     3    2    8 ar  
     4    3    4 ar  
     5    3   31 1   
     6    4    5 ar  
     7    4   30 1   
     8    5    6 1   
     9    5    7 ar  
    10    6    9 2   
    11    6   33 1   
    12    7    8 ar  
    13    7   34 1   
    14    8   32 1   
    15    9   10 1   
    16    9   30 1   
    17   10   11 1   
    18   10   12 1   
    19   13   14 1   
    20   13   35 1   
    21   13   53 1   
    22   14   15 1   
    23   14   17 1   
    24   14   36 1   
    25   15   16 1   
    26   15   37 1   
    27   15   38 1   
    28   16   19 1   
    29   16   39 1   
    30   16   40 1   
    31   17   18 2   
    32   17   19 1   
    33   19   20 1   
    34   20   21 1   
    35   20   22 1   
    36   20   41 1   
    37   21   42 1   
    38   21   43 1   
    39   21   44 1   
    40   22   23 2   
    41   22   24 1   
    42   24   25 1   
    43   24   29 1   
    44   25   26 1   
    45   25   45 1   
    46   25   46 1   
    47   26   27 1   
    48   26   49 1   
    49   26   50 1   
    50   27   28 1   
    51   28   29 1   
    52   28   51 1   
    53   28   52 1   
    54   29   47 1   
    55   29   48 1   
@<TRIPOS>SUBSTRUCTURE
     1 GS6         1 TEMP              0 ****  ****    0 ROOT
