@<TRIPOS>MOLECULE
GS6
   52    48     1     0     0
SMALL
bcc


@<TRIPOS>ATOM
      1 CL          7.7940    2.3010    1.2780 cl        1 GS6     -0.003000
      2 C1          6.4960    3.0170    0.3440 c2        1 GS6     -0.031000
      3 C2          5.7030    2.1210   -0.3650 c2        1 GS6     -0.106000
      4 C3          4.4810    2.5470   -0.9160 c1        1 GS6     -0.304000
      5 C4          4.0440    3.9190   -0.7450 c1        1 GS6     -0.107000
      6 C5          2.6020    4.0870   -1.4620 c1        1 GS6      0.003000
      7 C9          4.8300    4.8080   -0.0420 c1        1 GS6     -0.058000
      8 C10         6.0690    4.3760    0.5160 c1        1 GS6     -0.139000
      9 C6          2.2300    2.8060   -2.0350 c1        1 GS6     -1.135000
     10 S1          0.8490    2.3450   -3.1550 ss        1 GS6      2.889000
     11 O2          0.1860    3.5350   -3.6980 o         1 GS6     -0.925000
     12 O1          1.3340    1.7220   -4.3580 o         1 GS6     -0.925000
     13 N1         -0.2150    1.3730   -2.3700 n2        1 GS6     -0.869000
     14 C12        -0.4770    0.0210   -2.8730 c3        1 GS6      0.023000
     15 C13         0.5160   -1.0730   -2.0750 c3        1 GS6     -0.188000
     16 C14         0.0390   -1.2410   -0.9640 c3        1 GS6     -0.039000
     17 C15        -1.5790   -0.3330   -2.5270 c2        1 GS6      0.284000
     18 O3         -2.5960    0.0170   -2.9940 o         1 GS6     -0.329000
     19 N2         -1.3850   -0.9880   -1.1030 n         1 GS6     -0.316000
     20 C16        -2.3960   -1.5060   -0.2940 c3        1 GS6      0.032000
     21 C17        -3.2740   -2.4710   -1.1160 c3        1 GS6     -0.221000
     22 C18        -1.7790   -2.2580    0.8790 c2        1 GS6      0.280000
     23 O4         -0.6050   -2.6620    0.8120 o         1 GS6     -0.381000
     24 N3         -2.5760   -2.5440    2.0330 n         1 GS6     -0.322000
     25 C19        -2.1020   -3.2870    3.1480 c3        1 GS6     -0.063000
     26 C20        -2.3440   -2.5480    4.4750 c3        1 GS6     -0.046500
     27 O5         -3.7070   -2.1150    4.6190 os        1 GS6     -0.267000
     28 C22        -4.1630   -1.3720    3.4970 c3        1 GS6     -0.046500
     29 C23        -3.9110   -2.1160    2.1620 c3        1 GS6     -0.063000
     30 S2          3.3800    1.7870   -1.7230 s         1 GS6      0.688000
     31 H2          5.9450    1.1580   -0.3880 ha        1 GS6      0.155000
     32 H10         6.5700    4.9720    1.1130 ha        1 GS6      0.154000
     33 H5          2.0950    4.9430   -1.5640 DU        1 GS6      0.182000
     34 H9          4.5460    5.7070    0.0700 ha        1 GS6      0.148000
     35 H1         -0.5670    1.6400   -1.5360 hn        1 GS6      0.249000
     36 H12        -0.3320    0.1450   -3.8080 h1        1 GS6      0.151000
     37 H131        0.5340   -1.9070   -2.5520 hc        1 GS6      0.104000
     38 H132        1.4460   -0.7030   -2.0000 hc        1 GS6      0.104000
     39 H141        0.4370   -0.6000   -0.3210 h1        1 GS6      0.103000
     40 H142        0.1920   -2.1530   -0.6700 h1        1 GS6      0.103000
     41 H16        -2.9070   -0.8280    0.0190 h1        1 GS6      0.135000
     42 H171       -4.0960   -2.6680   -0.6180 hc        1 GS6      0.093000
     43 H172       -2.7750   -3.3200   -1.2820 hc        1 GS6      0.093000
     44 H173       -3.5000   -2.0620   -1.9580 hc        1 GS6      0.093000
     45 H191       -1.1150   -3.4480    3.0360 h1        1 GS6      0.105250
     46 H192       -2.5630   -4.1500    3.1770 h1        1 GS6      0.105250
     47 H231       -4.1300   -1.5000    1.3980 h1        1 GS6      0.105250
     48 H232       -4.4990   -2.8950    2.1180 h1        1 GS6      0.105250
     49 H201       -2.1210   -3.1590    5.2290 h1        1 GS6      0.099750
     50 H202       -1.7520   -1.7590    4.5160 h1        1 GS6      0.099750
     51 H221       -5.1690   -1.2060    3.5990 h1        1 GS6      0.099750
     52 H222       -3.6810   -0.4730    3.4760 h1        1 GS6      0.099750
@<TRIPOS>BOND
     1    1    2 1   
     2    2    3 1   
     3    2    8 1   
     4    3    4 1   
     5    3   31 1   
     6    5    7 1   
     7    6    9 1   
     8    7   34 1   
     9    8   32 1   
    10    9   30 1   
    11   10   11 1   
    12   10   12 1   
    13   13   14 1   
    14   13   35 1   
    15   14   15 1   
    16   14   17 1   
    17   14   36 1   
    18   15   16 1   
    19   15   37 1   
    20   15   38 1   
    21   16   19 1   
    22   16   39 1   
    23   16   40 1   
    24   17   18 1   
    25   17   19 1   
    26   19   20 1   
    27   20   21 1   
    28   20   22 1   
    29   20   41 1   
    30   21   42 1   
    31   21   43 1   
    32   21   44 1   
    33   22   23 1   
    34   22   24 1   
    35   24   25 1   
    36   24   29 1   
    37   25   26 1   
    38   25   45 1   
    39   25   46 1   
    40   26   27 1   
    41   26   49 1   
    42   26   50 1   
    43   27   28 1   
    44   28   29 1   
    45   28   51 1   
    46   28   52 1   
    47   29   47 1   
    48   29   48 1   
@<TRIPOS>SUBSTRUCTURE
     1 GS6         1 TEMP              0 ****  ****    0 ROOT
