@<TRIPOS>MOLECULE
GS7
   58    58     1     0     0
SMALL
bcc


@<TRIPOS>ATOM
      1 C11      -483.3130   41.3470 -367.3320 c2        1 GS7      0.208000
      2 N2       -484.3390   41.8610 -368.0260 n2        1 GS7     -0.248000
      3 C19      -481.9970   41.2750 -367.8640 c2        1 GS7     -0.386000
      4 C22      -481.8120   41.7850 -369.2340 c2        1 GS7      0.197000
      5 N5       -480.5090   41.6360 -369.5810 nh        1 GS7     -0.236000
      6 C21      -479.7800   41.0160 -368.4530 c3        1 GS7     -0.119000
      7 C20      -480.7690   40.7920 -367.3410 c1        1 GS7     -0.037000
      8 N6       -482.8750   42.3130 -369.9570 n2        1 GS7     -0.144000
      9 C10      -484.0400   42.3130 -369.3090 c2        1 GS7      0.088000
     10 N1        601.9530  -51.4800  453.9170 n2        1 GS7     -0.058000
     11 C9        602.9700  -52.0280  453.8620 c1        1 GS7      0.270000
     12 C2        604.2500  -52.6720  453.8350 c2        1 GS7      0.015000
     13 O1        604.9140  -52.5840  455.0440 os        1 GS7     -0.195000
     14 C1        605.0290  -53.8280  455.7500 c3        1 GS7     -0.086000
     15 C8        597.0480  -46.5190  448.8980 c2        1 GS7      0.006000
     16 C7        597.4510  -47.2280  449.9170 c1        1 GS7     -0.185000
     17 C4        597.8420  -47.9260  450.8920 c1        1 GS7      0.125000
     18 C3        604.7780  -53.1750  452.7070 c2        1 GS7     -0.074000
     19 C5        598.2520  -48.6210  451.9240 c2        1 GS7     -0.928000
     20 S         598.5560  -50.2260  452.0160 s6        1 GS7      2.912000
     21 O2        599.0210  -50.7880  450.8230 o         1 GS7     -0.993500
     22 O3        599.4490  -50.4690  453.1040 o         1 GS7     -0.993500
     23 C6        597.0440  -50.8350  452.4180 c3        1 GS7     -0.950000
     24 O4       -482.3660   38.8920 -364.1160 o         1 GS7     -0.119000
     25 N4       -482.6300   39.7970 -362.0150 n4        1 GS7     -0.141000
     26 C17      -484.3750   40.2120 -363.8320 c2        1 GS7     -0.326000
     27 C16      -485.5110   40.1090 -363.0470 c2        1 GS7      0.297000
     28 F        -485.4630   39.4880 -361.8590 f         1 GS7     -0.050000
     29 C15      -486.8400   40.6500 -363.4390 c3        1 GS7     -0.207000
     30 C14      -486.7970   41.4590 -364.6650 c2        1 GS7     -0.002000
     31 C13      -485.7040   41.5680 -365.4450 c2        1 GS7     -0.211000
     32 C12      -484.4630   40.8650 -365.1560 c2        1 GS7      0.299000
     33 N3       -483.4420   40.7970 -366.0070 nh        1 GS7     -0.123000
     34 HN5      -479.3290   40.0340 -368.7790 h1        1 GS7      0.183500
     35 H21      -480.1020   41.8890 -370.4510 hn        1 GS7      0.297000
     36 H20      -478.9480   41.6980 -368.1120 h1        1 GS7      0.183500
     37 HN1      -484.9190   42.7290 -369.8610 h5        1 GS7      0.239000
     38 H1        605.6480  -53.5490  456.6420 h1        1 GS7      0.106333
     39 H1A       605.5520  -54.5850  455.1190 h1        1 GS7      0.106333
     40 H1B       604.0200  -54.1920  456.0590 h1        1 GS7      0.106333
     41 H8        596.9110  -45.4260  448.9660 ha        1 GS7      0.158500
     42 H7        596.8260  -46.9760  447.9180 ha        1 GS7      0.158500
     43 H3        604.2610  -53.1470  451.7360 ha        1 GS7      0.173500
     44 H5        605.7760  -53.6450  452.7200 ha        1 GS7      0.173500
     45 H5A       598.4370  -48.0410  452.8570 h4        1 GS7      0.205000
     46 H6        597.1070  -51.8800  452.8180 h1        1 GS7      0.169333
     47 H6A       596.5060  -50.2430  453.2010 h1        1 GS7      0.169333
     48 H6B       596.3490  -50.8870  451.5410 h1        1 GS7      0.169333
     49 HN4      -481.6900   39.3790 -361.9020 hn        1 GS7      0.284000
     50 HN4A     -483.2680   39.3450 -361.3450 hn        1 GS7      0.284000
     51 H15      -487.2720   41.2570 -362.5800 hc        1 GS7      0.219500
     52 H14      -487.5680   39.7820 -363.5710 hc        1 GS7      0.219500
     53 H13      -487.7380   41.9850 -364.9330 ha        1 GS7      0.215000
     54 HN3      -485.7550   42.2050 -366.3550 ha        1 GS7      0.240000
     55 H12       601.0560  -51.0180  453.9090 hn        1 GS7      0.439000
     56 H43      -482.5760   40.7990 -361.8010 hn        1 GS7      0.284000
     57 H32      -482.5860   40.2980 -365.7590 hn        1 GS7      0.312000
     58 C18      -483.1070   39.5800 -363.4310 c2        1 GS7      0.299000
@<TRIPOS>BOND
     1    1    2 1   
     2    1    3 1   
     3    1   33 1   
     4    2    9 1   
     5    3    4 1   
     6    3    7 1   
     7    4    5 1   
     8    4    8 1   
     9    5    6 1   
    10    5   35 1   
    11    6    7 1   
    12    6   34 1   
    13    6   36 1   
    14    8    9 1   
    15    9   37 1   
    16   10   11 1   
    17   10   55 1   
    18   11   12 1   
    19   12   13 1   
    20   12   18 1   
    21   13   14 1   
    22   14   38 1   
    23   14   39 1   
    24   14   40 1   
    25   15   16 1   
    26   15   41 1   
    27   15   42 1   
    28   16   17 1   
    29   17   19 1   
    30   18   43 1   
    31   18   44 1   
    32   19   20 1   
    33   19   45 1   
    34   20   21 1   
    35   20   22 1   
    36   20   23 1   
    37   23   46 1   
    38   23   47 1   
    39   23   48 1   
    40   24   58 1   
    41   25   49 1   
    42   25   50 1   
    43   25   56 1   
    44   25   58 1   
    45   26   27 1   
    46   26   32 1   
    47   26   58 1   
    48   27   28 1   
    49   27   29 1   
    50   29   30 1   
    51   29   51 1   
    52   29   52 1   
    53   30   31 1   
    54   30   53 1   
    55   31   32 1   
    56   31   54 1   
    57   32   33 1   
    58   33   57 1   
@<TRIPOS>SUBSTRUCTURE
     1 GS7         1 TEMP              0 ****  ****    0 ROOT
