@<TRIPOS>MOLECULE
GS7
   55    44     1     0     0
SMALL
bcc


@<TRIPOS>ATOM
      1 C11        -2.6660   -1.1020   -0.8550 c1        1 GS7      0.236000
      2 N2         -1.3200   -1.1340   -0.8700 n1        1 GS7     -0.285000
      3 C19        -3.3470   -1.1500    0.3520 c1        1 GS7     -0.245000
      4 C22        -2.6540   -1.2290    1.5170 c1        1 GS7      0.102000
      5 N5         -3.5710   -1.2750    2.5600 n1        1 GS7     -0.200000
      6 C21        -4.8200   -1.2230    2.0260 c1        1 GS7     -0.103000
      7 C20        -4.6940   -1.1460    0.6570 c1        1 GS7     -0.148000
      8 N6         -1.2910   -1.2610    1.4980 n1        1 GS7     -0.240000
      9 C10        -0.6220   -1.2140    0.3070 c1        1 GS7      0.185000
     10 N1          0.7840   -1.3190    0.0980 n3        1 GS7     -0.203000
     11 C9          1.6980   -0.7190    1.0350 c2        1 GS7      0.030000
     12 C2          2.4210    0.4170    0.6720 c2        1 GS7      0.054000
     13 O1          2.3010    0.9510   -0.6590 os        1 GS7     -0.226000
     14 C1          1.9310    2.3400   -0.6990 c3        1 GS7     -0.074000
     15 C8          1.8830   -1.2920    2.2950 c1        1 GS7     -0.078000
     16 C7          2.7930   -0.7270    3.1920 c1        1 GS7     -0.132000
     17 C4          3.5150    0.4060    2.8310 c1        1 GS7     -0.046000
     18 C3          3.3290    0.9800    1.5670 c1        1 GS7     -0.190000
     19 C5          4.4340    1.1030    3.8700 c3        1 GS7     -0.801000
     20 S           6.0500    0.3500    3.8350 s4        1 GS7      2.030800
     21 O2          5.9980   -1.0220    4.2760 o         1 GS7     -0.536400
     22 O3          6.5230    0.1910    2.4840 o         1 GS7     -0.536400
     23 C6          7.2070    1.3090    4.8230 c2        1 GS7     -0.947000
     24 O4         -1.4710   -2.0600   -4.3590 o         1 GS7     -0.385000
     25 C18        -2.5450   -1.6490   -4.7630 c1        1 GS7      0.346000
     26 N4         -3.3060   -2.4280   -5.6910 n2        1 GS7     -0.411000
     27 C17        -3.0490   -0.2880   -4.3240 c2        1 GS7     -0.209000
     28 C16        -3.1140    0.7500   -5.2360 c2        1 GS7      0.131000
     29 F          -2.8560    0.5210   -6.5310 f         1 GS7     -0.110000
     30 C15        -3.5080    2.0140   -4.8230 c1        1 GS7     -0.197000
     31 C14        -3.8390    2.2380   -3.4930 c1        1 GS7     -0.111000
     32 C13        -3.7750    1.1990   -2.5780 c1        1 GS7     -0.111000
     33 C12        -3.3800   -0.0660   -2.9920 c1        1 GS7      0.151000
     34 N3         -3.4170   -1.1640   -2.0720 n3        1 GS7     -0.242000
     35 HN5        -3.3710   -1.3290    3.4460 DU        1 GS7      0.197000
     36 H21        -5.6570   -1.1870    2.5290 DU        1 GS7      0.197000
     37 H20        -5.4280   -1.0970    0.0160 DU        1 GS7      0.197000
     38 HN1         1.1030   -1.7130   -0.6620 hn        1 GS7      0.238000
     39 H1          1.5960    2.5670   -1.6030 h1        1 GS7      0.089333
     40 H1A         2.7140    2.8940   -0.4930 h1        1 GS7      0.089333
     41 H1B         1.2260    2.5110   -0.0350 h1        1 GS7      0.089333
     42 H8          1.3720   -2.0930    2.5520 ha        1 GS7      0.161000
     43 H7          2.9240   -1.1300    4.0800 ha        1 GS7      0.136000
     44 H3          3.8340    1.7730    1.3130 ha        1 GS7      0.163000
     45 H5          4.5110    2.0480    3.6520 h1        1 GS7      0.154000
     46 H5A         4.0470    1.0050    4.7660 h1        1 GS7      0.154000
     47 H6          8.1300    0.9830    4.6600 ha        1 GS7      0.155000
     48 H6A         7.1460    2.2520    4.5710 ha        1 GS7      0.155000
     49 H6B         6.9870    1.2100    5.7730 ha        1 GS7      0.155000
     50 HN4        -4.1820   -2.2130   -5.8600 hn        1 GS7      0.227000
     51 HN4A       -2.9210   -3.1390   -6.1150 hn        1 GS7      0.227000
     52 H15        -3.5530    2.7460   -5.4680 ha        1 GS7      0.154000
     53 H14        -4.1150    3.1220   -3.2050 ha        1 GS7      0.156500
     54 H13        -4.0080    1.3560   -1.6440 ha        1 GS7      0.156500
     55 HN3        -3.9730   -1.8650   -2.2260 hn        1 GS7      0.255000
@<TRIPOS>BOND
     1    1    3 1   
     2    1   34 1   
     3    2    9 1   
     4    4    8 1   
     5    5    6 1   
     6    6    7 1   
     7    9   10 1   
     8   10   11 1   
     9   10   38 1   
    10   11   12 1   
    11   11   15 1   
    12   12   13 1   
    13   12   18 1   
    14   13   14 1   
    15   14   39 1   
    16   14   40 1   
    17   14   41 1   
    18   15   42 1   
    19   16   17 1   
    20   16   43 1   
    21   17   19 1   
    22   18   44 1   
    23   19   20 1   
    24   19   45 1   
    25   19   46 1   
    26   20   21 1   
    27   20   22 1   
    28   23   47 1   
    29   23   48 1   
    30   23   49 1   
    31   24   25 1   
    32   25   27 1   
    33   26   50 1   
    34   26   51 1   
    35   27   28 1   
    36   27   33 1   
    37   28   29 1   
    38   28   30 1   
    39   30   52 1   
    40   31   32 1   
    41   31   53 1   
    42   32   54 1   
    43   33   34 1   
    44   34   55 1   
@<TRIPOS>SUBSTRUCTURE
     1 GS7         1 TEMP              0 ****  ****    0 ROOT
