@<TRIPOS>MOLECULE
GS7
   55    58     1     0     0
SMALL
bcc


@<TRIPOS>ATOM
      1 C11        -2.4850    1.0550   -0.4630 ca        1 GS7      0.757200
      2 N2         -1.4950    0.2010   -0.1070 nb        1 GS7     -0.811000
      3 C19        -2.2050    2.4400   -0.6670 ca        1 GS7     -0.387400
      4 C22        -0.8230    2.8530   -0.4950 ca        1 GS7      0.493800
      5 N5         -0.7590    4.2250   -0.7510 na        1 GS7     -0.286100
      6 C21        -2.0510    4.6740   -1.0630 cc        1 GS7     -0.130100
      7 C20        -2.9530    3.6150   -1.0230 cd        1 GS7     -0.136200
      8 N6          0.1970    2.0140   -0.1460 nb        1 GS7     -0.766000
      9 C10        -0.2030    0.7150    0.0500 ca        1 GS7      0.903900
     10 N1          0.7470   -0.2280    0.5320 nh        1 GS7     -0.682300
     11 C9          2.1310   -0.0230    0.3180 ca        1 GS7      0.111600
     12 C2          2.9050   -0.9520   -0.4420 ca        1 GS7      0.099100
     13 O1          2.2000   -1.9920   -1.0220 os        1 GS7     -0.342900
     14 C1          2.9770   -3.0710   -1.5350 c3        1 GS7      0.115700
     15 C8          2.8100    1.0480    0.9240 ca        1 GS7     -0.078000
     16 C7          4.1870    1.2010    0.7760 ca        1 GS7     -0.132000
     17 C4          4.9300    0.2880    0.0280 ca        1 GS7     -0.053300
     18 C3          4.2830   -0.7930   -0.5830 ca        1 GS7     -0.190000
     19 C5          6.3910    0.4700   -0.1550 c3        1 GS7     -0.254300
     20 S           7.3380   -0.8220    0.4700 s6        1 GS7      1.334000
     21 O2          7.3050   -0.8360    1.8670 o         1 GS7     -0.648800
     22 O3          7.0400   -2.0100   -0.2110 o         1 GS7     -0.648800
     23 C6          8.8530   -0.2640   -0.0420 c3        1 GS7     -0.368300
     24 O4         -6.0300    1.3910    0.9420 o         1 GS7     -0.624100
     25 N4         -7.7710    0.3510   -0.0670 n         1 GS7     -0.651000
     26 C17        -5.6140   -0.8230    0.0940 ca        1 GS7     -0.229600
     27 C16        -6.0990   -2.1270    0.3360 ca        1 GS7      0.165900
     28 F          -7.3420   -2.3120    0.8490 f         1 GS7     -0.144900
     29 C15        -5.3130   -3.2570    0.0670 ca        1 GS7     -0.197000
     30 C14        -4.0430   -3.0820   -0.4710 ca        1 GS7     -0.068000
     31 C13        -3.5370   -1.8140   -0.7200 ca        1 GS7     -0.154000
     32 C12        -4.2930   -0.6570   -0.4100 ca        1 GS7      0.232600
     33 N3         -3.8050    0.6280   -0.6880 nh        1 GS7     -0.721300
     34 HN5         0.0550    4.7780   -0.7000 hn        1 GS7      0.309700
     35 H21        -2.2220    5.7270   -1.2920 h4        1 GS7      0.170000
     36 H20        -4.0210    3.6640   -1.2150 ha        1 GS7      0.161000
     37 HN1         0.4690   -1.1830    0.3900 hn        1 GS7      0.442800
     38 H1          3.5360   -2.7440   -2.4450 h1        1 GS7      0.050033
     39 H1A         3.6800   -3.4630   -0.7610 h1        1 GS7      0.050033
     40 H1B         2.2070   -3.8390   -1.8010 h1        1 GS7      0.050033
     41 H8          2.2520    1.7820    1.5290 ha        1 GS7      0.161000
     42 H7          4.6860    2.0510    1.2660 ha        1 GS7      0.136000
     43 H3          4.8750   -1.5190   -1.1660 ha        1 GS7      0.163000
     44 H5          6.5810    0.6020   -1.2570 h1        1 GS7      0.114700
     45 H5A         6.6960    1.4430    0.3180 h1        1 GS7      0.114700
     46 H6          9.0990    0.7600    0.3290 h1        1 GS7      0.115700
     47 H6A         9.6720   -0.9300    0.3330 h1        1 GS7      0.115700
     48 H6B         8.9610   -0.2390   -1.1530 h1        1 GS7      0.115700
     49 HN4        -8.3690    1.0950    0.1990 hn        1 GS7      0.313500
     50 HN4A       -8.1850   -0.4940   -0.3730 hn        1 GS7      0.313500
     51 H15        -5.7090   -4.2600    0.2800 ha        1 GS7      0.154000
     52 H14        -3.4260   -3.9650   -0.7050 ha        1 GS7      0.143000
     53 H13        -2.5350   -1.7240   -1.1670 ha        1 GS7      0.170000
     54 HN3        -4.4680    1.3750   -0.5690 hn        1 GS7      0.459800
     55 C18        -6.4710    0.3650    0.3760 c         1 GS7      0.672700
@<TRIPOS>BOND
     1    1    2 ar  
     2    1    3 ar  
     3    1   33 1   
     4    2    9 ar  
     5    3    4 ar  
     6    3    7 1   
     7    4    5 1   
     8    4    8 ar  
     9    5    6 1   
    10    5   34 1   
    11    6    7 2   
    12    6   35 1   
    13    7   36 1   
    14    8    9 ar  
    15    9   10 1   
    16   10   11 1   
    17   10   37 1   
    18   11   12 ar  
    19   11   15 ar  
    20   12   13 1   
    21   12   18 ar  
    22   13   14 1   
    23   14   38 1   
    24   14   39 1   
    25   14   40 1   
    26   15   16 ar  
    27   15   41 1   
    28   16   17 ar  
    29   16   42 1   
    30   17   18 ar  
    31   17   19 1   
    32   18   43 1   
    33   19   20 1   
    34   19   44 1   
    35   19   45 1   
    36   20   21 2   
    37   20   22 2   
    38   20   23 1   
    39   23   46 1   
    40   23   47 1   
    41   23   48 1   
    42   24   55 2   
    43   25   49 1   
    44   25   50 1   
    45   25   55 1   
    46   26   27 ar  
    47   26   32 ar  
    48   26   55 1   
    49   27   28 1   
    50   27   29 ar  
    51   29   30 ar  
    52   29   51 1   
    53   30   31 ar  
    54   30   52 1   
    55   31   32 ar  
    56   31   53 1   
    57   32   33 1   
    58   33   54 1   
@<TRIPOS>SUBSTRUCTURE
     1 GS7         1 TEMP              0 ****  ****    0 ROOT
