@<TRIPOS>MOLECULE
GS8
   39    38     1     0     0
SMALL
bcc


@<TRIPOS>ATOM
      1 CB1         0.5870   -0.5550    1.9680 c3        1 GS8     -0.080400
      2 CG1        -0.4480   -1.6460    1.7480 c3        1 GS8     -0.119400
      3 CD1        -1.7450   -1.0650    1.2450 c         1 GS8      0.614100
      4 OE1        -2.2280    0.0210    1.5350 o         1 GS8     -0.461100
      5 C1          0.5450    0.1030   -0.5420 c         1 GS8      0.957600
      6 O11        -0.4890   -0.5860   -0.7270 o         1 GS8     -0.775800
      7 O12         0.9850    1.0480   -1.2260 o         1 GS8     -0.775800
      8 N1          2.4890    0.7110    0.9340 n4        1 GS8     -0.830600
      9 CA1         1.4290   -0.3230    0.7180 c3        1 GS8     -0.067500
     10 N2         -2.5500   -1.9560    0.3280 n4        1 GS8     -0.662800
     11 CA2        -4.0290   -1.8080    0.4850 c3        1 GS8      0.048500
     12 CB2        -4.8020   -2.4080   -0.6980 c3        1 GS8     -0.136300
     13 SG2        -3.9110   -2.4890   -2.2040 ss        1 GS8      0.093700
     14 O13        -2.9820   -3.8770   -1.8710 oh        1 GS8     -0.559800
     15 C2         -4.5150   -2.5030    1.7800 c         1 GS8      0.647100
     16 O2         -3.7200   -3.1580    2.4800 o         1 GS8     -0.588100
     17 N3         -5.8430   -2.3150    2.1190 n         1 GS8     -0.495900
     18 CA3        -6.5050   -3.2910    2.9440 c3        1 GS8     -0.026000
     19 C3         -6.9710   -4.5150    2.1680 c         1 GS8      0.600100
     20 O32        -6.7570   -4.7340    0.9740 o         1 GS8     -0.509000
     21 O31        -7.6830   -5.4760    2.8070 oh        1 GS8     -0.542100
     22 HA31       -5.7990   -3.6330    3.7570 h1        1 GS8      0.111200
     23 HA32       -7.4010   -2.7970    3.4210 h1        1 GS8      0.111200
     24 H3         -7.8050   -5.2440    3.7400 ho        1 GS8      0.439000
     25 HA2        -4.2370   -0.6940    0.5570 hx        1 GS8      0.146700
     26 HB21       -5.6970   -1.7600   -0.8960 h1        1 GS8      0.129700
     27 HB22       -5.1860   -3.4300   -0.4250 h1        1 GS8      0.129700
     28 H2         -2.2890   -2.9360    0.4860 hn        1 GS8      0.496300
     29 H13        -3.3100   -4.5940   -2.4260 ho        1 GS8      0.453000
     30 HG11       -0.6790   -2.1550    2.7270 hc        1 GS8      0.104200
     31 HG12       -0.0470   -2.4140    1.0330 hc        1 GS8      0.104200
     32 HB11        1.2480   -0.8750    2.8190 hc        1 GS8      0.073700
     33 HB12        0.0720    0.3970    2.2730 hc        1 GS8      0.073700
     34 HA1         1.9490   -1.2790    0.4200 hx        1 GS8      0.102700
     35 H11N        2.2000    1.3750    1.6540 hn        1 GS8      0.459133
     36 H12N        3.3760    0.2870    1.1940 hn        1 GS8      0.459133
     37 H131        2.5880    1.2280    0.0310 hn        1 GS8      0.459133
     38 H22        -2.2950   -1.7010   -0.6630 hn        1 GS8      0.496300
     39 H32        -6.4230   -1.8760    1.4350 hn        1 GS8      0.320500
@<TRIPOS>BOND
     1    1    2 1   
     2    1    9 1   
     3    1   32 1   
     4    1   33 1   
     5    2    3 1   
     6    2   30 1   
     7    2   31 1   
     8    3    4 2   
     9    3   10 1   
    10    5    6 1   
    11    5    7 1   
    12    5    9 1   
    13    8    9 1   
    14    8   35 1   
    15    8   36 1   
    16    8   37 1   
    17    9   34 1   
    18   10   11 1   
    19   10   28 1   
    20   10   38 1   
    21   11   12 1   
    22   11   15 1   
    23   11   25 1   
    24   12   13 1   
    25   12   26 1   
    26   12   27 1   
    27   13   14 1   
    28   14   29 1   
    29   15   16 2   
    30   15   17 1   
    31   17   18 1   
    32   17   39 1   
    33   18   19 1   
    34   18   22 1   
    35   18   23 1   
    36   19   20 2   
    37   19   21 1   
    38   21   24 1   
@<TRIPOS>SUBSTRUCTURE
     1 GS8         1 TEMP              0 ****  ****    0 ROOT
