@<TRIPOS>MOLECULE
GS8
   39    38     1     0     0
SMALL
bcc


@<TRIPOS>ATOM
      1 CB1         0.6750   -0.7010    1.8630 c3        1 GS8     -0.080400
      2 CG1        -0.3730   -1.7510    1.5350 c3        1 GS8     -0.119400
      3 CD1        -1.7230   -1.1170    1.3190 c         1 GS8      0.614100
      4 OE1        -2.1750   -0.1330    1.8880 o         1 GS8     -0.461100
      5 C1          0.3320    0.4720   -0.4260 c         1 GS8      0.957600
      6 O11        -0.7120   -0.1930   -0.6350 o         1 GS8     -0.775800
      7 O12         0.6830    1.5550   -0.9380 o         1 GS8     -0.775800
      8 N1          2.4340    0.8130    0.9130 nz        1 GS8     -0.830600
      9 CA1         1.3620   -0.1840    0.6040 c3        1 GS8     -0.067500
     10 N2         -2.6270   -1.8170    0.3310 ny        1 GS8     -0.662800
     11 CA2        -4.0770   -1.7510    0.6840 c3        1 GS8      0.048500
     12 CB2        -4.9810   -2.1110   -0.5040 c3        1 GS8     -0.136300
     13 SG2        -4.2740   -1.8440   -2.0840 ss        1 GS8      0.093700
     14 O13        -3.3040   -3.2420   -2.1640 oh        1 GS8     -0.559800
     15 C2         -4.4030   -2.7200    1.8470 c         1 GS8      0.647100
     16 O2         -3.5270   -3.4830    2.2960 o         1 GS8     -0.588100
     17 N3         -5.6820   -2.6480    2.3680 ns        1 GS8     -0.495900
     18 CA3        -6.2380   -3.7970    3.0350 c3        1 GS8     -0.026000
     19 C3         -6.7850   -4.8420    2.0740 c         1 GS8      0.600100
     20 O32        -6.7120   -4.7970    0.8440 o         1 GS8     -0.509000
     21 O31        -7.4110   -5.9390    2.5680 oh        1 GS8     -0.542100
     22 HA31       -5.4390   -4.2820    3.6700 h1        1 GS8      0.111200
     23 HA32       -7.0740   -3.4430    3.7050 h1        1 GS8      0.111200
     24 H3         -6.3430   -2.0930    1.8650 hn        1 GS8      0.320500
     25 HA2        -4.2820   -0.6850    1.0150 hx        1 GS8      0.146700
     26 HB21       -5.3250   -3.1790   -0.4140 h1        1 GS8      0.129700
     27 HB22       -5.8970   -1.4630   -0.4550 h1        1 GS8      0.129700
     28 H2         -2.3440   -2.8010    0.2440 hn        1 GS8      0.496300
     29 H13        -3.6910   -3.8350   -2.8180 ho        1 GS8      0.453000
     30 HG11       -0.4840   -2.4630    2.4010 hc        1 GS8      0.104200
     31 HG12       -0.0550   -2.3380    0.6310 hc        1 GS8      0.104200
     32 HB11        0.1950    0.1490    2.4210 hc        1 GS8      0.073700
     33 HB12        1.4340   -1.1740    2.5440 hc        1 GS8      0.073700
     34 HA1         1.8470   -1.0390    0.0510 hx        1 GS8      0.102700
     35 H11N        2.4230    1.5130    0.1370 hn        1 GS8      0.459133
     36 H12N        3.3490    0.3710    0.9730 hn        1 GS8      0.459133
     37 H131        2.2300    1.3000    1.7870 hn        1 GS8      0.459133
     38 H22        -2.4920   -1.3510   -0.6050 hn        1 GS8      0.496300
     39 H32        -7.4230   -5.9130    3.5370 ho        1 GS8      0.439000
@<TRIPOS>BOND
     1    1    2 1   
     2    1    9 1   
     3    1   32 1   
     4    1   33 1   
     5    2    3 1   
     6    2   30 1   
     7    2   31 1   
     8    3    4 2   
     9    3   10 1   
    10    5    6 1   
    11    5    7 1   
    12    5    9 1   
    13    8    9 1   
    14    8   35 1   
    15    8   36 1   
    16    8   37 1   
    17    9   34 1   
    18   10   11 1   
    19   10   28 1   
    20   10   38 1   
    21   11   12 1   
    22   11   15 1   
    23   11   25 1   
    24   12   13 1   
    25   12   26 1   
    26   12   27 1   
    27   13   14 1   
    28   14   29 1   
    29   15   16 2   
    30   15   17 1   
    31   17   18 1   
    32   17   24 1   
    33   18   19 1   
    34   18   22 1   
    35   18   23 1   
    36   19   20 2   
    37   19   21 1   
    38   21   39 1   
@<TRIPOS>SUBSTRUCTURE
     1 GS8         1 TEMP              0 ****  ****    0 ROOT
