@<TRIPOS>MOLECULE
GS9
   40    38     1     0     0
SMALL
bcc


@<TRIPOS>ATOM
      1 C1          0.3850   -0.7330    1.0220 c3        1 GS9     -0.101000
      2 O5          1.8410   -0.7570    0.9950 os        1 GS9     -0.280000
      3 S1         -0.2130   -0.9540   -0.6070 ss        1 GS9      0.276000
      4 C2         -0.2050   -1.8250    1.9180 c3        1 GS9     -0.010000
      5 O2         -1.6150   -1.6170    2.0310 oh        1 GS9     -0.311000
      6 C3          0.3870   -1.8210    3.2680 c3        1 GS9     -0.038000
      7 O3         -0.0940   -3.0070    4.0040 oh        1 GS9     -0.322000
      8 C4          1.8550   -1.8480    3.2300 c3        1 GS9     -0.023000
      9 O4          2.2840   -3.1280    2.7400 oh        1 GS9     -0.322000
     10 C5          2.4340   -0.7520    2.3230 c3        1 GS9     -0.058000
     11 C80        -0.2580    1.9600   -1.1870 c1        1 GS9     -0.126000
     12 O6          4.5390    0.2860    2.0270 oh        1 GS9     -0.321000
     13 C6          3.8970   -0.9600    2.1910 c3        1 GS9     -0.008000
     14 C90        -0.7670    2.9120   -2.0610 c1        1 GS9     -0.111500
     15 C7         -0.6470    0.6300   -1.3010 c2        1 GS9     -0.242000
     16 C8         -1.5470    0.2500   -2.2920 c2        1 GS9     -0.095000
     17 C9         -2.0660    1.2150   -3.1820 c1        1 GS9     -0.031000
     18 C14        -1.6820    2.5290   -3.0690 c1        1 GS9     -0.036000
     19 C13        -2.2560    3.5080   -3.9130 c1        1 GS9     -0.111500
     20 C12        -3.2090    3.1400   -4.8590 c1        1 GS9     -0.125000
     21 C11        -3.6000    1.8060   -4.9740 c1        1 GS9     -0.125000
     22 C10        -3.0370    0.8420   -4.1440 c1        1 GS9     -0.116000
     23 H1          0.0870    0.1460    1.3530 h2        1 GS9      0.128000
     24 H2         -0.0440   -2.7000    1.5020 h1        1 GS9      0.096000
     25 H5          2.2740    0.1210    2.7380 h1        1 GS9      0.107000
     26 HA         -2.0450   -2.3220    1.7090 ho        1 GS9      0.223000
     27 H3          0.0970   -1.0170    3.7380 h1        1 GS9      0.134000
     28 H4          2.1990   -1.7230    4.1370 h1        1 GS9      0.138000
     29 HB          2.4380   -3.6840    3.4400 ho        1 GS9      0.216000
     30 H80         0.4010    2.2240   -0.5000 ha        1 GS9      0.142000
     31 H90        -0.4950    3.8380   -1.9800 ha        1 GS9      0.135500
     32 H61C        4.2360   -1.3980    2.9930 h1        1 GS9      0.101500
     33 H62C        4.0760   -1.5260    1.4080 h1        1 GS9      0.101500
     34 HC          5.4180    0.1640    1.9970 ho        1 GS9      0.213000
     35 H8         -1.7580   -0.6850   -2.4170 ha        1 GS9      0.144000
     36 H10        -3.3080   -0.0870   -4.2250 ha        1 GS9      0.135000
     37 H11        -4.2740    1.5470   -5.6430 ha        1 GS9      0.133000
     38 H12        -3.6040    3.8160   -5.4410 ha        1 GS9      0.133000
     39 HD         -0.1390   -2.8190    4.8650 ho        1 GS9      0.220000
     40 H13        -1.9860    4.4320   -3.8350 ha        1 GS9      0.135500
@<TRIPOS>BOND
     1    1    2 1   
     2    1    3 1   
     3    1    4 1   
     4    1   23 1   
     5    2   10 1   
     6    3   15 1   
     7    4    5 1   
     8    4    6 1   
     9    4   24 1   
    10    5   26 1   
    11    6    7 1   
    12    6    8 1   
    13    6   27 1   
    14    7   39 1   
    15    8    9 1   
    16    8   10 1   
    17    8   28 1   
    18    9   29 1   
    19   10   13 1   
    20   10   25 1   
    21   11   15 1   
    22   11   30 1   
    23   12   13 1   
    24   12   34 1   
    25   13   32 1   
    26   13   33 1   
    27   14   18 1   
    28   14   31 1   
    29   15   16 1   
    30   16   17 1   
    31   16   35 1   
    32   17   22 1   
    33   18   19 1   
    34   19   40 1   
    35   20   21 1   
    36   20   38 1   
    37   21   37 1   
    38   22   36 1   
@<TRIPOS>SUBSTRUCTURE
     1 GS9         1 TEMP              0 ****  ****    0 ROOT
