@<TRIPOS>MOLECULE
GS9
   40    42     1     0     0
SMALL
bcc


@<TRIPOS>ATOM
      1 C1         -1.3690    0.3400    0.0400 c3        1 GS9      0.170200
      2 O5         -1.6890   -0.9720   -0.3960 os        1 GS9     -0.398600
      3 S1         -0.1170    0.9500   -1.0780 ss        1 GS9     -0.175000
      4 C2         -2.5830    1.2690   -0.0610 c3        1 GS9      0.091100
      5 O2         -2.3310    2.5360    0.5230 oh        1 GS9     -0.605800
      6 C3         -3.7580    0.6750    0.7380 c3        1 GS9      0.114100
      7 O3         -4.9420    1.4180    0.5070 oh        1 GS9     -0.606800
      8 C4         -4.0470   -0.7640    0.2790 c3        1 GS9      0.127100
      9 O4         -4.5480   -0.8010   -1.0450 oh        1 GS9     -0.590800
     10 C5         -2.7530   -1.5860    0.3350 c3        1 GS9      0.093100
     11 C80         1.4480   -0.9160    0.1830 ca        1 GS9     -0.122000
     12 C6         -2.9360   -2.9660   -0.3040 c3        1 GS9      0.144400
     13 C90         2.6630   -1.3850    0.6130 ca        1 GS9     -0.107000
     14 C7          1.3480    0.3480   -0.4570 ca        1 GS9     -0.014100
     15 C8          2.4810    1.1080   -0.6520 ca        1 GS9     -0.093000
     16 C9          3.7530    0.6360   -0.2330 ca        1 GS9     -0.034000
     17 C14         3.8470   -0.6230    0.4140 ca        1 GS9     -0.033000
     18 C13         5.1200   -1.0890    0.8420 ca        1 GS9     -0.117000
     19 C12         6.2450   -0.3300    0.6320 ca        1 GS9     -0.124000
     20 C11         6.1520    0.9260   -0.0140 ca        1 GS9     -0.125000
     21 C10         4.9350    1.4000   -0.4380 ca        1 GS9     -0.116000
     22 H1         -0.9850    0.3090    1.0940 h2        1 GS9      0.075700
     23 H2         -2.8860    1.3890   -1.1390 h1        1 GS9      0.081700
     24 H5         -2.4390   -1.6880    1.4120 h1        1 GS9      0.053700
     25 HA         -1.5560    2.9040    0.0770 ho        1 GS9      0.425000
     26 H3         -3.5090    0.6890    1.8350 h1        1 GS9      0.059700
     27 H4         -4.8090   -1.2200    0.9730 h1        1 GS9      0.057700
     28 HB         -5.2640   -0.1530   -1.0890 ho        1 GS9      0.425000
     29 H90         2.7420   -2.3640    1.1100 ha        1 GS9      0.138000
     30 H61C       -3.7210   -3.5380    0.2550 h1        1 GS9      0.068200
     31 H62C       -3.2320   -2.8470   -1.3800 h1        1 GS9      0.068200
     32 HC         -1.0720   -3.2760   -0.6930 ho        1 GS9      0.413000
     33 H8          2.4190    2.0930   -1.1410 ha        1 GS9      0.142000
     34 H10         4.8520    2.3750   -0.9420 ha        1 GS9      0.134000
     35 H11         7.0680    1.5140   -0.1720 ha        1 GS9      0.134000
     36 H12         7.2320   -0.6890    0.9620 ha        1 GS9      0.134000
     37 HD         -4.7280    2.3440    0.6830 ho        1 GS9      0.431000
     38 H13         5.1830   -2.0670    1.3430 ha        1 GS9      0.135000
     39 O6         -1.7560   -3.7320   -0.1850 oh        1 GS9     -0.600800
     40 H80         0.5340   -1.5190    0.3140 ha        1 GS9      0.148000
@<TRIPOS>BOND
     1    1    2 1   
     2    1    3 1   
     3    1    4 1   
     4    1   22 1   
     5    2   10 1   
     6    3   14 1   
     7    4    5 1   
     8    4    6 1   
     9    4   23 1   
    10    5   25 1   
    11    6    7 1   
    12    6    8 1   
    13    6   26 1   
    14    7   37 1   
    15    8    9 1   
    16    8   10 1   
    17    8   27 1   
    18    9   28 1   
    19   10   12 1   
    20   10   24 1   
    21   11   13 ar  
    22   11   14 ar  
    23   11   40 1   
    24   12   30 1   
    25   12   31 1   
    26   12   39 1   
    27   13   17 ar  
    28   13   29 1   
    29   14   15 ar  
    30   15   16 ar  
    31   15   33 1   
    32   16   17 ar  
    33   16   21 ar  
    34   17   18 ar  
    35   18   19 ar  
    36   18   38 1   
    37   19   20 ar  
    38   19   36 1   
    39   20   21 ar  
    40   20   35 1   
    41   21   34 1   
    42   32   39 1   
@<TRIPOS>SUBSTRUCTURE
     1 GS9         1 TEMP              0 ****  ****    0 ROOT
