@<TRIPOS>MOLECULE
GS9
   40    39     1     0     0
SMALL
bcc


@<TRIPOS>ATOM
      1 C1          0.0100    1.2360    0.3900 c3        1 GS9     -0.167000
      2 O5          1.4180    1.1350    0.3700 oh        1 GS9     -0.334000
      3 S1         -0.5050    2.4480   -0.8290 ss        1 GS9      0.012000
      4 C2         -0.6270   -0.1180    0.2810 c1        1 GS9      0.004000
      5 O2         -1.7110   -0.2980   -0.3770 oh        1 GS9     -0.130000
      6 C3          0.1490   -2.5580    2.5420 c3        1 GS9     -0.060000
      7 O3         -0.4860   -3.5800    3.2810 oh        1 GS9     -0.328000
      8 C4          1.4400   -3.0860    1.8850 c3        1 GS9      0.100000
      9 O4          1.8630   -4.2740    2.5360 oh        1 GS9     -0.316000
     10 C5          2.4590   -2.0630    1.8580 c1        1 GS9     -0.218000
     11 C80         1.7660    3.3490   -1.9620 c2        1 GS9     -0.157000
     12 C6          3.2890   -1.2020    1.8010 c1        1 GS9     -0.189000
     13 C90         1.7650    4.5180   -2.6130 c2        1 GS9     -0.131000
     14 C7          0.7060    2.3320   -2.1610 c3        1 GS9     -0.114000
     15 C8         -0.0320    2.4960   -3.4330 c2        1 GS9     -0.156000
     16 C9         -0.0400    3.6450   -4.1380 c2        1 GS9     -0.057000
     17 C14         0.6410    4.8920   -3.5070 c3        1 GS9      0.088000
     18 C13         0.9240    5.7050   -4.6700 c1        1 GS9     -0.159000
     19 C12         0.5080    5.6340   -5.8190 c1        1 GS9     -0.152000
     20 C11        -0.3180    4.6500   -6.4210 c2        1 GS9      0.003000
     21 C10        -0.6070    3.6810   -5.4980 c2        1 GS9     -0.146000
     22 H1          1.6740    0.3320    0.8580 ho        1 GS9      0.245000
     23 H2         -0.3230    1.6720    1.3790 h2        1 GS9      0.141000
     24 H5          1.2250   -3.4290    0.8280 h1        1 GS9      0.129000
     25 HA         -2.0620    0.4990   -0.8550 ho        1 GS9      0.195000
     26 H3         -0.5370   -2.1450    1.7530 h1        1 GS9      0.105500
     27 H4          0.3720   -1.7600    3.2990 h1        1 GS9      0.105500
     28 HB          1.9340   -4.0790    3.4800 ho        1 GS9      0.213000
     29 H90         2.5610    5.2670   -2.4900 ha        1 GS9      0.153000
     30 H61C        3.2190    2.2300    1.0090 ho        1 GS9      0.203000
     31 H62C        4.0140   -0.4220    1.7380 ha        1 GS9      0.248000
     32 HC          3.5660    1.3870   -0.2010 ho        1 GS9      0.203000
     33 H8          1.1640    1.3060   -2.1150 h1        1 GS9      0.136000
     34 H10        -0.5450    1.5950   -3.8050 ha        1 GS9      0.139000
     35 H11        -1.2620    2.8390   -5.7690 ha        1 GS9      0.146000
     36 H12        -0.6810    4.6810   -7.4520 ha        1 GS9      0.160000
     37 HD         -0.5270   -4.3640    2.7180 ho        1 GS9      0.209000
     38 H13        -0.1360    5.4230   -2.8720 hc        1 GS9      0.140000
     39 O6          3.8550    1.5770    0.6970 oh        1 GS9     -0.404000
     40 H80         2.5540    3.0780   -1.2410 ha        1 GS9      0.140000
@<TRIPOS>BOND
     1    1    2 1   
     2    1    3 1   
     3    1    4 1   
     4    1   23 1   
     5    2   22 1   
     6    3   14 1   
     7    4    5 1   
     8    5   25 1   
     9    6    7 1   
    10    6    8 1   
    11    6   26 1   
    12    6   27 1   
    13    7   37 1   
    14    8    9 1   
    15    8   10 1   
    16    8   24 1   
    17    9   28 1   
    18   10   12 1   
    19   11   13 1   
    20   11   14 1   
    21   11   40 1   
    22   12   31 1   
    23   13   17 1   
    24   13   29 1   
    25   14   15 1   
    26   14   33 1   
    27   15   16 1   
    28   15   34 1   
    29   16   17 1   
    30   16   21 1   
    31   17   18 1   
    32   17   38 1   
    33   18   19 1   
    34   19   20 1   
    35   20   21 1   
    36   20   36 1   
    37   21   35 1   
    38   30   39 1   
    39   32   39 1   
@<TRIPOS>SUBSTRUCTURE
     1 GS9         1 TEMP              0 ****  ****    0 ROOT
