@<TRIPOS>MOLECULE
GSA
   27    27     1     0     0
SMALL
bcc


@<TRIPOS>ATOM
      1 C1          0.2790   -0.0320   -2.6560 c3        1 GSA      0.316900
      2 C2         -1.1090   -0.0280   -1.9820 c3        1 GSA      0.063100
      3 C3         -1.1790    1.0610   -0.9020 c3        1 GSA      0.140100
      4 C4         -0.0160    0.8230    0.0900 c3        1 GSA      0.167100
      5 C5          1.3110    0.8630   -0.6840 c3        1 GSA      0.104100
      6 C6          2.4890    0.5120    0.2280 c3        1 GSA      0.131400
      7 O1          0.4660   -1.2020   -3.4160 oh        1 GSA     -0.621800
      8 O2         -2.0860    0.2570   -2.9700 oh        1 GSA     -0.588800
      9 O3         -2.4280    1.0640   -0.2530 oh        1 GSA     -0.602800
     10 O4         -0.1860   -0.4030    0.7130 os        1 GSA     -0.612500
     11 O5          1.3660   -0.0900   -1.7500 os        1 GSA     -0.458600
     12 O6          3.7230    0.6990   -0.4380 oh        1 GSA     -0.619800
     13 S          -0.5230   -0.5500    2.4200 s6        1 GSA      1.703300
     14 O1S        -0.0710   -1.8320    2.6890 o         1 GSA     -0.745200
     15 O2S         0.2300    0.5030    2.9320 o         1 GSA     -0.745200
     16 O3S        -1.9020   -0.3580    2.3850 o         1 GSA     -0.745200
     17 H1          0.3910    0.8330   -3.3680 h2        1 GSA      0.063700
     18 H2         -1.3070   -1.0290   -1.5080 h1        1 GSA      0.073700
     19 H3         -1.0950    2.0760   -1.3780 h1        1 GSA      0.059700
     20 H4         -0.0090    1.6570    0.8530 h1        1 GSA      0.063700
     21 H5          1.4500    1.8880   -1.1290 h1        1 GSA      0.033700
     22 H61         2.3860   -0.5480    0.5810 h1        1 GSA      0.075700
     23 H62         2.5070    1.2080    1.1080 h1        1 GSA      0.075700
     24 HO1         0.6660   -1.9200   -2.7980 ho        1 GSA      0.424000
     25 HO2        -2.0340   -0.4660   -3.6080 ho        1 GSA      0.394000
     26 HO3        -2.4240    0.3520    0.4110 ho        1 GSA      0.446000
     27 HO6         3.7040    0.1310   -1.2180 ho        1 GSA      0.403000
@<TRIPOS>BOND
     1    1    2 1   
     2    1    7 1   
     3    1   11 1   
     4    1   17 1   
     5    2    3 1   
     6    2    8 1   
     7    2   18 1   
     8    3    4 1   
     9    3    9 1   
    10    3   19 1   
    11    4    5 1   
    12    4   10 1   
    13    4   20 1   
    14    5    6 1   
    15    5   11 1   
    16    5   21 1   
    17    6   12 1   
    18    6   22 1   
    19    6   23 1   
    20    7   24 1   
    21    8   25 1   
    22    9   26 1   
    23   10   13 1   
    24   12   27 1   
    25   13   14 1   
    26   13   15 1   
    27   13   16 1   
@<TRIPOS>SUBSTRUCTURE
     1 GSA         1 TEMP              0 ****  ****    0 ROOT
