@<TRIPOS>MOLECULE
GSA
   27    26     1     0     0
SMALL
bcc


@<TRIPOS>ATOM
      1 C1         -0.9900    0.4270   -1.8560 c3        1 GSA      0.304900
      2 C2          0.5090    0.3820   -1.8590 c3        1 GSA      0.090100
      3 C3          1.0760    0.3720   -0.4840 c3        1 GSA      0.088100
      4 C4          0.4640   -0.7000    0.3780 c3        1 GSA      0.169100
      5 C5         -1.0390   -0.6520    0.3700 c3        1 GSA      0.083100
      6 C6         -1.4920    0.5970    1.1040 c3        1 GSA      0.119400
      7 O1         -1.4010    1.6660   -1.3990 oh        1 GSA     -0.632800
      8 O2          0.9400   -0.8080   -2.5500 oh        1 GSA     -0.593800
      9 O3          0.8400    1.6590    0.1280 oh        1 GSA     -0.634800
     10 O4          0.9250   -0.5320    1.7220 os        1 GSA     -0.611600
     11 O5         -1.5950   -0.6370   -0.9900 os        1 GSA     -0.452600
     12 O6         -2.9050    0.6670    1.0920 oh        1 GSA     -0.621800
     13 S           1.7720   -1.6570    2.2780 s4        1 GSA      1.885600
     14 O1S         3.1050   -1.7300    1.5850 o         1 GSA     -0.677900
     15 O2S         2.1970   -1.3740    3.7050 o         1 GSA     -0.677900
     16 O3S         1.0260   -2.9760    2.1760 os        1 GSA     -1.059000
     17 H1         -1.3140    0.3050   -2.7840 h2        1 GSA      0.096700
     18 H2          0.8550    1.1800   -2.3450 h1        1 GSA      0.090700
     19 H3          2.0390    0.2210   -0.5410 h1        1 GSA      0.063700
     20 H4          0.7540   -1.5740    0.0510 h1        1 GSA      0.061700
     21 H5         -1.3860   -1.4440    0.8470 h1        1 GSA      0.085700
     22 H61        -1.1720    0.5640    2.0370 h1        1 GSA      0.057200
     23 H62        -1.1250    1.3820    0.6640 h1        1 GSA      0.057200
     24 HO1        -1.9010    2.0550   -2.0140 ho        1 GSA      0.433000
     25 HO2         1.4170   -0.5720   -3.2950 ho        1 GSA      0.414000
     26 HO3         1.5960    2.1290    0.1290 ho        1 GSA      0.448000
     27 HO6        -3.1940    1.0500    1.8540 ho        1 GSA      0.414000
@<TRIPOS>BOND
     1    1    2 1   
     2    1    7 1   
     3    1   11 1   
     4    1   17 1   
     5    2    3 1   
     6    2    8 1   
     7    2   18 1   
     8    3    4 1   
     9    3    9 1   
    10    3   19 1   
    11    4    5 1   
    12    4   10 1   
    13    4   20 1   
    14    5    6 1   
    15    5   11 1   
    16    5   21 1   
    17    6   12 1   
    18    6   22 1   
    19    6   23 1   
    20    7   24 1   
    21    8   25 1   
    22    9   26 1   
    23   10   13 1   
    24   12   27 1   
    25   13   14 1   
    26   13   15 1   
@<TRIPOS>SUBSTRUCTURE
     1 GSA         1 TEMP              0 ****  ****    0 ROOT
