@<TRIPOS>MOLECULE
GSB
   51    51     1     0     0
SMALL
bcc


@<TRIPOS>ATOM
      1 N1          2.2720   -0.2390    0.1540 nz        1 GSB     -0.831600
      2 CA1         2.3540    0.2530   -1.2580 c3        1 GSB     -0.061500
      3 C1          3.1640    1.6250   -1.2760 c         1 GSB      0.954600
      4 O11         3.7300    1.9470   -0.2120 o         1 GSB     -0.779800
      5 O12         3.1820    2.2330   -2.3770 o         1 GSB     -0.779800
      6 CB1         0.9750    0.3800   -1.8970 c3        1 GSB     -0.081400
      7 CG1         1.0670    0.7390   -3.3690 c3        1 GSB     -0.122400
      8 CD1         1.1330    2.2300   -3.5530 c         1 GSB      0.648100
      9 OE1         0.5050    3.0840   -2.9360 o         1 GSB     -0.500100
     10 N2          2.0060    2.7200   -4.6900 ny        1 GSB     -0.673800
     11 CA2         2.3010    4.1840   -4.6650 c3        1 GSB      0.093500
     12 C2          1.1380    5.1040   -4.2700 c         1 GSB      0.539100
     13 O2          1.1140    5.7530   -3.2350 o         1 GSB     -0.380100
     14 N3          0.0260    5.3680   -5.2400 ny        1 GSB     -0.654800
     15 CA3        -1.0510    4.3320   -5.1970 c3        1 GSB     -0.040200
     16 C3         -0.5500    3.0580   -5.9360 c         1 GSB      0.900600
     17 O31         0.2240    3.2570   -6.9220 o         1 GSB     -0.800300
     18 O32        -0.7860    1.9480   -5.4090 o         1 GSB     -0.800300
     19 CB2         2.9010    4.6510   -5.9920 c3        1 GSB     -0.098300
     20 SG2         4.4950    3.9460   -6.2140 ss        1 GSB     -0.228200
     21 C'          4.3240    2.8520   -7.6020 c3        1 GSB      0.021000
     22 C1'         3.8580    1.4960   -7.2440 ca        1 GSB     -0.125300
     23 C2'         2.5180    1.1320   -7.4320 ca        1 GSB     -0.138000
     24 C3'         2.1000   -0.1690   -7.1520 ca        1 GSB     -0.128000
     25 C4'         3.0130   -1.1140   -6.6820 ca        1 GSB     -0.130000
     26 C5'         4.3470   -0.7550   -6.4890 ca        1 GSB     -0.128000
     27 C6'         4.7710    0.5430   -6.7690 ca        1 GSB     -0.138000
     28 HN11        3.0310    0.2450    0.6860 hn        1 GSB      0.459133
     29 HN12        1.3750    0.0170    0.5700 hn        1 GSB      0.459133
     30 HA1         2.9800   -0.4860   -1.8340 hx        1 GSB      0.100700
     31 HB11        0.4250   -0.5980   -1.8210 hc        1 GSB      0.076200
     32 HB12        0.3680    1.1590   -1.3580 hc        1 GSB      0.076200
     33 HG11        0.1260    0.4100   -3.9080 hc        1 GSB      0.120700
     34 HG12        1.9430    0.2230   -3.8430 hc        1 GSB      0.120700
     35 HN2         2.9300    2.2510   -4.5840 hn        1 GSB      0.506300
     36 HA2         3.0640    4.3200   -3.8170 hx        1 GSB      0.189700
     37 HN3        -0.3790    6.2900   -5.0380 hn        1 GSB      0.468800
     38 HA31       -1.9560    4.7370   -5.7260 hx        1 GSB      0.120200
     39 HA32       -1.3030    4.0950   -4.1280 hx        1 GSB      0.120200
     40 HB21        2.2250    4.4090   -6.8570 h1        1 GSB      0.117700
     41 HB22        3.0380    5.7620   -5.9410 h1        1 GSB      0.117700
     42 H'1         5.3670    2.8090   -8.0200 h1        1 GSB      0.105200
     43 H'2         3.6630    3.3060   -8.3830 h1        1 GSB      0.105200
     44 H2'         1.7880    1.8590   -7.8340 ha        1 GSB      0.160500
     45 H3'         1.0480   -0.4490   -7.3230 ha        1 GSB      0.151500
     46 H4'         2.6860   -2.1460   -6.4870 ha        1 GSB      0.143000
     47 H5'         5.0740   -1.5010   -6.1340 ha        1 GSB      0.151500
     48 H6'         5.8280    0.8170   -6.6310 ha        1 GSB      0.160500
     49 H13         2.3970   -1.2470    0.2050 hn        1 GSB      0.459133
     50 H22         1.5980    2.4270   -5.6040 hn        1 GSB      0.506300
     51 H32         0.4060    5.3510   -6.2060 hn        1 GSB      0.468800
@<TRIPOS>BOND
     1    1    2 1   
     2    1   28 1   
     3    1   29 1   
     4    1   49 1   
     5    2    3 1   
     6    2    6 1   
     7    2   30 1   
     8    3    4 1   
     9    3    5 1   
    10    6    7 1   
    11    6   31 1   
    12    6   32 1   
    13    7    8 1   
    14    7   33 1   
    15    7   34 1   
    16    8    9 2   
    17    8   10 1   
    18   10   11 1   
    19   10   35 1   
    20   10   50 1   
    21   11   12 1   
    22   11   19 1   
    23   11   36 1   
    24   12   13 2   
    25   12   14 1   
    26   14   15 1   
    27   14   37 1   
    28   14   51 1   
    29   15   16 1   
    30   15   38 1   
    31   15   39 1   
    32   16   17 1   
    33   16   18 1   
    34   19   20 1   
    35   19   40 1   
    36   19   41 1   
    37   20   21 1   
    38   21   22 1   
    39   21   42 1   
    40   21   43 1   
    41   22   23 ar  
    42   22   27 ar  
    43   23   24 ar  
    44   23   44 1   
    45   24   25 ar  
    46   24   45 1   
    47   25   26 ar  
    48   25   46 1   
    49   26   27 ar  
    50   26   47 1   
    51   27   48 1   
@<TRIPOS>SUBSTRUCTURE
     1 GSB         1 TEMP              0 ****  ****    0 ROOT
