@<TRIPOS>MOLECULE
GSB
   51    51     1     0     0
SMALL
bcc


@<TRIPOS>ATOM
      1 N1          1.9320   -0.9640   -1.3250 n4        1 GSB     -0.825600
      2 CA1         1.1090    0.1710   -1.8480 c3        1 GSB     -0.035500
      3 C1          1.4650    0.3870   -3.3590 c         1 GSB      0.891600
      4 O11         2.6890    0.3410   -3.6580 o         1 GSB     -0.785800
      5 O12         0.5260    0.6910   -4.1330 o         1 GSB     -0.785800
      6 CB1         1.3830    1.4750   -1.0890 c3        1 GSB     -0.085400
      7 CG1         0.8520    2.6800   -1.8450 c3        1 GSB     -0.152400
      8 CD1         1.9420    3.3660   -2.6320 c         1 GSB      0.560100
      9 OE1         2.8120    4.0940   -2.1770 o         1 GSB     -0.420100
     10 N2          1.9700    3.1090   -4.1140 n4        1 GSB     -0.699800
     11 CA2         2.1290    4.3290   -4.9610 c3        1 GSB      0.052500
     12 C2          0.8690    5.2200   -4.9490 c         1 GSB      0.636100
     13 O2          0.9740    6.3970   -4.5770 o         1 GSB     -0.520100
     14 N3         -0.3260    4.6840   -5.4000 n         1 GSB     -0.540900
     15 CA3        -1.5730    5.2880   -5.0270 c3        1 GSB     -0.012000
     16 C3         -2.0790    4.8360   -3.6650 c         1 GSB      0.614100
     17 O31        -3.2830    5.2750   -3.2220 oh        1 GSB     -0.545100
     18 O32        -1.4900    4.0840   -2.8820 o         1 GSB     -0.546000
     19 CB2         2.5220    3.9640   -6.3910 c3        1 GSB     -0.074300
     20 SG2         3.9090    2.8770   -6.3900 ss        1 GSB     -0.261200
     21 C'          3.2340    1.3230   -6.9620 c3        1 GSB      0.043000
     22 C1'         4.3990    0.4420   -7.1860 ca        1 GSB     -0.105300
     23 C2'         4.8390   -0.4070   -6.1610 ca        1 GSB     -0.103500
     24 C3'         5.9300   -1.2480   -6.3740 ca        1 GSB     -0.132500
     25 C4'         6.5850   -1.2500   -7.6050 ca        1 GSB     -0.104000
     26 C5'         6.1470   -0.4080   -8.6290 ca        1 GSB     -0.132500
     27 C6'         5.0570    0.4350   -8.4220 ca        1 GSB     -0.103500
     28 HN11        2.8720   -0.8880   -1.7520 hn        1 GSB      0.460800
     29 HN12        1.5120   -1.8490   -1.6170 hn        1 GSB      0.460800
     30 HA1         0.0200   -0.1070   -1.7580 hx        1 GSB      0.124700
     31 HB11        2.4830    1.6010   -0.9000 hc        1 GSB      0.078200
     32 HB12        0.8690    1.4340   -0.0900 hc        1 GSB      0.078200
     33 HG11        0.4610    3.4500   -1.1170 hc        1 GSB      0.136700
     34 HG12       -0.0240    2.3890   -2.4950 hc        1 GSB      0.136700
     35 HN2         2.7890    2.4730   -4.3270 hn        1 GSB      0.498300
     36 HA2         2.9630    4.9500   -4.4950 hx        1 GSB      0.156700
     37 HN3        -0.3640    3.7230   -5.6560 hn        1 GSB      0.320500
     38 HA31       -1.4490    6.4120   -4.9990 h1        1 GSB      0.112200
     39 HA32       -2.3480    5.0250   -5.8040 h1        1 GSB      0.112200
     40 HB21        2.8250    4.9150   -6.9070 h1        1 GSB      0.111200
     41 HB22        1.6640    3.5300   -6.9590 h1        1 GSB      0.111200
     42 H'1         2.5520    0.8960   -6.1810 h1        1 GSB      0.082700
     43 H'2         2.6530    1.4780   -7.9030 h1        1 GSB      0.082700
     44 H2'         4.3150   -0.4060   -5.1910 ha        1 GSB      0.144000
     45 H3'         6.2740   -1.9130   -5.5680 ha        1 GSB      0.139000
     46 H4'         7.4460   -1.9150   -7.7710 ha        1 GSB      0.142000
     47 H5'         6.6620   -0.4100   -9.6020 ha        1 GSB      0.139000
     48 H6'         4.7150    1.0980   -9.2320 ha        1 GSB      0.144000
     49 H13         2.0080   -0.9330   -0.3080 hn        1 GSB      0.460800
     50 H22         1.1170    2.5870   -4.3870 hn        1 GSB      0.498300
     51 H32        -3.6820    5.8790   -3.8670 ho        1 GSB      0.443000
@<TRIPOS>BOND
     1    1    2 1   
     2    1   28 1   
     3    1   29 1   
     4    1   49 1   
     5    2    3 1   
     6    2    6 1   
     7    2   30 1   
     8    3    4 1   
     9    3    5 1   
    10    6    7 1   
    11    6   31 1   
    12    6   32 1   
    13    7    8 1   
    14    7   33 1   
    15    7   34 1   
    16    8    9 2   
    17    8   10 1   
    18   10   11 1   
    19   10   35 1   
    20   10   50 1   
    21   11   12 1   
    22   11   19 1   
    23   11   36 1   
    24   12   13 2   
    25   12   14 1   
    26   14   15 1   
    27   14   37 1   
    28   15   16 1   
    29   15   38 1   
    30   15   39 1   
    31   16   17 1   
    32   16   18 2   
    33   17   51 1   
    34   19   20 1   
    35   19   40 1   
    36   19   41 1   
    37   20   21 1   
    38   21   22 1   
    39   21   42 1   
    40   21   43 1   
    41   22   23 ar  
    42   22   27 ar  
    43   23   24 ar  
    44   23   44 1   
    45   24   25 ar  
    46   24   45 1   
    47   25   26 ar  
    48   25   46 1   
    49   26   27 ar  
    50   26   47 1   
    51   27   48 1   
@<TRIPOS>SUBSTRUCTURE
     1 GSB         1 TEMP              0 ****  ****    0 ROOT
