@<TRIPOS>MOLECULE
GSB
   51    51     1     0     0
SMALL
bcc


@<TRIPOS>ATOM
      1 N1          2.8110   -0.9830   -0.8690 n4        1 GSB     -0.824600
      2 CA1         1.7400   -0.0600   -1.3550 c3        1 GSB     -0.039500
      3 C1          1.9330    0.1540   -2.8980 c         1 GSB      0.888600
      4 O11         3.1190    0.3420   -3.2870 o         1 GSB     -0.780800
      5 O12         0.9000    0.2270   -3.6010 o         1 GSB     -0.780800
      6 CB1         1.8020    1.3080   -0.6690 c3        1 GSB     -0.086400
      7 CG1         0.9840    2.3470   -1.4200 c3        1 GSB     -0.147400
      8 CD1         1.8450    3.1750   -2.3450 c         1 GSB      0.566100
      9 OE1         2.6030    4.0730   -2.0000 o         1 GSB     -0.437100
     10 N2          1.7640    2.8650   -3.8090 n4        1 GSB     -0.686800
     11 CA2         1.6910    4.0690   -4.6940 c3        1 GSB      0.059500
     12 C2          0.2950    4.7260   -4.6130 c         1 GSB      0.646100
     13 O2         -0.6220    4.1870   -3.9540 o         1 GSB     -0.626100
     14 N3          0.1250    5.9180   -5.2610 n         1 GSB     -0.525900
     15 CA3        -1.1480    6.5880   -5.2740 c3        1 GSB     -0.011000
     16 C3         -2.1470    5.9660   -6.2420 c         1 GSB      0.596100
     17 O31        -2.8090    4.8360   -5.8820 oh        1 GSB     -0.566100
     18 O32        -2.4240    6.4050   -7.3540 o         1 GSB     -0.454000
     19 CB2         1.9960    3.6920   -6.1470 c3        1 GSB     -0.079300
     20 SG2         3.4310    2.6790   -6.2620 ss        1 GSB     -0.258200
     21 C'          2.7950    1.0580   -6.6840 c3        1 GSB      0.047000
     22 C1'         3.9740    0.2750   -7.1050 ca        1 GSB     -0.107300
     23 C2'         4.7310   -0.4160   -6.1480 ca        1 GSB     -0.102500
     24 C3'         5.8380   -1.1650   -6.5440 ca        1 GSB     -0.133000
     25 C4'         6.1940   -1.2330   -7.8910 ca        1 GSB     -0.103000
     26 C5'         5.4400   -0.5500   -8.8460 ca        1 GSB     -0.133000
     27 C6'         4.3340    0.2030   -8.4570 ca        1 GSB     -0.102500
     28 HN11        2.5570   -1.9470   -1.0980 hn        1 GSB      0.461800
     29 HN12        2.9560   -0.8920    0.1370 hn        1 GSB      0.461800
     30 HA1         0.7390   -0.5450   -1.1680 hx        1 GSB      0.123700
     31 HB11        1.3860    1.2200    0.3710 hc        1 GSB      0.078700
     32 HB12        2.8650    1.6610   -0.5810 hc        1 GSB      0.078700
     33 HG11        0.1300    1.8580   -1.9700 hc        1 GSB      0.125200
     34 HG12        0.5380    3.0740   -0.6820 hc        1 GSB      0.125200
     35 HN2         0.9340    2.2620   -3.9810 hn        1 GSB      0.510800
     36 HA2         2.4700    4.8030   -4.3170 hx        1 GSB      0.139700
     37 HN3         0.8370    6.2650   -5.8640 hn        1 GSB      0.341500
     38 HA31       -0.9820    7.6610   -5.5820 h1        1 GSB      0.104200
     39 HA32       -1.5920    6.5680   -4.2360 h1        1 GSB      0.104200
     40 HB21        2.2120    4.6350   -6.7120 h1        1 GSB      0.110200
     41 HB22        1.1090    3.2030   -6.6220 h1        1 GSB      0.110200
     42 H'1         2.0400    1.1390   -7.5040 h1        1 GSB      0.087200
     43 H'2         2.3070    0.6000   -5.7840 h1        1 GSB      0.087200
     44 H2'         4.4430   -0.3640   -5.0850 ha        1 GSB      0.144500
     45 H3'         6.4310   -1.7040   -5.7920 ha        1 GSB      0.139500
     46 H4'         7.0680   -1.8250   -8.2010 ha        1 GSB      0.143000
     47 H5'         5.7180   -0.6050   -9.9100 ha        1 GSB      0.139500
     48 H6'         3.7410    0.7390   -9.2140 ha        1 GSB      0.144500
     49 H13         3.6820   -0.7410   -1.3750 hn        1 GSB      0.461800
     50 H22         2.6210    2.3070   -4.0950 hn        1 GSB      0.510800
     51 H32        -2.5500    4.5600   -4.9870 ho        1 GSB      0.446000
@<TRIPOS>BOND
     1    1    2 1   
     2    1   28 1   
     3    1   29 1   
     4    1   49 1   
     5    2    3 1   
     6    2    6 1   
     7    2   30 1   
     8    3    4 1   
     9    3    5 1   
    10    6    7 1   
    11    6   31 1   
    12    6   32 1   
    13    7    8 1   
    14    7   33 1   
    15    7   34 1   
    16    8    9 2   
    17    8   10 1   
    18   10   11 1   
    19   10   35 1   
    20   10   50 1   
    21   11   12 1   
    22   11   19 1   
    23   11   36 1   
    24   12   13 2   
    25   12   14 1   
    26   14   15 1   
    27   14   37 1   
    28   15   16 1   
    29   15   38 1   
    30   15   39 1   
    31   16   17 1   
    32   16   18 2   
    33   17   51 1   
    34   19   20 1   
    35   19   40 1   
    36   19   41 1   
    37   20   21 1   
    38   21   22 1   
    39   21   42 1   
    40   21   43 1   
    41   22   23 ar  
    42   22   27 ar  
    43   23   24 ar  
    44   23   44 1   
    45   24   25 ar  
    46   24   45 1   
    47   25   26 ar  
    48   25   46 1   
    49   26   27 ar  
    50   26   47 1   
    51   27   48 1   
@<TRIPOS>SUBSTRUCTURE
     1 GSB         1 TEMP              0 ****  ****    0 ROOT
