@<TRIPOS>MOLECULE
GSB
   48    46     1     0     0
SMALL
bcc


@<TRIPOS>ATOM
      1 N1         -0.9630   -4.4670    5.7710 n3        1 GSB     -0.327000
      2 CA1        -0.4040   -4.4260    4.4630 c3        1 GSB     -0.127000
      3 C1          0.9620   -5.0520    4.4820 c2        1 GSB      0.308000
      4 O11         1.8210   -4.6690    5.3290 o         1 GSB     -0.580500
      5 O12         1.2290   -6.0090    3.7030 o         1 GSB     -0.580500
      6 CB1        -0.2930   -2.9790    4.0050 c3        1 GSB     -0.142000
      7 CG1        -1.1390   -2.7750    2.7400 c3        1 GSB     -0.174000
      8 CD1        -0.7750   -1.4350    2.0920 c2        1 GSB      0.307000
      9 OE1        -0.0360   -0.6730    2.6600 o         1 GSB     -0.403000
     10 N2         -1.2820   -1.1060    0.7840 n         1 GSB     -0.372000
     11 CA2        -0.8320    0.0800    0.1210 c3        1 GSB      0.014000
     12 C2         -1.8250    1.2020    0.3610 c2        1 GSB      0.258000
     13 O2         -2.9800    0.9450    0.6130 o         1 GSB     -0.413000
     14 N3         -1.3830    2.5690    0.3390 n         1 GSB     -0.317000
     15 CA3        -2.2330    3.6090    0.8580 c3        1 GSB     -0.125000
     16 C3         -3.0990    4.1590   -0.2600 c2        1 GSB      0.324000
     17 O31        -2.5990    4.9390   -1.1240 o         1 GSB     -0.582000
     18 O32        -4.3080    3.8510   -0.3220 o         1 GSB     -0.582000
     19 CB2        -0.7190   -0.1810   -1.3600 c3        1 GSB     -0.289000
     20 SG2         0.8550    0.4520   -1.9620 ss        1 GSB      0.039000
     21 C'          0.7820    0.6360   -3.7340 c3        1 GSB     -0.251000
     22 C1'         1.9100    1.5980   -4.2020 c2        1 GSB     -0.051000
     23 C2'         3.0870    1.0830   -4.7370 c2        1 GSB     -0.123000
     24 C3'         4.1060    1.9420   -5.1320 c1        1 GSB     -0.156000
     25 C4'         3.9500    3.3180   -4.9930 c1        1 GSB     -0.147000
     26 C5'         2.7770    3.8330   -4.4590 c1        1 GSB     -0.147000
     27 C6'         1.7540    2.9720   -4.0630 c1        1 GSB     -0.096000
     28 HN11       -0.5830   -5.1680    6.2490 hn        1 GSB      0.126500
     29 HN12       -1.8600   -4.5920    5.7130 hn        1 GSB      0.126500
     30 HA1        -0.9790   -4.9190    3.8470 h1        1 GSB      0.080000
     31 HB11       -0.6170   -2.3870    4.7130 hc        1 GSB      0.094500
     32 HB12        0.6330   -2.7720    3.8100 hc        1 GSB      0.094500
     33 HG11       -0.9630   -3.4970    2.1110 hc        1 GSB      0.104500
     34 HG12       -2.0850   -2.7730    2.9780 hc        1 GSB      0.104500
     35 HN2        -1.9310   -1.6120    0.4110 hn        1 GSB      0.241000
     36 HA2         0.0430    0.3380    0.4750 h1        1 GSB      0.151000
     37 HN3        -0.5490    2.7740    0.0280 hn        1 GSB      0.237000
     38 HA31       -2.8120    3.2380    1.5720 h1        1 GSB      0.087500
     39 HA32       -1.6750    4.3360    1.2300 h1        1 GSB      0.087500
     40 HB21       -0.7700   -1.1570   -1.5290 h1        1 GSB      0.122500
     41 HB22       -1.4500    0.2700   -1.8270 h1        1 GSB      0.122500
     42 H'1         0.9030   -0.2430   -4.1610 h1        1 GSB      0.138000
     43 H'2        -0.0900    1.0070   -3.9900 h1        1 GSB      0.138000
     44 H2'         3.1980    0.1080   -4.8360 ha        1 GSB      0.133000
     45 H3'         4.9340    1.5800   -5.5080 ha        1 GSB      0.110000
     46 H4'         4.6940    3.9200   -5.2130 ha        1 GSB      0.114000
     47 H5'         2.6680    4.7980   -4.3620 ha        1 GSB      0.114000
     48 H6'         0.9290    3.3340   -3.6870 ha        1 GSB      0.211000
@<TRIPOS>BOND
     1    1    2 1   
     2    1   28 1   
     3    1   29 1   
     4    2    3 1   
     5    2    6 1   
     6    2   30 1   
     7    3    4 1   
     8    3    5 1   
     9    6    7 1   
    10    6   31 1   
    11    6   32 1   
    12    7    8 1   
    13    7   33 1   
    14    7   34 1   
    15    8    9 1   
    16    8   10 1   
    17   10   11 1   
    18   10   35 1   
    19   11   12 1   
    20   11   19 1   
    21   11   36 1   
    22   12   13 1   
    23   12   14 1   
    24   14   15 1   
    25   14   37 1   
    26   15   16 1   
    27   15   38 1   
    28   15   39 1   
    29   16   17 1   
    30   16   18 1   
    31   19   20 1   
    32   19   40 1   
    33   19   41 1   
    34   20   21 1   
    35   21   22 1   
    36   21   42 1   
    37   21   43 1   
    38   22   23 1   
    39   22   27 1   
    40   23   24 1   
    41   23   44 1   
    42   24   45 1   
    43   25   26 1   
    44   25   46 1   
    45   26   47 1   
    46   27   48 1   
@<TRIPOS>SUBSTRUCTURE
     1 GSB         1 TEMP              0 ****  ****    0 ROOT
