@<TRIPOS>MOLECULE
GSB
   48    48     1     0     0
SMALL
bcc


@<TRIPOS>ATOM
      1 N1          3.9010   -0.4160    3.0690 n3        1 GSB     -0.893800
      2 CA1         3.2400   -0.9950    1.9060 c3        1 GSB      0.022500
      3 C1          4.2170   -1.4940    0.7920 c         1 GSB      0.890600
      4 O11         5.4590   -1.4690    1.0280 o         1 GSB     -0.849800
      5 O12         3.7120   -1.9240   -0.2840 o         1 GSB     -0.849800
      6 CB1         2.2140   -0.0620    1.2610 c3        1 GSB     -0.062400
      7 CG1         1.0760    0.2790    2.2000 c3        1 GSB     -0.144400
      8 CD1         0.0540    1.1550    1.4960 c         1 GSB      0.667100
      9 OE1         0.1450    2.4000    1.5110 o         1 GSB     -0.625100
     10 N2         -0.9780    0.5170    0.8280 n         1 GSB     -0.569900
     11 CA2        -1.9880    1.2190    0.0870 c3        1 GSB      0.035700
     12 C2         -3.3780    1.2270    0.7900 c         1 GSB      0.618100
     13 O2         -3.9250    2.3290    1.0120 o         1 GSB     -0.643100
     14 N3         -3.9170    0.0250    1.1670 n         1 GSB     -0.511900
     15 CA3        -5.2900   -0.1040    1.5860 c3        1 GSB     -0.058000
     16 C3         -5.9930   -1.3860    1.0550 c         1 GSB      0.904600
     17 O31        -5.3400   -2.1860    0.3240 o         1 GSB     -0.843300
     18 O32        -7.1960   -1.5450    1.4000 o         1 GSB     -0.843300
     19 CB2        -2.2170    0.6630   -1.3230 c3        1 GSB     -0.033300
     20 SG2        -0.9220    0.9940   -2.4770 ss        1 GSB     -0.318200
     21 C'          0.0880   -0.4690   -2.3830 c3        1 GSB      0.043000
     22 C1'         1.1880   -0.3540   -3.3670 ca        1 GSB     -0.076300
     23 C2'         2.5020   -0.6540   -2.9820 ca        1 GSB     -0.113000
     24 C3'         3.5340   -0.5710   -3.9190 ca        1 GSB     -0.142000
     25 C4'         3.2660   -0.1910   -5.2330 ca        1 GSB     -0.148000
     26 C5'         1.9590    0.1080   -5.6170 ca        1 GSB     -0.142000
     27 C6'         0.9230    0.0250   -4.6890 ca        1 GSB     -0.113000
     28 HN11        4.1910    0.5190    2.8430 hn        1 GSB      0.332300
     29 HN12        4.7440   -0.9450    3.2270 hn        1 GSB      0.332300
     30 HA1         2.6970   -1.9130    2.2780 h1        1 GSB      0.043700
     31 HB11        2.7120    0.8820    0.9180 hc        1 GSB      0.054700
     32 HB12        1.8220   -0.5860    0.3470 hc        1 GSB      0.054700
     33 HG11        0.6080   -0.6600    2.5920 hc        1 GSB      0.063200
     34 HG12        1.4630    0.8590    3.0790 hc        1 GSB      0.063200
     35 HN2        -1.0560   -0.4690    0.8920 hn        1 GSB      0.311500
     36 HA2        -1.6710    2.3060    0.0090 h1        1 GSB      0.120700
     37 HN3        -3.5500   -0.8060    0.7470 hn        1 GSB      0.317500
     38 HA31       -5.3130   -0.1340    2.7110 h1        1 GSB      0.041700
     39 HA32       -5.8850    0.7910    1.2540 h1        1 GSB      0.041700
     40 HB21       -2.4340   -0.4330   -1.2890 h1        1 GSB      0.084200
     41 HB22       -3.1170    1.1800   -1.7460 h1        1 GSB      0.084200
     42 H'1         0.4940   -0.5940   -1.3480 h1        1 GSB      0.075700
     43 H'2        -0.5420   -1.3650   -2.6120 h1        1 GSB      0.075700
     44 H2'         2.7350   -0.9670   -1.9410 ha        1 GSB      0.173000
     45 H3'         4.5600   -0.8120   -3.6040 ha        1 GSB      0.125000
     46 H4'         4.0820   -0.1260   -5.9650 ha        1 GSB      0.108000
     47 H5'         1.7440    0.4110   -6.6510 ha        1 GSB      0.125000
     48 H6'        -0.1090    0.2690   -4.9860 ha        1 GSB      0.173000
@<TRIPOS>BOND
     1    1    2 1   
     2    1   28 1   
     3    1   29 1   
     4    2    3 1   
     5    2    6 1   
     6    2   30 1   
     7    3    4 1   
     8    3    5 1   
     9    6    7 1   
    10    6   31 1   
    11    6   32 1   
    12    7    8 1   
    13    7   33 1   
    14    7   34 1   
    15    8    9 2   
    16    8   10 1   
    17   10   11 1   
    18   10   35 1   
    19   11   12 1   
    20   11   19 1   
    21   11   36 1   
    22   12   13 2   
    23   12   14 1   
    24   14   15 1   
    25   14   37 1   
    26   15   16 1   
    27   15   38 1   
    28   15   39 1   
    29   16   17 1   
    30   16   18 1   
    31   19   20 1   
    32   19   40 1   
    33   19   41 1   
    34   20   21 1   
    35   21   22 1   
    36   21   42 1   
    37   21   43 1   
    38   22   23 ar  
    39   22   27 ar  
    40   23   24 ar  
    41   23   44 1   
    42   24   25 ar  
    43   24   45 1   
    44   25   26 ar  
    45   25   46 1   
    46   26   27 ar  
    47   26   47 1   
    48   27   48 1   
@<TRIPOS>SUBSTRUCTURE
     1 GSB         1 TEMP              0 ****  ****    0 ROOT
