@<TRIPOS>MOLECULE
GSC
   16    15     1     0     0
SMALL
bcc


@<TRIPOS>ATOM
      1 N           1.6960    0.9560   -0.5710 n3        1 GSC     -0.899800
      2 CA          0.6840   -0.0480   -0.4250 c3        1 GSC      0.158600
      3 C          -0.2100   -0.2290   -1.7050 c         1 GSC      0.934600
      4 O          -0.5160    0.8090   -2.3510 o         1 GSC     -0.816800
      5 S          -0.4510    0.2630    0.9790 ss        1 GSC     -0.417200
      6 C1          0.4640   -0.4510    2.3150 c3        1 GSC     -0.004300
      7 C2         -0.3120   -0.2690    3.5850 c3        1 GSC     -0.074100
      8 OXT        -0.5160   -1.4080   -2.0120 o         1 GSC     -0.816800
      9 H           1.8140    1.4720    0.2800 hn        1 GSC      0.347300
     10 H2          1.4330    1.5980   -1.3010 hn        1 GSC      0.347300
     11 HA          1.1830   -1.0280   -0.2020 h2        1 GSC      0.061700
     12 H11         1.4670    0.0370    2.3940 h1        1 GSC      0.045700
     13 H12         0.6380   -1.5370    2.1140 h1        1 GSC      0.045700
     14 H21         0.2380   -0.7210    4.4470 hc        1 GSC      0.030033
     15 H22        -0.4730    0.8150    3.8000 hc        1 GSC      0.030033
     16 H23        -1.3120   -0.7630    3.5090 hc        1 GSC      0.030033
@<TRIPOS>BOND
     1    1    2 1   
     2    1    9 1   
     3    1   10 1   
     4    2    3 1   
     5    2    5 1   
     6    2   11 1   
     7    3    4 1   
     8    3    8 1   
     9    5    6 1   
    10    6    7 1   
    11    6   12 1   
    12    6   13 1   
    13    7   14 1   
    14    7   15 1   
    15    7   16 1   
@<TRIPOS>SUBSTRUCTURE
     1 GSC         1 TEMP              0 ****  ****    0 ROOT
