@<TRIPOS>MOLECULE
GSD
   24    24     1     0     0
SMALL
bcc


@<TRIPOS>ATOM
      1 C1          1.5850    1.5220   -0.0010 c3        1 GSD      0.314900
      2 C2          0.9160    0.2200    0.4840 c3        1 GSD      0.088100
      3 C3          1.9270   -0.9360    0.4210 c3        1 GSD      0.141100
      4 C4          2.5310   -1.0030   -0.9850 c3        1 GSD     -0.039600
      5 C5          3.1180    0.3440   -1.3930 c3        1 GSD      0.123100
      6 C6          3.5640    0.3420   -2.8610 c3        1 GSD      0.135400
      7 O1          0.5770    2.4840   -0.1810 oh        1 GSD     -0.608800
      8 O2          0.5110    0.3500    1.8330 oh        1 GSD     -0.581800
      9 O3          1.3370   -2.1750    0.7620 oh        1 GSD     -0.583800
     10 S4          3.8530   -2.1890   -1.0920 sh        1 GSD     -0.370900
     11 O5          2.1340    1.3810   -1.3020 os        1 GSD     -0.465600
     12 O6          4.2200    1.5450   -3.1910 oh        1 GSD     -0.588800
     13 H1          2.3630    1.8840    0.7290 h2        1 GSD      0.059700
     14 H2          0.0240   -0.0030   -0.1670 h1        1 GSD      0.059700
     15 H3          2.7350   -0.7850    1.1940 h1        1 GSD      0.106700
     16 H4          1.7260   -1.2920   -1.7090 h1        1 GSD      0.084700
     17 H5          3.9850    0.6110   -0.7240 h1        1 GSD      0.076700
     18 H61         2.6770    0.1790   -3.5290 h1        1 GSD      0.067700
     19 H62         4.3270   -0.4690   -3.0190 h1        1 GSD      0.067700
     20 HO1         0.8560    3.0850   -0.8860 ho        1 GSD      0.437000
     21 HO2        -0.0830    1.1140    1.8670 ho        1 GSD      0.422000
     22 HO3         0.4350   -2.1830    0.4160 ho        1 GSD      0.410000
     23 HS4         3.3400   -3.1370   -0.3140 hs        1 GSD      0.236800
     24 HO6         3.5850    2.2610   -3.0570 ho        1 GSD      0.408000
@<TRIPOS>BOND
     1    1    2 1   
     2    1    7 1   
     3    1   11 1   
     4    1   13 1   
     5    2    3 1   
     6    2    8 1   
     7    2   14 1   
     8    3    4 1   
     9    3    9 1   
    10    3   15 1   
    11    4    5 1   
    12    4   10 1   
    13    4   16 1   
    14    5    6 1   
    15    5   11 1   
    16    5   17 1   
    17    6   12 1   
    18    6   18 1   
    19    6   19 1   
    20    7   20 1   
    21    8   21 1   
    22    9   22 1   
    23   10   23 1   
    24   12   24 1   
@<TRIPOS>SUBSTRUCTURE
     1 GSD         1 TEMP              0 ****  ****    0 ROOT
