@<TRIPOS>MOLECULE
GSD
   24    24     1     0     0
SMALL
bcc


@<TRIPOS>ATOM
      1 C1         -0.7390    0.1520   -1.5620 c3        1 GSD      0.312900
      2 C2          0.7760    0.1520   -1.5620 c3        1 GSD      0.115100
      3 C3          1.3390    0.1520   -0.1910 c3        1 GSD      0.153100
      4 C4          0.7620   -0.9360    0.6580 c3        1 GSD     -0.049600
      5 C5         -0.7590   -0.9320    0.6460 c3        1 GSD      0.162100
      6 C6         -1.2450    0.2820    1.3690 c3        1 GSD      0.084400
      7 O1         -1.1850    1.3710   -1.0970 oh        1 GSD     -0.641800
      8 O2          1.2420   -1.0220   -2.2570 oh        1 GSD     -0.597800
      9 O3          1.0580    1.4320    0.4320 oh        1 GSD     -0.598800
     10 S4          1.3320   -0.7150    2.3540 sh        1 GSD     -0.364900
     11 O5         -1.3090   -0.9270   -0.7090 os        1 GSD     -0.418600
     12 O6         -2.6550    0.2700    1.4140 oh        1 GSD     -0.598800
     13 H1         -1.0540    0.0290   -2.4780 h2        1 GSD      0.074700
     14 H2          1.0930    0.9460   -2.0340 h1        1 GSD      0.090700
     15 H3          2.3070    0.0310   -0.2460 h1        1 GSD      0.062700
     16 H4          1.0790   -1.7970    0.3270 h1        1 GSD      0.103700
     17 H5         -1.0800   -1.7270    1.1140 h1        1 GSD      0.105700
     18 H61        -0.8910    0.2830    2.2790 h1        1 GSD      0.056700
     19 H62        -0.9420    1.0830    0.9010 h1        1 GSD      0.056700
     20 HO1        -1.6700    1.7680   -1.7260 ho        1 GSD      0.443000
     21 HO2         1.6680   -0.7780   -2.9960 ho        1 GSD      0.411000
     22 HO3         1.8130    1.8900    0.5190 ho        1 GSD      0.422000
     23 HS4         1.9900   -1.6390    2.6700 hs        1 GSD      0.210800
     24 HO6        -2.9300    0.6310    2.1770 ho        1 GSD      0.406000
@<TRIPOS>BOND
     1    1    2 1   
     2    1    7 1   
     3    1   11 1   
     4    1   13 1   
     5    2    3 1   
     6    2    8 1   
     7    2   14 1   
     8    3    4 1   
     9    3    9 1   
    10    3   15 1   
    11    4    5 1   
    12    4   10 1   
    13    4   16 1   
    14    5    6 1   
    15    5   11 1   
    16    5   17 1   
    17    6   12 1   
    18    6   18 1   
    19    6   19 1   
    20    7   20 1   
    21    8   21 1   
    22    9   22 1   
    23   10   23 1   
    24   12   24 1   
@<TRIPOS>SUBSTRUCTURE
     1 GSD         1 TEMP              0 ****  ****    0 ROOT
