@<TRIPOS>MOLECULE
GSE
   29    28     1     0     0
SMALL
bcc


@<TRIPOS>ATOM
      1 C1         -0.0910   -0.3610   -0.3120 c3        1 GSE      0.145400
      2 O11        -0.5890    0.4400   -1.3440 os        1 GSE     -0.575200
      3 O12        -2.8670   -0.3390   -1.8730 os        1 GSE     -0.600200
      4 C2          1.2270    0.2490    0.1820 c3        1 GSE      0.086100
      5 C3          1.9420   -0.7170    1.1290 c3        1 GSE      0.133400
      6 O31         3.1700   -0.1890    1.5900 oh        1 GSE     -0.614800
      7 P          -2.1340    0.9730   -1.1970 p5        1 GSE      1.456800
      8 O14        -2.4700    1.0710    0.2280 o         1 GSE     -0.824500
      9 O13        -2.3280    2.0280   -2.2270 o         1 GSE     -0.824500
     10 O21         2.1220    0.4980   -0.8950 oh        1 GSE     -0.638800
     11 C11        -4.2340   -0.2460   -2.1400 c3        1 GSE      0.193400
     12 C12        -4.4890   -0.1960   -3.6570 c3        1 GSE     -0.065500
     13 N          -3.9510    1.0540   -4.2660 n4        1 GSE     -0.861600
     14 C13        -6.0340   -0.3350   -3.9520 c         1 GSE      0.921600
     15 O16        -6.5710   -1.4060   -3.5970 o         1 GSE     -0.797300
     16 O15        -6.5780    0.6390   -4.5440 o         1 GSE     -0.797300
     17 H11        -0.8270   -0.4230    0.5370 h1        1 GSE      0.052200
     18 H12A        0.1140   -1.3880   -0.7270 h1        1 GSE      0.052200
     19 H2          1.0300    1.2260    0.7050 h1        1 GSE      0.055700
     20 H31         2.1270   -1.6960    0.6120 h1        1 GSE      0.043700
     21 H32         1.3240   -0.8800    2.0510 h1        1 GSE      0.043700
     22 HO1         3.6350    0.1560    0.8170 ho        1 GSE      0.414000
     23 HO2         1.5830    0.8000   -1.6390 ho        1 GSE      0.436000
     24 H111       -4.7390   -1.1810   -1.7670 h1        1 GSE      0.059200
     25 H112       -4.6710    0.6540   -1.6280 h1        1 GSE      0.059200
     26 H12        -3.9620   -1.0700   -4.1300 hx        1 GSE      0.083700
     27 HN1        -4.7500    1.6900   -4.4150 hn        1 GSE      0.454133
     28 HN2        -3.5260    0.8530   -5.1620 hn        1 GSE      0.454133
     29 HN3        -3.2470    1.4990   -3.6200 hn        1 GSE      0.454133
@<TRIPOS>BOND
     1    1    2 1   
     2    1    4 1   
     3    1   17 1   
     4    1   18 1   
     5    2    7 1   
     6    3    7 1   
     7    3   11 1   
     8    4    5 1   
     9    4   10 1   
    10    4   19 1   
    11    5    6 1   
    12    5   20 1   
    13    5   21 1   
    14    6   22 1   
    15    7    8 1   
    16    7    9 1   
    17   10   23 1   
    18   11   12 1   
    19   11   24 1   
    20   11   25 1   
    21   12   13 1   
    22   12   14 1   
    23   12   26 1   
    24   13   27 1   
    25   13   28 1   
    26   13   29 1   
    27   14   15 1   
    28   14   16 1   
@<TRIPOS>SUBSTRUCTURE
     1 GSE         1 TEMP              0 ****  ****    0 ROOT
