@<TRIPOS>MOLECULE
GSE
   29    28     1     0     0
SMALL
bcc


@<TRIPOS>ATOM
      1 C1         -0.1270   -0.3520   -0.2630 c3        1 GSE      0.145400
      2 O11        -0.5780    0.4040   -1.3490 os        1 GSE     -0.575200
      3 O12        -2.8820   -0.3090   -1.8610 os        1 GSE     -0.600200
      4 C2          1.2110    0.2300    0.2110 c3        1 GSE      0.086100
      5 C3          1.8720   -0.7050    1.2250 c3        1 GSE      0.133400
      6 O31         3.1180   -0.2030    1.6690 oh        1 GSE     -0.614800
      7 P          -2.1000    1.0090   -1.2560 p5        1 GSE      1.456800
      8 O14        -2.4480    1.2100    0.1560 o         1 GSE     -0.824500
      9 O13        -2.2360    2.0070   -2.3510 o         1 GSE     -0.824500
     10 O21         2.1280    0.3730   -0.8670 oh        1 GSE     -0.638800
     11 C11        -4.2400   -0.1740   -2.1520 c3        1 GSE      0.193400
     12 C12        -4.4770   -0.2050   -3.6720 c3        1 GSE     -0.065500
     13 N          -3.8800    0.9820   -4.3480 n4        1 GSE     -0.861600
     14 C13        -6.0240   -0.2960   -3.9780 c         1 GSE      0.921600
     15 O16        -6.6100   -1.3190   -3.5670 o         1 GSE     -0.797300
     16 O15        -6.5190    0.6630   -4.6350 o         1 GSE     -0.797300
     17 H11        -0.8740   -0.3300    0.5780 h1        1 GSE      0.052200
     18 H12A        0.0380   -1.4110   -0.6110 h1        1 GSE      0.052200
     19 H2          1.0500    1.2450    0.6700 h1        1 GSE      0.055700
     20 H31         1.2380   -0.7830    2.1470 h1        1 GSE      0.043700
     21 H32         2.0200   -1.7210    0.7720 h1        1 GSE      0.043700
     22 HO1         3.6060    0.0730    0.8820 ho        1 GSE      0.414000
     23 HO2         1.6110    0.6510   -1.6360 ho        1 GSE      0.436000
     24 H111       -4.7900   -1.0620   -1.7300 h1        1 GSE      0.059200
     25 H112       -4.6440    0.7730   -1.7000 h1        1 GSE      0.059200
     26 H12        -3.9840   -1.1280   -4.0850 hx        1 GSE      0.083700
     27 HN1        -3.1630    1.4340   -3.7210 hn        1 GSE      0.454133
     28 HN2        -3.4540    0.7090   -5.2250 hn        1 GSE      0.454133
     29 HN3        -4.6480    1.6410   -4.5450 hn        1 GSE      0.454133
@<TRIPOS>BOND
     1    1    2 1   
     2    1    4 1   
     3    1   17 1   
     4    1   18 1   
     5    2    7 1   
     6    3    7 1   
     7    3   11 1   
     8    4    5 1   
     9    4   10 1   
    10    4   19 1   
    11    5    6 1   
    12    5   20 1   
    13    5   21 1   
    14    6   22 1   
    15    7    8 1   
    16    7    9 1   
    17   10   23 1   
    18   11   12 1   
    19   11   24 1   
    20   11   25 1   
    21   12   13 1   
    22   12   14 1   
    23   12   26 1   
    24   13   27 1   
    25   13   28 1   
    26   13   29 1   
    27   14   15 1   
    28   14   16 1   
@<TRIPOS>SUBSTRUCTURE
     1 GSE         1 TEMP              0 ****  ****    0 ROOT
