@<TRIPOS>MOLECULE
GSE
   28    27     1     0     0
SMALL
bcc


@<TRIPOS>ATOM
      1 C1         -0.1880   -0.9510   -2.5710 c3        1 GSE      0.143400
      2 O11         0.2800   -0.5530   -1.3230 os        1 GSE     -0.571200
      3 O12         0.9130   -1.1110    1.0340 os        1 GSE     -0.579200
      4 C2          0.0320    0.1970   -3.5600 c3        1 GSE      0.106100
      5 C3         -0.7880   -0.0280   -4.8320 c3        1 GSE      0.126400
      6 O31        -0.6190    1.0260   -5.7650 oh        1 GSE     -0.633800
      7 P           0.1810   -1.8200   -0.2290 p5        1 GSE      1.421800
      8 O14        -1.2640   -2.0170    0.0120 o         1 GSE     -0.842500
      9 O13         1.0550   -2.8820   -0.7710 o         1 GSE     -0.842500
     10 O21        -0.3700    1.4510   -3.0300 oh        1 GSE     -0.648800
     11 C11         0.1930   -0.0430    1.6090 c3        1 GSE      0.147400
     12 C12         0.9620    0.5080    2.8250 c3        1 GSE      0.039500
     13 N           1.2960   -0.4850    3.8320 n3        1 GSE     -0.901800
     14 C13         0.1370    1.6970    3.4090 c         1 GSE      0.913600
     15 O16         0.3940    2.8570    2.9780 o         1 GSE     -0.859300
     16 O15        -0.7430    1.4570    4.2880 o         1 GSE     -0.859300
     17 H11         0.3720   -1.8660   -2.9100 h1        1 GSE      0.034700
     18 H12A       -1.2840   -1.1970   -2.4840 h1        1 GSE      0.034700
     19 H2          1.1250    0.2730   -3.8190 h1        1 GSE      0.039700
     20 H31        -0.4390   -0.9520   -5.3610 h1        1 GSE      0.036700
     21 H32        -1.8770   -0.1210   -4.5770 h1        1 GSE      0.036700
     22 HO1        -0.6550    1.8490   -5.2610 ho        1 GSE      0.417000
     23 HO2        -0.2600    1.4010   -2.0670 ho        1 GSE      0.457000
     24 H111       -0.8240   -0.4200    1.9020 h1        1 GSE      0.035200
     25 H112        0.0810    0.7640    0.8370 h1        1 GSE      0.035200
     26 H12         1.9420    0.9180    2.4450 h1        1 GSE      0.047700
     27 HN1         0.5380   -0.5410    4.4910 hn        1 GSE      0.332300
     28 HN2         1.3890   -1.3810    3.3880 hn        1 GSE      0.332300
@<TRIPOS>BOND
     1    1    2 1   
     2    1    4 1   
     3    1   17 1   
     4    1   18 1   
     5    2    7 1   
     6    3    7 1   
     7    3   11 1   
     8    4    5 1   
     9    4   10 1   
    10    4   19 1   
    11    5    6 1   
    12    5   20 1   
    13    5   21 1   
    14    6   22 1   
    15    7    8 1   
    16    7    9 1   
    17   10   23 1   
    18   11   12 1   
    19   11   24 1   
    20   11   25 1   
    21   12   13 1   
    22   12   14 1   
    23   12   26 1   
    24   13   27 1   
    25   13   28 1   
    26   14   15 1   
    27   14   16 1   
@<TRIPOS>SUBSTRUCTURE
     1 GSE         1 TEMP              0 ****  ****    0 ROOT
