@<TRIPOS>MOLECULE
GSE
   29    28     1     0     0
SMALL
bcc


@<TRIPOS>ATOM
      1 C1         -0.0810   -0.3390   -0.3180 c3        1 GSE      0.145400
      2 O11        -0.5850    0.4400   -1.3640 os        1 GSE     -0.575200
      3 O12        -2.8730   -0.3400   -1.8480 os        1 GSE     -0.600200
      4 C2          1.2470    0.2750    0.1460 c3        1 GSE      0.086100
      5 C3          1.9660   -0.6710    1.1090 c3        1 GSE      0.133400
      6 O31         3.2030   -0.1400    1.5420 oh        1 GSE     -0.614800
      7 P          -2.1250    0.9840   -1.2130 p5        1 GSE      1.456800
      8 O14        -2.4460    1.1200    0.2130 o         1 GSE     -0.824500
      9 O13        -2.3250    2.0150   -2.2670 o         1 GSE     -0.824500
     10 O21         2.1310    0.4930   -0.9470 oh        1 GSE     -0.638800
     11 C11        -4.2420   -0.2460   -2.1040 c3        1 GSE      0.193400
     12 C12        -4.5130   -0.2320   -3.6190 c3        1 GSE     -0.065500
     13 N          -3.9760    1.0000   -4.2640 nz        1 GSE     -0.861600
     14 C13        -6.0620   -0.3700   -3.8930 c         1 GSE      0.921600
     15 O16        -6.6010   -1.4280   -3.5060 o         1 GSE     -0.797300
     16 O15        -6.6080    0.5920   -4.5030 o         1 GSE     -0.797300
     17 H11        -0.8070   -0.3760    0.5400 h1        1 GSE      0.052200
     18 H12A        0.1140   -1.3770   -0.7110 h1        1 GSE      0.052200
     19 H2          1.0600    1.2660    0.6470 h1        1 GSE      0.055700
     20 H31         2.1400   -1.6640    0.6130 h1        1 GSE      0.043700
     21 H32         1.3580   -0.8090    2.0410 h1        1 GSE      0.043700
     22 HO1         3.6610    0.1830    0.7560 ho        1 GSE      0.414000
     23 HO2         1.5850    0.7790   -1.6920 ho        1 GSE      0.436000
     24 H111       -4.7490   -1.1680   -1.7020 h1        1 GSE      0.059200
     25 H112       -4.6690    0.6690   -1.6090 h1        1 GSE      0.059200
     26 H12        -3.9960   -1.1200   -4.0750 hx        1 GSE      0.083700
     27 HN1        -3.5610    0.7740   -5.1590 hn        1 GSE      0.454133
     28 HN2        -3.2620    1.4560   -3.6360 hn        1 GSE      0.454133
     29 HN3        -4.7720    1.6360   -4.4200 hn        1 GSE      0.454133
@<TRIPOS>BOND
     1    1    2 1   
     2    1    4 1   
     3    1   17 1   
     4    1   18 1   
     5    2    7 1   
     6    3    7 1   
     7    3   11 1   
     8    4    5 1   
     9    4   10 1   
    10    4   19 1   
    11    5    6 1   
    12    5   20 1   
    13    5   21 1   
    14    6   22 1   
    15    7    8 1   
    16    7    9 1   
    17   10   23 1   
    18   11   12 1   
    19   11   24 1   
    20   11   25 1   
    21   12   13 1   
    22   12   14 1   
    23   12   26 1   
    24   13   27 1   
    25   13   28 1   
    26   13   29 1   
    27   14   15 1   
    28   14   16 1   
@<TRIPOS>SUBSTRUCTURE
     1 GSE         1 TEMP              0 ****  ****    0 ROOT
