@<TRIPOS>MOLECULE
GSF
   40    39     1     0     0
SMALL
bcc


@<TRIPOS>ATOM
      1 CB1         0.1840   -0.3010    1.3430 c3        1 GSF     -0.094400
      2 CG1        -0.2280   -1.5340    2.1360 c3        1 GSF     -0.147400
      3 CD1        -1.7220   -1.5680    2.3420 c         1 GSF      0.570100
      4 OE1        -2.3330   -1.1340    3.3080 o         1 GSF     -0.434100
      5 C1          0.0700   -1.3650   -0.9350 c         1 GSF      0.936600
      6 O11        -0.4670   -2.4490   -0.5920 o         1 GSF     -0.782800
      7 O12        -0.1190   -0.7350   -2.0030 o         1 GSF     -0.782800
      8 N1          1.7260    0.4670   -0.4910 n4        1 GSF     -0.830600
      9 CA1         1.0300   -0.7020    0.1320 c3        1 GSF     -0.040500
     10 N2         -2.5060   -2.2060    1.2300 n4        1 GSF     -0.675800
     11 CA2        -3.9710   -1.8790    1.2210 c3        1 GSF      0.104500
     12 CB2        -4.4990   -1.6390   -0.1840 c3        1 GSF     -0.174100
     13 SG2        -3.8060   -0.2920   -1.1140 s4        1 GSF      0.629700
     14 O1S        -2.6270    0.1050   -0.3190 o         1 GSF     -0.591200
     15 O2S        -3.0550   -1.1990   -2.2980 oh        1 GSF     -0.581800
     16 C2         -4.7730   -3.0410    1.8620 c         1 GSF      0.647100
     17 O2         -4.2550   -4.1740    1.9590 o         1 GSF     -0.613100
     18 N3         -6.0330   -2.7670    2.3180 n         1 GSF     -0.525900
     19 CA3        -6.8660   -3.8020    2.8710 c3        1 GSF     -0.012000
     20 C3         -7.4900   -4.6980    1.8090 c         1 GSF      0.597100
     21 O31        -8.6380   -4.5990    1.3860 o         1 GSF     -0.457000
     22 O32        -6.7520   -5.6970    1.2610 oh        1 GSF     -0.563100
     23 HB11        0.7590    0.3830    2.0240 hc        1 GSF      0.086700
     24 HB12       -0.7230    0.2630    0.9800 hc        1 GSF      0.086700
     25 HG11        0.2400   -1.5120    3.1590 hc        1 GSF      0.121700
     26 HG12        0.1120   -2.4760    1.6170 hc        1 GSF      0.121700
     27 HN11        2.6580    0.1900   -0.8030 hn        1 GSF      0.461133
     28 HN12        1.1700    0.7460   -1.3280 hn        1 GSF      0.461133
     29 HA1         1.8130   -1.4550    0.4290 hx        1 GSF      0.109700
     30 HN2        -2.0710   -1.8920    0.3270 hn        1 GSF      0.504300
     31 HA2        -4.1050   -0.9390    1.8420 hx        1 GSF      0.127700
     32 HB21       -4.4060   -2.5750   -0.8030 h1        1 GSF      0.132700
     33 HB22       -5.6000   -1.4340   -0.1050 h1        1 GSF      0.132700
     34 H2S        -2.0830   -1.2010   -2.2800 ho        1 GSF      0.511000
     35 HN3        -6.4490   -1.8830    2.1400 hn        1 GSF      0.337500
     36 HA31       -7.6990   -3.3140    3.4560 h1        1 GSF      0.105200
     37 HA32       -6.2530   -4.4410    3.5710 h1        1 GSF      0.105200
     38 H13         1.7960    1.2520    0.1540 hn        1 GSF      0.461133
     39 H22        -2.3820   -3.2340    1.2840 hn        1 GSF      0.504300
     40 H32        -5.8620   -5.7170    1.6510 ho        1 GSF      0.448000
@<TRIPOS>BOND
     1    1    2 1   
     2    1    9 1   
     3    1   23 1   
     4    1   24 1   
     5    2    3 1   
     6    2   25 1   
     7    2   26 1   
     8    3    4 2   
     9    3   10 1   
    10    5    6 1   
    11    5    7 1   
    12    5    9 1   
    13    8    9 1   
    14    8   27 1   
    15    8   28 1   
    16    8   38 1   
    17    9   29 1   
    18   10   11 1   
    19   10   30 1   
    20   10   39 1   
    21   11   12 1   
    22   11   16 1   
    23   11   31 1   
    24   12   13 1   
    25   12   32 1   
    26   12   33 1   
    27   13   14 2   
    28   13   15 1   
    29   15   34 1   
    30   16   17 2   
    31   16   18 1   
    32   18   19 1   
    33   18   35 1   
    34   19   20 1   
    35   19   36 1   
    36   19   37 1   
    37   20   21 2   
    38   20   22 1   
    39   22   40 1   
@<TRIPOS>SUBSTRUCTURE
     1 GSF         1 TEMP              0 ****  ****    0 ROOT
