@<TRIPOS>MOLECULE
GSF
   40    39     1     0     0
SMALL
bcc


@<TRIPOS>ATOM
      1 CB1         0.2220   -0.2140    1.3190 c3        1 GSF     -0.095400
      2 CG1        -0.0160   -1.5220    2.0590 c3        1 GSF     -0.148400
      3 CD1        -1.4810   -1.7140    2.3620 c         1 GSF      0.568100
      4 OE1        -2.0520   -1.4190    3.4010 o         1 GSF     -0.432100
      5 C1          0.0530   -1.1640   -1.0100 c         1 GSF      0.937600
      6 O11        -0.3500   -2.3120   -0.6950 o         1 GSF     -0.781800
      7 O12        -0.2620   -0.5020   -2.0270 o         1 GSF     -0.781800
      8 N1          1.5450    0.8040   -0.5620 n4        1 GSF     -0.830600
      9 CA1         1.0140   -0.4620    0.0330 c3        1 GSF     -0.041500
     10 N2         -2.2880   -2.3280    1.2540 n4        1 GSF     -0.673800
     11 CA2        -3.7670   -2.1070    1.3520 c3        1 GSF      0.095500
     12 CB2        -4.4020   -1.8440   -0.0060 c3        1 GSF     -0.182100
     13 SG2        -3.9250   -0.3590   -0.8470 s4        1 GSF      0.629700
     14 O1S        -2.7160    0.0720   -0.1130 o         1 GSF     -0.597200
     15 O2S        -3.1980   -1.0650   -2.1770 oh        1 GSF     -0.580800
     16 C2         -4.4610   -3.3580    1.9550 c         1 GSF      0.643100
     17 O2         -3.9010   -4.4670    1.8860 o         1 GSF     -0.572100
     18 N3         -5.6720   -3.1510    2.5860 n         1 GSF     -0.495900
     19 CA3        -6.6300   -4.2220    2.6730 c3        1 GSF     -0.028000
     20 C3         -7.6420   -4.1990    1.5370 c         1 GSF      0.600100
     21 O31        -7.6930   -3.3550    0.6400 o         1 GSF     -0.507000
     22 O32        -8.5910   -5.1650    1.4700 oh        1 GSF     -0.541100
     23 HB11       -0.7560    0.2790    1.0510 hc        1 GSF      0.086700
     24 HB12        0.7780    0.4840    2.0020 hc        1 GSF      0.086700
     25 HG11        0.3710   -2.3980    1.4610 hc        1 GSF      0.121700
     26 HG12        0.5210   -1.5130    3.0480 hc        1 GSF      0.121700
     27 HN11        2.4810    0.6470   -0.9380 hn        1 GSF      0.461133
     28 HN12        1.5680    1.5610    0.1190 hn        1 GSF      0.461133
     29 HA1         1.8880   -1.1450    0.2330 hx        1 GSF      0.108700
     30 HN2        -2.0910   -3.3450    1.2220 hn        1 GSF      0.502800
     31 HA2        -3.9230   -1.2100    2.0270 hx        1 GSF      0.126700
     32 HB21       -4.2290   -2.7170   -0.6970 h1        1 GSF      0.142700
     33 HB22       -5.5180   -1.8000    0.1350 h1        1 GSF      0.142700
     34 H2S        -2.2300   -0.9980   -2.2130 ho        1 GSF      0.507000
     35 HN3        -8.4840   -5.7960    2.1980 ho        1 GSF      0.439000
     36 HA31       -6.0930   -5.2160    2.6700 h1        1 GSF      0.112200
     37 HA32       -7.1880   -4.1140    3.6490 h1        1 GSF      0.112200
     38 H13         0.9140    1.0600   -1.3530 hn        1 GSF      0.461133
     39 H22        -1.9350   -1.9190    0.3530 hn        1 GSF      0.502800
     40 H32        -6.0770   -2.2410    2.5010 hn        1 GSF      0.320500
@<TRIPOS>BOND
     1    1    2 1   
     2    1    9 1   
     3    1   23 1   
     4    1   24 1   
     5    2    3 1   
     6    2   25 1   
     7    2   26 1   
     8    3    4 2   
     9    3   10 1   
    10    5    6 1   
    11    5    7 1   
    12    5    9 1   
    13    8    9 1   
    14    8   27 1   
    15    8   28 1   
    16    8   38 1   
    17    9   29 1   
    18   10   11 1   
    19   10   30 1   
    20   10   39 1   
    21   11   12 1   
    22   11   16 1   
    23   11   31 1   
    24   12   13 1   
    25   12   32 1   
    26   12   33 1   
    27   13   14 2   
    28   13   15 1   
    29   15   34 1   
    30   16   17 2   
    31   16   18 1   
    32   18   19 1   
    33   18   40 1   
    34   19   20 1   
    35   19   36 1   
    36   19   37 1   
    37   20   21 2   
    38   20   22 1   
    39   22   35 1   
@<TRIPOS>SUBSTRUCTURE
     1 GSF         1 TEMP              0 ****  ****    0 ROOT
