@<TRIPOS>MOLECULE
GSF
   37    35     1     0     0
SMALL
bcc


@<TRIPOS>ATOM
      1 CB1         2.9690    1.6440    0.1810 c3        1 GSF     -0.140000
      2 CG1         2.4150    0.2530   -0.1690 c3        1 GSF     -0.171000
      3 CD1         0.8700    0.2910   -0.1430 c2        1 GSF      0.291000
      4 OE1         0.2860    1.3660   -0.1200 o         1 GSF     -0.379000
      5 C1          4.9570    2.4960   -1.0370 c1        1 GSF      0.309000
      6 O11         5.0930    3.7400   -0.8720 os        1 GSF     -0.591000
      7 O12         5.2420    1.9690   -2.1600 o         1 GSF     -0.570000
      8 N1          5.0000    2.1040    1.3390 n3        1 GSF     -0.328000
      9 CA1         4.4720    1.6160    0.1230 c3        1 GSF     -0.128000
     10 N2          0.1120   -0.9440   -0.1500 n         1 GSF     -0.369000
     11 CA2        -1.2730   -0.9170   -0.4170 c3        1 GSF      0.008000
     12 CB2        -1.5710   -1.7910   -1.6180 c3        1 GSF     -0.659000
     13 SG2        -2.4230   -0.8210   -2.8630 s4        1 GSF      1.536000
     14 O1S        -1.8590    0.4120   -3.3170 o         1 GSF     -0.824000
     15 O2S        -3.7040   -1.3510   -3.4990 oh        1 GSF     -0.625000
     16 C2         -2.0330   -1.4420    0.7950 c2        1 GSF      0.265000
     17 O2         -1.5860   -2.3880    1.4360 o         1 GSF     -0.421000
     18 N3         -3.2150   -0.7690    1.2440 n         1 GSF     -0.318000
     19 CA3        -4.0210   -1.3500    2.3020 c3        1 GSF     -0.119000
     20 C3         -5.2610   -0.5450    2.4830 c2        1 GSF      0.327000
     21 O31        -6.3090   -0.8680    1.8820 o         1 GSF     -0.575000
     22 O32        -5.2650    0.4430    3.2800 o         1 GSF     -0.575000
     23 HB11        2.6820    1.8910    1.0830 hc        1 GSF      0.100500
     24 HB12        2.6330    2.2950   -0.4540 hc        1 GSF      0.100500
     25 HG11        2.7230   -0.0050   -1.0700 hc        1 GSF      0.105000
     26 HG12        2.7400   -0.4070    0.4920 hc        1 GSF      0.105000
     27 HN11        5.8580    1.8070    1.4400 hn        1 GSF      0.127000
     28 HN12        4.4870    1.8000    2.0400 hn        1 GSF      0.127000
     29 HA1         4.7780    0.6880   -0.0200 h1        1 GSF      0.079000
     30 HN2         0.5300   -1.7340    0.0060 hn        1 GSF      0.229000
     31 HA2        -1.5530    0.0060   -0.6060 h1        1 GSF      0.140000
     32 HB21       -0.7220   -2.1380   -1.9940 h1        1 GSF      0.151500
     33 HB22       -2.1410   -2.5460   -1.3420 h1        1 GSF      0.151500
     34 H2S        -3.6890   -1.1960   -4.3520 ho        1 GSF      0.236000
     35 HN3        -3.4620    0.0070    0.8640 hn        1 GSF      0.242000
     36 HA31       -4.2600   -2.2650    2.0620 h1        1 GSF      0.080500
     37 HA32       -3.5010   -1.3540    3.1520 h1        1 GSF      0.080500
@<TRIPOS>BOND
     1    1    2 1   
     2    1    9 1   
     3    1   23 1   
     4    1   24 1   
     5    2    3 1   
     6    2   25 1   
     7    2   26 1   
     8    3    4 1   
     9    3   10 1   
    10    5    7 1   
    11    5    9 1   
    12    8    9 1   
    13    8   27 1   
    14    8   28 1   
    15    9   29 1   
    16   10   11 1   
    17   10   30 1   
    18   11   12 1   
    19   11   16 1   
    20   11   31 1   
    21   12   13 1   
    22   12   32 1   
    23   12   33 1   
    24   13   14 1   
    25   13   15 1   
    26   15   34 1   
    27   16   17 1   
    28   16   18 1   
    29   18   19 1   
    30   18   35 1   
    31   19   20 1   
    32   19   36 1   
    33   19   37 1   
    34   20   21 1   
    35   20   22 1   
@<TRIPOS>SUBSTRUCTURE
     1 GSF         1 TEMP              0 ****  ****    0 ROOT
