@<TRIPOS>MOLECULE
GSF
   37    36     1     0     0
SMALL
bcc


@<TRIPOS>ATOM
      1 CB1         3.2540    0.9000   -0.3210 c3        1 GSF     -0.063400
      2 CG1         2.7190   -0.0580    0.7220 c3        1 GSF     -0.138400
      3 CD1         1.3750   -0.6430    0.3500 c         1 GSF      0.681100
      4 OE1         1.2570   -1.8600    0.0330 o         1 GSF     -0.703100
      5 C1          5.3290    2.0650   -1.1640 c         1 GSF      0.889600
      6 O11         5.3520    1.3770   -2.2210 o         1 GSF     -0.843800
      7 O12         5.8720    3.2010   -1.0390 o         1 GSF     -0.843800
      8 N1          4.5580    2.3430    1.2410 n3        1 GSF     -0.895800
      9 CA1         4.6230    1.4500    0.0910 c3        1 GSF      0.018500
     10 N2          0.2630    0.1580    0.3800 n         1 GSF     -0.547900
     11 CA2        -1.0610   -0.3230    0.0520 c3        1 GSF      0.066700
     12 CB2        -1.5640   -1.4640    0.9370 c3        1 GSF     -0.168100
     13 SG2        -0.6710   -2.9600    0.6860 s4        1 GSF      0.672700
     14 O1S        -0.0750   -3.2760    1.9870 o         1 GSF     -0.558200
     15 O2S        -1.9700   -4.0690    0.8790 oh        1 GSF     -0.653800
     16 C2         -2.1010    0.8320    0.1520 c         1 GSF      0.635100
     17 O2         -1.8820    1.8140    0.9000 o         1 GSF     -0.654100
     18 N3         -3.2080    0.7260   -0.6360 n         1 GSF     -0.510900
     19 CA3        -4.3360    1.6150   -0.5180 c3        1 GSF     -0.051000
     20 C3         -5.6730    0.9910   -1.0160 c         1 GSF      0.908600
     21 O31        -6.6920    1.7270   -0.9270 o         1 GSF     -0.838800
     22 O32        -5.6690   -0.1870   -1.4730 o         1 GSF     -0.838800
     23 HB11        3.3900    0.3710   -1.3030 hc        1 GSF      0.059200
     24 HB12        2.5300    1.7400   -0.4840 hc        1 GSF      0.059200
     25 HG11        3.4320   -0.9170    0.8430 hc        1 GSF      0.073200
     26 HG12        2.6340    0.4580    1.7150 hc        1 GSF      0.073200
     27 HN11        5.4400    2.8280    1.2900 hn        1 GSF      0.332300
     28 HN12        3.8620    3.0460    1.0620 hn        1 GSF      0.332300
     29 HA1         5.2680    0.5770    0.4060 h1        1 GSF      0.040700
     30 HN2         0.3290    1.0950    0.7160 hn        1 GSF      0.345500
     31 HA2        -1.0220   -0.7000   -1.0170 h1        1 GSF      0.067700
     32 HB21       -1.5450   -1.1470    2.0090 h1        1 GSF      0.107700
     33 HB22       -2.6390   -1.6610    0.6810 h1        1 GSF      0.107700
     34 H2S        -2.0060   -4.4420    1.7580 ho        1 GSF      0.424000
     35 HN3        -3.4110   -0.1400   -1.0930 hn        1 GSF      0.331500
     36 HA31       -4.4670    1.9330    0.5530 h1        1 GSF      0.041700
     37 HA32       -4.1300    2.5380   -1.1270 h1        1 GSF      0.041700
@<TRIPOS>BOND
     1    1    2 1   
     2    1    9 1   
     3    1   23 1   
     4    1   24 1   
     5    2    3 1   
     6    2   25 1   
     7    2   26 1   
     8    3    4 2   
     9    3   10 1   
    10    5    6 1   
    11    5    7 1   
    12    5    9 1   
    13    8    9 1   
    14    8   27 1   
    15    8   28 1   
    16    9   29 1   
    17   10   11 1   
    18   10   30 1   
    19   11   12 1   
    20   11   16 1   
    21   11   31 1   
    22   12   13 1   
    23   12   32 1   
    24   12   33 1   
    25   13   14 2   
    26   13   15 1   
    27   15   34 1   
    28   16   17 2   
    29   16   18 1   
    30   18   19 1   
    31   18   35 1   
    32   19   20 1   
    33   19   36 1   
    34   19   37 1   
    35   20   21 1   
    36   20   22 1   
@<TRIPOS>SUBSTRUCTURE
     1 GSF         1 TEMP              0 ****  ****    0 ROOT
