@<TRIPOS>MOLECULE
GSF
   40    39     1     0     0
SMALL
bcc


@<TRIPOS>ATOM
      1 CB1         0.1970   -0.3390    1.3860 c3        1 GSF     -0.094400
      2 CG1        -0.2230   -1.5950    2.1380 c3        1 GSF     -0.147400
      3 CD1        -1.7160   -1.6250    2.3480 c         1 GSF      0.570100
      4 OE1        -2.3210   -1.2200    3.3290 o         1 GSF     -0.434100
      5 C1          0.0690   -1.3250   -0.9260 c         1 GSF      0.936600
      6 O11        -0.4750   -2.4170   -0.6180 o         1 GSF     -0.782800
      7 O12        -0.1170   -0.6590   -1.9720 o         1 GSF     -0.782800
      8 N1          1.7400    0.4780   -0.4250 nz        1 GSF     -0.830600
      9 CA1         1.0370   -0.7060    0.1600 c3        1 GSF     -0.040500
     10 N2         -2.5080   -2.2200    1.2170 ny        1 GSF     -0.675800
     11 CA2        -3.9700   -1.8810    1.2230 c3        1 GSF      0.104500
     12 CB2        -4.5000   -1.5910   -0.1720 c3        1 GSF     -0.174100
     13 SG2        -3.7990   -0.2200   -1.0590 s4        1 GSF      0.629700
     14 O1S        -2.6150    0.1410   -0.2550 o         1 GSF     -0.591200
     15 O2S        -3.0570   -1.0950   -2.2740 oh        1 GSF     -0.581800
     16 C2         -4.7800   -3.0570    1.8280 c         1 GSF      0.647100
     17 O2         -4.2710   -4.1970    1.8860 o         1 GSF     -0.613100
     18 N3         -6.0350   -2.7880    2.2970 ns        1 GSF     -0.525900
     19 CA3        -6.8750   -3.8330    2.8200 c3        1 GSF     -0.012000
     20 C3         -7.5110   -4.6880    1.7310 c         1 GSF      0.597100
     21 O31        -8.6600   -4.5660    1.3160 o         1 GSF     -0.457000
     22 O32        -6.7830   -5.6740    1.1470 oh        1 GSF     -0.563100
     23 HB11       -0.7070    0.2420    1.0440 hc        1 GSF      0.086700
     24 HB12        0.7780    0.3180    2.0880 hc        1 GSF      0.086700
     25 HG11        0.1090   -2.5220    1.5870 hc        1 GSF      0.121700
     26 HG12        0.2490   -1.6110    3.1600 hc        1 GSF      0.121700
     27 HN11        1.1840    0.7880   -1.2520 hn        1 GSF      0.461133
     28 HN12        1.8160    1.2420    0.2450 hn        1 GSF      0.461133
     29 HA1         1.8150   -1.4740    0.4300 hx        1 GSF      0.109700
     30 HN2        -2.3920   -3.2500    1.2370 hn        1 GSF      0.504800
     31 HA2        -4.0940   -0.9610    1.8740 hx        1 GSF      0.127700
     32 HB21       -5.5990   -1.3810   -0.0830 h1        1 GSF      0.132700
     33 HB22       -4.4150   -2.5080   -0.8220 h1        1 GSF      0.132700
     34 H2S        -2.0850   -1.1030   -2.2590 ho        1 GSF      0.511000
     35 HN3        -6.4450   -1.8950    2.1510 hn        1 GSF      0.337500
     36 HA31       -6.2650   -4.5010    3.4960 h1        1 GSF      0.105200
     37 HA32       -7.7020   -3.3580    3.4230 h1        1 GSF      0.105200
     38 H13         2.6690    0.2060   -0.7480 hn        1 GSF      0.461133
     39 H22        -2.0720   -1.8790    0.3240 hn        1 GSF      0.504800
     40 H32        -5.8920   -5.7150    1.5330 ho        1 GSF      0.448000
@<TRIPOS>BOND
     1    1    2 1   
     2    1    9 1   
     3    1   23 1   
     4    1   24 1   
     5    2    3 1   
     6    2   25 1   
     7    2   26 1   
     8    3    4 2   
     9    3   10 1   
    10    5    6 1   
    11    5    7 1   
    12    5    9 1   
    13    8    9 1   
    14    8   27 1   
    15    8   28 1   
    16    8   38 1   
    17    9   29 1   
    18   10   11 1   
    19   10   30 1   
    20   10   39 1   
    21   11   12 1   
    22   11   16 1   
    23   11   31 1   
    24   12   13 1   
    25   12   32 1   
    26   12   33 1   
    27   13   14 2   
    28   13   15 1   
    29   15   34 1   
    30   16   17 2   
    31   16   18 1   
    32   18   19 1   
    33   18   35 1   
    34   19   20 1   
    35   19   36 1   
    36   19   37 1   
    37   20   21 2   
    38   20   22 1   
    39   22   40 1   
@<TRIPOS>SUBSTRUCTURE
     1 GSF         1 TEMP              0 ****  ****    0 ROOT
