@<TRIPOS>MOLECULE
GSG
   56    59     1     0     0
SMALL
bcc


@<TRIPOS>ATOM
      1 C1          0.4670    0.2920   -1.1830 ca        1 GSG     -0.062400
      2 C2          1.4510    0.0660   -0.1980 ca        1 GSG     -0.028300
      3 C3          1.9030    1.1720    0.5370 ca        1 GSG     -0.112000
      4 C4          1.4000    2.4490    0.3060 ca        1 GSG     -0.066000
      5 C5          0.4260    2.6550   -0.6740 ca        1 GSG     -0.109000
      6 C6         -0.0470    1.5830   -1.4210 ca        1 GSG     -0.099000
      7 N1         -0.0360   -0.8150   -2.0050 n4        1 GSG     -0.506200
      8 C7         -1.4920   -1.0990   -1.7440 c         1 GSG      0.608100
      9 O1         -1.8390   -1.9730   -0.9670 o         1 GSG     -0.404000
     10 C8          2.0380   -1.2750    0.0830 c3        1 GSG     -0.068100
     11 C9          1.1170   -2.1590    0.8900 c3        1 GSG     -0.109100
     12 O2         -2.2710   -0.2780   -2.4950 os        1 GSG     -0.301200
     13 C10        -3.6660   -0.4460   -2.3810 ca        1 GSG     -0.022900
     14 C11        -4.3470    0.2220   -1.3640 ca        1 GSG     -0.052000
     15 C12        -5.7420    0.1910   -1.3310 ca        1 GSG     -0.180000
     16 C13        -6.4290   -0.5200   -2.3220 ca        1 GSG      0.195600
     17 N2         -7.8190   -0.6670   -2.4950 nh        1 GSG     -0.601000
     18 C14        -8.7700   -0.4350   -1.4550 c3        1 GSG      0.181100
     19 C15        -7.9360   -1.8360   -3.3670 c3        1 GSG      0.327700
     20 C16        -6.7010   -1.6880   -4.3720 c3        1 GSG     -0.005700
     21 C17        -5.6860   -1.2020   -3.3760 ca        1 GSG     -0.112300
     22 C18        -4.3150   -1.1740   -3.4010 ca        1 GSG     -0.055000
     23 C19        -6.8600   -0.5780   -5.4080 c3        1 GSG     -0.090100
     24 C20        -6.8280   -3.0320   -5.0740 c3        1 GSG     -0.072400
     25 C21        -8.3620   -3.2010   -5.2270 c3        1 GSG      0.072800
     26 N3         -9.1220   -2.2240   -4.2630 n4        1 GSG     -0.123600
     27 O3         -9.6790   -1.2740   -4.8700 o         1 GSG     -0.598000
     28 C22       -10.1000   -3.0260   -3.4410 c3        1 GSG      0.074100
     29 H3          2.6730    1.0190    1.3130 ha        1 GSG      0.169000
     30 H4          1.7730    3.3020    0.8990 ha        1 GSG      0.170000
     31 H5          0.0290    3.6670   -0.8590 ha        1 GSG      0.171000
     32 H6         -0.8250    1.7470   -2.1870 ha        1 GSG      0.167000
     33 HN1         0.4940   -1.6740   -1.7930 hn        1 GSG      0.475300
     34 H81         2.9980   -1.1410    0.6570 hc        1 GSG      0.066200
     35 H82         2.3300   -1.7860   -0.8750 hc        1 GSG      0.066200
     36 H91         0.8930   -1.6920    1.8800 hc        1 GSG      0.055033
     37 H92         1.6100   -3.1460    1.0740 hc        1 GSG      0.055033
     38 H93         0.1480   -2.3410    0.3660 hc        1 GSG      0.055033
     39 H11        -3.7930    0.7720   -0.5890 ha        1 GSG      0.149000
     40 H12        -6.2840    0.7240   -0.5350 ha        1 GSG      0.162000
     41 H141       -8.7980   -1.2710   -0.7030 h1        1 GSG      0.057367
     42 H142       -9.7830   -0.3330   -1.9330 h1        1 GSG      0.057367
     43 H143       -8.5180    0.5220   -0.9280 h1        1 GSG      0.057367
     44 H15        -7.7610   -2.7590   -2.7200 hx        1 GSG      0.046700
     45 H18        -3.7370   -1.6730   -4.1920 ha        1 GSG      0.153000
     46 H191       -7.7460   -0.7640   -6.0660 hc        1 GSG      0.061700
     47 H192       -7.0090    0.4120   -4.9140 hc        1 GSG      0.061700
     48 H193       -5.9380   -0.5370   -6.0370 hc        1 GSG      0.061700
     49 H201       -6.3960   -3.8640   -4.4680 hc        1 GSG      0.064200
     50 H202       -6.3410   -3.0310   -6.0790 hc        1 GSG      0.064200
     51 H211       -8.6660   -4.2520   -5.0000 hx        1 GSG      0.088700
     52 H212       -8.6910   -2.9220   -6.2620 hx        1 GSG      0.088700
     53 H221      -10.9220   -3.3600   -4.1240 hx        1 GSG      0.073700
     54 H222       -9.6000   -3.9080   -2.9710 hx        1 GSG      0.073700
     55 H223      -10.5280   -2.3530   -2.6550 hx        1 GSG      0.073700
     56 H121        0.0810   -0.5650   -2.9960 hn        1 GSG      0.475300
@<TRIPOS>BOND
     1    1    2 ar  
     2    1    6 ar  
     3    1    7 1   
     4    2    3 ar  
     5    2   10 1   
     6    3    4 ar  
     7    3   29 1   
     8    4    5 ar  
     9    4   30 1   
    10    5    6 ar  
    11    5   31 1   
    12    6   32 1   
    13    7    8 1   
    14    7   33 1   
    15    7   56 1   
    16    8    9 2   
    17    8   12 1   
    18   10   11 1   
    19   10   34 1   
    20   10   35 1   
    21   11   36 1   
    22   11   37 1   
    23   11   38 1   
    24   12   13 1   
    25   13   14 ar  
    26   13   22 ar  
    27   14   15 ar  
    28   14   39 1   
    29   15   16 ar  
    30   15   40 1   
    31   16   17 1   
    32   16   21 ar  
    33   17   18 1   
    34   17   19 1   
    35   18   41 1   
    36   18   42 1   
    37   18   43 1   
    38   19   20 1   
    39   19   26 1   
    40   19   44 1   
    41   20   21 1   
    42   20   23 1   
    43   20   24 1   
    44   21   22 ar  
    45   22   45 1   
    46   23   46 1   
    47   23   47 1   
    48   23   48 1   
    49   24   25 1   
    50   24   49 1   
    51   24   50 1   
    52   25   26 1   
    53   25   51 1   
    54   25   52 1   
    55   26   27 1   
    56   26   28 1   
    57   28   53 1   
    58   28   54 1   
    59   28   55 1   
@<TRIPOS>SUBSTRUCTURE
     1 GSG         1 TEMP              0 ****  ****    0 ROOT
