@<TRIPOS>MOLECULE
GSG
   55    58     1     0     0
SMALL
bcc


@<TRIPOS>ATOM
      1 C1          1.0830   -1.4160    5.2120 ca        1 GSG      0.066600
      2 C2          1.5560   -0.6550    6.3140 ca        1 GSG     -0.117300
      3 C3          0.8800   -0.7450    7.5360 ca        1 GSG     -0.106000
      4 C4         -0.2450   -1.5500    7.6860 ca        1 GSG     -0.148000
      5 C5         -0.7140   -2.2850    6.5990 ca        1 GSG     -0.108000
      6 C6         -0.0620   -2.2260    5.3730 ca        1 GSG     -0.149000
      7 N1          1.7880   -1.3860    3.9920 n         1 GSG     -0.439100
      8 C7          1.2160   -1.6560    2.7620 c         1 GSG      0.746100
      9 O1          0.1360   -2.1870    2.4780 o         1 GSG     -0.556000
     10 C8          2.7410    0.2440    6.2240 c3        1 GSG     -0.041100
     11 C9          4.0480   -0.5020    6.3500 c3        1 GSG     -0.095100
     12 O2          2.0750   -1.2550    1.7400 os        1 GSG     -0.373200
     13 C10         1.7630   -1.6500    0.4380 ca        1 GSG      0.083100
     14 C11         0.5500   -1.3210   -0.1610 ca        1 GSG     -0.097000
     15 C12         0.3200   -1.6400   -1.5060 ca        1 GSG     -0.144000
     16 C13         1.3230   -2.2770   -2.2280 ca        1 GSG      0.101600
     17 N2          1.3140   -2.6680   -3.6150 nh        1 GSG     -0.565000
     18 C14         0.0570   -3.0240   -4.2110 c3        1 GSG      0.157100
     19 C15         2.3640   -3.6990   -3.6320 c3        1 GSG      0.317700
     20 C16         3.4940   -3.1220   -2.6620 c3        1 GSG      0.002300
     21 C17         2.5840   -2.5940   -1.5900 ca        1 GSG     -0.102300
     22 C18         2.8040   -2.2930   -0.2670 ca        1 GSG     -0.086000
     23 C19         4.2610   -1.9330   -3.2310 c3        1 GSG     -0.087100
     24 C20         4.4130   -4.3350   -2.6370 c3        1 GSG     -0.073400
     25 C21         4.3610   -4.8460   -4.0980 c3        1 GSG      0.071800
     26 N3          3.1270   -4.2350   -4.8490 n4        1 GSG     -0.123600
     27 O3          3.4640   -3.3870   -5.7170 o         1 GSG     -0.609000
     28 C22         2.3340   -5.3680   -5.4510 c3        1 GSG      0.072100
     29 H3          1.2480   -0.1600    8.3930 ha        1 GSG      0.133000
     30 H4         -0.7610   -1.6020    8.6550 ha        1 GSG      0.135000
     31 H5         -1.6060   -2.9210    6.7060 ha        1 GSG      0.137000
     32 H6         -0.4520   -2.8120    4.5240 ha        1 GSG      0.170000
     33 HN1         2.6550   -0.8900    3.9800 hn        1 GSG      0.338500
     34 H81         2.7230    0.8260    5.2630 hc        1 GSG      0.048200
     35 H82         2.6840    1.0090    7.0480 hc        1 GSG      0.048200
     36 H91         4.1040   -1.0280    7.3340 hc        1 GSG      0.038700
     37 H92         4.9030    0.2140    6.2830 hc        1 GSG      0.038700
     38 H93         4.1640   -1.2660    5.5440 hc        1 GSG      0.038700
     39 H11        -0.2410   -0.8380    0.4330 ha        1 GSG      0.159000
     40 H12        -0.6440   -1.3820   -1.9680 ha        1 GSG      0.145000
     41 H141       -0.6700   -2.1860   -4.0520 h1        1 GSG      0.045033
     42 H142       -0.3870   -3.9710   -3.7960 h1        1 GSG      0.045033
     43 H143        0.2260   -3.1530   -5.3140 h1        1 GSG      0.045033
     44 H15         1.9380   -4.6400   -3.1450 hx        1 GSG      0.037700
     45 H18         3.7540   -2.5200    0.2350 ha        1 GSG      0.152000
     46 H191        5.0070   -1.5890   -2.4740 hc        1 GSG      0.057033
     47 H192        4.7920   -2.2120   -4.1740 hc        1 GSG      0.057033
     48 H193        3.5680   -1.0900   -3.4660 hc        1 GSG      0.057033
     49 H201        4.0480   -5.1170   -1.9280 hc        1 GSG      0.060200
     50 H202        5.4600   -4.0640   -2.3610 hc        1 GSG      0.060200
     51 H211        5.2630   -4.5060   -4.6690 hx        1 GSG      0.078200
     52 H212        4.2920   -5.9620   -4.1220 hx        1 GSG      0.078200
     53 H221        2.1120   -6.1540   -4.6880 hx        1 GSG      0.066700
     54 H222        1.3820   -4.9450   -5.8610 hx        1 GSG      0.066700
     55 H223        2.9360   -5.7980   -6.2900 hx        1 GSG      0.066700
@<TRIPOS>BOND
     1    1    2 ar  
     2    1    6 ar  
     3    1    7 1   
     4    2    3 ar  
     5    2   10 1   
     6    3    4 ar  
     7    3   29 1   
     8    4    5 ar  
     9    4   30 1   
    10    5    6 ar  
    11    5   31 1   
    12    6   32 1   
    13    7    8 1   
    14    7   33 1   
    15    8    9 2   
    16    8   12 1   
    17   10   11 1   
    18   10   34 1   
    19   10   35 1   
    20   11   36 1   
    21   11   37 1   
    22   11   38 1   
    23   12   13 1   
    24   13   14 ar  
    25   13   22 ar  
    26   14   15 ar  
    27   14   39 1   
    28   15   16 ar  
    29   15   40 1   
    30   16   17 1   
    31   16   21 ar  
    32   17   18 1   
    33   17   19 1   
    34   18   41 1   
    35   18   42 1   
    36   18   43 1   
    37   19   20 1   
    38   19   26 1   
    39   19   44 1   
    40   20   21 1   
    41   20   23 1   
    42   20   24 1   
    43   21   22 ar  
    44   22   45 1   
    45   23   46 1   
    46   23   47 1   
    47   23   48 1   
    48   24   25 1   
    49   24   49 1   
    50   24   50 1   
    51   25   26 1   
    52   25   51 1   
    53   25   52 1   
    54   26   27 1   
    55   26   28 1   
    56   28   53 1   
    57   28   54 1   
    58   28   55 1   
@<TRIPOS>SUBSTRUCTURE
     1 GSG         1 TEMP              0 ****  ****    0 ROOT
