@<TRIPOS>MOLECULE
GSG
   55    58     1     0     0
SMALL
bcc


@<TRIPOS>ATOM
      1 C1          0.0620   -0.4170   -0.0620 ca        1 GSG      0.071600
      2 C2          1.3870    0.0830    0.0530 ca        1 GSG     -0.118300
      3 C3          2.0800   -0.1100    1.2520 ca        1 GSG     -0.105000
      4 C4          1.4970   -0.7680    2.3310 ca        1 GSG     -0.149000
      5 C5          0.1940   -1.2480    2.2200 ca        1 GSG     -0.107000
      6 C6         -0.5220   -1.0800    1.0400 ca        1 GSG     -0.153000
      7 N1         -0.6280   -0.2770   -1.2810 ns        1 GSG     -0.443100
      8 C7         -2.0010   -0.3410   -1.4160 c         1 GSG      0.749100
      9 O1         -2.8720   -0.7190   -0.6230 o         1 GSG     -0.558000
     10 C8          2.0710    0.8150   -1.0500 c3        1 GSG     -0.040100
     11 C9          2.6480   -0.1130   -2.0940 c3        1 GSG     -0.095100
     12 O2         -2.3700    0.0700   -2.6960 os        1 GSG     -0.373200
     13 C10        -3.7230    0.0060   -3.0330 ca        1 GSG      0.089100
     14 C11        -4.2680    1.1570   -3.6040 ca        1 GSG     -0.106000
     15 C12        -5.5860    1.1480   -4.0790 ca        1 GSG     -0.146000
     16 C13        -6.3370   -0.0170   -3.9620 ca        1 GSG      0.099600
     17 N2         -7.6920   -0.2530   -4.3910 nh        1 GSG     -0.564000
     18 C14        -8.6050    0.8560   -4.3920 c3        1 GSG      0.157100
     19 C15        -8.0630   -1.4070   -3.5570 c3        1 GSG      0.316700
     20 C16        -6.7470   -2.3110   -3.5350 c3        1 GSG      0.003300
     21 C17        -5.7470   -1.2020   -3.3740 ca        1 GSG     -0.096300
     22 C18        -4.4520   -1.1940   -2.9120 ca        1 GSG     -0.083000
     23 C19        -6.4420   -3.0070   -4.8560 c3        1 GSG     -0.087100
     24 C20        -7.2030   -3.3510   -2.5220 c3        1 GSG     -0.073400
     25 C21        -8.6920   -3.5700   -2.8890 c3        1 GSG      0.072800
     26 N3         -9.2140   -2.3930   -3.7850 n4        1 GSG     -0.123600
     27 O3         -9.4190   -2.7490   -4.9760 o         1 GSG     -0.610000
     28 C22       -10.4590   -1.8320   -3.1460 c3        1 GSG      0.072100
     29 H3          3.1090    0.2730    1.3410 ha        1 GSG      0.133000
     30 H4          2.0620   -0.9060    3.2640 ha        1 GSG      0.135000
     31 H5         -0.2780   -1.7660    3.0680 ha        1 GSG      0.136000
     32 H6         -1.5540   -1.4640    0.9760 ha        1 GSG      0.170000
     33 HN1        -0.1190    0.0980   -2.0540 hn        1 GSG      0.340500
     34 H81         2.9070    1.4310   -0.6180 hc        1 GSG      0.047700
     35 H82         1.3690    1.5460   -1.5340 hc        1 GSG      0.047700
     36 H91         3.1550    0.4810   -2.8930 hc        1 GSG      0.038700
     37 H92         3.3990   -0.7990   -1.6330 hc        1 GSG      0.038700
     38 H93         1.8560   -0.7390   -2.5700 hc        1 GSG      0.038700
     39 H11        -3.6580    2.0680   -3.6890 ha        1 GSG      0.148000
     40 H12        -6.0060    2.0570   -4.5320 ha        1 GSG      0.144000
     41 H141       -8.8450    1.2430   -3.3640 h1        1 GSG      0.045033
     42 H142       -9.5550    0.5170   -4.8860 h1        1 GSG      0.045033
     43 H143       -8.1620    1.6910   -4.9960 h1        1 GSG      0.045033
     44 H15        -8.2400   -1.0270   -2.4940 hx        1 GSG      0.038700
     45 H18        -3.9930   -2.0750   -2.4420 ha        1 GSG      0.160000
     46 H191       -5.4980   -3.5950   -4.7460 hc        1 GSG      0.056700
     47 H192       -7.2730   -3.6950   -5.1490 hc        1 GSG      0.056700
     48 H193       -6.3110   -2.2620   -5.6760 hc        1 GSG      0.056700
     49 H201       -6.6380   -4.3090   -2.6190 hc        1 GSG      0.062200
     50 H202       -7.1010   -2.9820   -1.4730 hc        1 GSG      0.062200
     51 H211       -9.3180   -3.6370   -1.9660 hx        1 GSG      0.078200
     52 H212       -8.8160   -4.4980   -3.5040 hx        1 GSG      0.078200
     53 H221      -10.2870   -1.5970   -2.0670 hx        1 GSG      0.066033
     54 H222      -11.2720   -2.5940   -3.2530 hx        1 GSG      0.066033
     55 H223      -10.7490   -0.9060   -3.7040 hx        1 GSG      0.066033
@<TRIPOS>BOND
     1    1    2 ar  
     2    1    6 ar  
     3    1    7 1   
     4    2    3 ar  
     5    2   10 1   
     6    3    4 ar  
     7    3   29 1   
     8    4    5 ar  
     9    4   30 1   
    10    5    6 ar  
    11    5   31 1   
    12    6   32 1   
    13    7    8 1   
    14    7   33 1   
    15    8    9 2   
    16    8   12 1   
    17   10   11 1   
    18   10   34 1   
    19   10   35 1   
    20   11   36 1   
    21   11   37 1   
    22   11   38 1   
    23   12   13 1   
    24   13   14 ar  
    25   13   22 ar  
    26   14   15 ar  
    27   14   39 1   
    28   15   16 ar  
    29   15   40 1   
    30   16   17 1   
    31   16   21 ar  
    32   17   18 1   
    33   17   19 1   
    34   18   41 1   
    35   18   42 1   
    36   18   43 1   
    37   19   20 1   
    38   19   26 1   
    39   19   44 1   
    40   20   21 1   
    41   20   23 1   
    42   20   24 1   
    43   21   22 ar  
    44   22   45 1   
    45   23   46 1   
    46   23   47 1   
    47   23   48 1   
    48   24   25 1   
    49   24   49 1   
    50   24   50 1   
    51   25   26 1   
    52   25   51 1   
    53   25   52 1   
    54   26   27 1   
    55   26   28 1   
    56   28   53 1   
    57   28   54 1   
    58   28   55 1   
@<TRIPOS>SUBSTRUCTURE
     1 GSG         1 TEMP              0 ****  ****    0 ROOT
