@<TRIPOS>MOLECULE
GSG
   55    58     1     0     0
SMALL
bcc


@<TRIPOS>ATOM
      1 C1          0.0540   -0.4200   -0.0470 ca        1 GSG      0.071600
      2 C2          1.3810    0.0760    0.0690 ca        1 GSG     -0.118300
      3 C3          2.0660   -0.1030    1.2750 ca        1 GSG     -0.105000
      4 C4          1.4730   -0.7440    2.3590 ca        1 GSG     -0.149000
      5 C5          0.1690   -1.2190    2.2460 ca        1 GSG     -0.107000
      6 C6         -0.5390   -1.0640    1.0600 ca        1 GSG     -0.153000
      7 N1         -0.6280   -0.2930   -1.2730 n         1 GSG     -0.443100
      8 C7         -2.0000   -0.3480   -1.4140 c         1 GSG      0.749100
      9 O1         -2.8780   -0.7100   -0.6200 o         1 GSG     -0.558000
     10 C8          2.0750    0.7900   -1.0400 c3        1 GSG     -0.040100
     11 C9          2.6550   -0.1540   -2.0670 c3        1 GSG     -0.095100
     12 O2         -2.3600    0.0480   -2.7010 os        1 GSG     -0.373200
     13 C10        -3.7110   -0.0100   -3.0440 ca        1 GSG      0.089100
     14 C11        -4.2440    1.1370   -3.6340 ca        1 GSG     -0.106000
     15 C12        -5.5600    1.1320   -4.1150 ca        1 GSG     -0.146000
     16 C13        -6.3200   -0.0260   -3.9870 ca        1 GSG      0.099600
     17 N2         -7.6750   -0.2560   -4.4200 nh        1 GSG     -0.564000
     18 C14        -8.5790    0.8590   -4.4410 c3        1 GSG      0.157100
     19 C15        -8.0590   -1.3960   -3.5720 c3        1 GSG      0.316700
     20 C16        -6.7510   -2.3100   -3.5300 c3        1 GSG      0.003300
     21 C17        -5.7440   -1.2060   -3.3790 ca        1 GSG     -0.096300
     22 C18        -4.4510   -1.2020   -2.9100 ca        1 GSG     -0.083000
     23 C19        -6.4440   -3.0270   -4.8400 c3        1 GSG     -0.087100
     24 C20        -7.2200   -3.3330   -2.5050 c3        1 GSG     -0.073400
     25 C21        -8.7090   -3.5450   -2.8770 c3        1 GSG      0.072800
     26 N3         -9.2170   -2.3770   -3.7930 n4        1 GSG     -0.123600
     27 O3         -9.4180   -2.7480   -4.9790 o         1 GSG     -0.610000
     28 C22       -10.4610   -1.7970   -3.1680 c3        1 GSG      0.072100
     29 H3          3.0960    0.2760    1.3650 ha        1 GSG      0.133000
     30 H4          2.0320   -0.8710    3.2970 ha        1 GSG      0.135000
     31 H5         -0.3110   -1.7240    3.0990 ha        1 GSG      0.136000
     32 H6         -1.5730   -1.4450    0.9940 ha        1 GSG      0.170000
     33 HN1        -0.1120    0.0680   -2.0470 hn        1 GSG      0.340500
     34 H81         2.9110    1.4090   -0.6110 hc        1 GSG      0.047700
     35 H82         1.3790    1.5170   -1.5380 hc        1 GSG      0.047700
     36 H91         1.8630   -0.7840   -2.5390 hc        1 GSG      0.038700
     37 H92         3.1690    0.4260   -2.8710 hc        1 GSG      0.038700
     38 H93         3.4010   -0.8370   -1.5910 hc        1 GSG      0.038700
     39 H11        -3.6270    2.0420   -3.7280 ha        1 GSG      0.148000
     40 H12        -5.9700    2.0380   -4.5830 ha        1 GSG      0.144000
     41 H141       -8.8220    1.2620   -3.4190 h1        1 GSG      0.045033
     42 H142       -8.1260    1.6820   -5.0540 h1        1 GSG      0.045033
     43 H143       -9.5290    0.5210   -4.9350 h1        1 GSG      0.045033
     44 H15        -8.2390   -1.0000   -2.5150 hx        1 GSG      0.038700
     45 H18        -4.0010   -2.0800   -2.4260 ha        1 GSG      0.160000
     46 H191       -5.5060   -3.6200   -4.7160 hc        1 GSG      0.056700
     47 H192       -7.2790   -3.7130   -5.1270 hc        1 GSG      0.056700
     48 H193       -6.3030   -2.2940   -5.6700 hc        1 GSG      0.056700
     49 H201       -6.6620   -4.2960   -2.5860 hc        1 GSG      0.062200
     50 H202       -7.1210   -2.9500   -1.4610 hc        1 GSG      0.062200
     51 H211       -9.3410   -3.5940   -1.9570 hx        1 GSG      0.078200
     52 H212       -8.8370   -4.4810   -3.4800 hx        1 GSG      0.078200
     53 H221      -10.2930   -1.5480   -2.0920 hx        1 GSG      0.066033
     54 H222      -10.7400   -0.8760   -3.7400 hx        1 GSG      0.066033
     55 H223      -11.2790   -2.5540   -3.2690 hx        1 GSG      0.066033
@<TRIPOS>BOND
     1    1    2 ar  
     2    1    6 ar  
     3    1    7 1   
     4    2    3 ar  
     5    2   10 1   
     6    3    4 ar  
     7    3   29 1   
     8    4    5 ar  
     9    4   30 1   
    10    5    6 ar  
    11    5   31 1   
    12    6   32 1   
    13    7    8 1   
    14    7   33 1   
    15    8    9 2   
    16    8   12 1   
    17   10   11 1   
    18   10   34 1   
    19   10   35 1   
    20   11   36 1   
    21   11   37 1   
    22   11   38 1   
    23   12   13 1   
    24   13   14 ar  
    25   13   22 ar  
    26   14   15 ar  
    27   14   39 1   
    28   15   16 ar  
    29   15   40 1   
    30   16   17 1   
    31   16   21 ar  
    32   17   18 1   
    33   17   19 1   
    34   18   41 1   
    35   18   42 1   
    36   18   43 1   
    37   19   20 1   
    38   19   26 1   
    39   19   44 1   
    40   20   21 1   
    41   20   23 1   
    42   20   24 1   
    43   21   22 ar  
    44   22   45 1   
    45   23   46 1   
    46   23   47 1   
    47   23   48 1   
    48   24   25 1   
    49   24   49 1   
    50   24   50 1   
    51   25   26 1   
    52   25   51 1   
    53   25   52 1   
    54   26   27 1   
    55   26   28 1   
    56   28   53 1   
    57   28   54 1   
    58   28   55 1   
@<TRIPOS>SUBSTRUCTURE
     1 GSG         1 TEMP              0 ****  ****    0 ROOT
