@<TRIPOS>MOLECULE
GSH
   38    37     1     0     0
SMALL
bcc


@<TRIPOS>ATOM
      1 N1          1.4100   -0.2490    0.4930 n4        1 GSH     -0.824600
      2 CA1         1.0830    0.0220   -0.9400 c3        1 GSH     -0.043500
      3 C1          2.3850    0.5330   -1.6580 c         1 GSH      0.889600
      4 O11         3.0880    1.3510   -1.0050 o         1 GSH     -0.777300
      5 O12         2.5530    0.1790   -2.8470 o         1 GSH     -0.777300
      6 CB1         0.0010    1.0960   -1.0970 c3        1 GSH     -0.084400
      7 CG1        -0.0150    1.6730   -2.5040 c3        1 GSH     -0.149400
      8 CD1         0.7650    2.9650   -2.5850 c         1 GSH      0.563100
      9 OE1         0.3840    4.0490   -2.1630 o         1 GSH     -0.439100
     10 N2          2.1180    2.9110   -3.2280 n4        1 GSH     -0.687800
     11 CA2         2.4240    4.0790   -4.1120 c3        1 GSH      0.052500
     12 C2          1.7690    3.9040   -5.5040 c         1 GSH      0.642100
     13 O2          1.2550    2.8150   -5.8220 o         1 GSH     -0.584100
     14 CB2         3.9340    4.2520   -4.2980 c3        1 GSH     -0.051300
     15 SG2         4.7210    4.2770   -2.7180 sh        1 GSH     -0.311900
     16 N3          1.7260    5.0230   -6.3070 n         1 GSH     -0.502900
     17 CA3         1.4550    4.9010   -7.7160 c3        1 GSH     -0.026000
     18 C3          2.7110    4.8990   -8.5730 c         1 GSH      0.599100
     19 O31         2.5890    4.7470   -9.9170 oh        1 GSH     -0.544100
     20 O32         3.8650    5.0310   -8.1680 o         1 GSH     -0.491000
     21 HN11        0.5770   -0.2210    1.0810 hn        1 GSH      0.461133
     22 HN12        2.0840    0.4770    0.7980 hn        1 GSH      0.461133
     23 HA1         0.7470   -0.9410   -1.4190 hx        1 GSH      0.122700
     24 HB12       -1.0050    0.6370   -0.8950 hc        1 GSH      0.077700
     25 HB13        0.1510    1.9250   -0.3530 hc        1 GSH      0.077700
     26 HG12       -1.0750    1.9370   -2.7830 hc        1 GSH      0.126200
     27 HG13        0.3530    0.9120   -3.2490 hc        1 GSH      0.126200
     28 HN2         2.8580    2.8790   -2.4650 hn        1 GSH      0.514300
     29 HA2         2.0000    5.0020   -3.6040 hx        1 GSH      0.141700
     30 HB22        4.1180    5.2390   -4.7980 h1        1 GSH      0.117700
     31 HB23        4.3500    3.4590   -4.9670 h1        1 GSH      0.117700
     32 HSG         5.6040    3.2960   -2.8780 hs        1 GSH      0.245800
     33 HN3         2.2980    5.8010   -6.0510 hn        1 GSH      0.329500
     34 HA31        0.8200    5.7830   -8.0240 h1        1 GSH      0.109700
     35 HA32        0.8770    3.9500   -7.9110 h1        1 GSH      0.109700
     36 H13         1.8600   -1.1640    0.5700 hn        1 GSH      0.461133
     37 H22         2.2010    2.0280   -3.7740 hn        1 GSH      0.514300
     38 H32         1.6580    4.6430  -10.1630 ho        1 GSH      0.437000
@<TRIPOS>BOND
     1    1    2 1   
     2    1   21 1   
     3    1   22 1   
     4    1   36 1   
     5    2    3 1   
     6    2    6 1   
     7    2   23 1   
     8    3    4 1   
     9    3    5 1   
    10    6    7 1   
    11    6   24 1   
    12    6   25 1   
    13    7    8 1   
    14    7   26 1   
    15    7   27 1   
    16    8    9 2   
    17    8   10 1   
    18   10   11 1   
    19   10   28 1   
    20   10   37 1   
    21   11   12 1   
    22   11   14 1   
    23   11   29 1   
    24   12   13 2   
    25   12   16 1   
    26   14   15 1   
    27   14   30 1   
    28   14   31 1   
    29   15   32 1   
    30   16   17 1   
    31   16   33 1   
    32   17   18 1   
    33   17   34 1   
    34   17   35 1   
    35   18   19 1   
    36   18   20 2   
    37   19   38 1   
@<TRIPOS>SUBSTRUCTURE
     1 GSH         1 TEMP              0 ****  ****    0 ROOT
