@<TRIPOS>MOLECULE
GSH
   38    37     1     0     0
SMALL
bcc


@<TRIPOS>ATOM
      1 N1          1.2920   -0.6050    0.2020 nz        1 GSH     -0.824600
      2 CA1         0.8320   -0.0660   -1.1150 c3        1 GSH     -0.043500
      3 C1          2.0960    0.2060   -2.0090 c         1 GSH      0.889600
      4 O11         3.0820    0.7300   -1.4220 o         1 GSH     -0.777300
      5 O12         1.9800   -0.0090   -3.2360 o         1 GSH     -0.777300
      6 CB1         0.0610    1.2490   -0.9670 c3        1 GSH     -0.084400
      7 CG1        -0.0180    2.0030   -2.2850 c3        1 GSH     -0.149400
      8 CD1         1.0530    3.0640   -2.3860 c         1 GSH      0.563100
      9 OE1         1.0410    4.1390   -1.8000 o         1 GSH     -0.439100
     10 N2          2.2280    2.7730   -3.2710 ny        1 GSH     -0.687800
     11 CA2         2.6920    3.9410   -4.0800 c3        1 GSH      0.052500
     12 C2          1.8070    4.1270   -5.3380 c         1 GSH      0.642100
     13 O2          0.9810    3.2510   -5.6570 o         1 GSH     -0.584100
     14 CB2         4.1460    3.7660   -4.5240 c3        1 GSH     -0.051300
     15 SG2         5.1450    3.3780   -3.1220 sh        1 GSH     -0.311900
     16 N3          1.9380    5.3230   -6.0090 ns        1 GSH     -0.502900
     17 CA3         1.4310    5.4690   -7.3490 c3        1 GSH     -0.026000
     18 C3          2.4930    5.2800   -8.4200 c         1 GSH      0.599100
     19 O31         2.1310    5.3510   -9.7260 oh        1 GSH     -0.544100
     20 O32         3.6910    5.0700   -8.2230 o         1 GSH     -0.491000
     21 HN11        1.4910   -1.6040    0.1070 hn        1 GSH      0.461133
     22 HN12        0.5970   -0.4570    0.9320 hn        1 GSH      0.461133
     23 HA1         0.1840   -0.8430   -1.6120 hx        1 GSH      0.122700
     24 HB12        0.5360    1.9060   -0.1890 hc        1 GSH      0.077700
     25 HB13       -0.9870    1.0260   -0.6280 hc        1 GSH      0.077700
     26 HG12       -1.0010    2.5540   -2.3380 hc        1 GSH      0.126200
     27 HG13        0.0170    1.2870   -3.1550 hc        1 GSH      0.126200
     28 HN2         1.9900    1.9800   -3.9040 hn        1 GSH      0.514300
     29 HA2         2.6090    4.8600   -3.4180 hx        1 GSH      0.141700
     30 HB22        4.2290    2.9960   -5.3310 h1        1 GSH      0.117700
     31 HB23        4.5050    4.7380   -4.9540 h1        1 GSH      0.117700
     32 HSG         5.7030    2.2440   -3.5340 hs        1 GSH      0.245800
     33 HN3         1.1790    5.5130   -9.8050 ho        1 GSH      0.437000
     34 HA31        0.6000    4.7240   -7.5240 h1        1 GSH      0.109700
     35 HA32        1.0110    6.5130   -7.4490 h1        1 GSH      0.109700
     36 H13         2.1730   -0.1150    0.4440 hn        1 GSH      0.461133
     37 H22         3.0410    2.4550   -2.6630 hn        1 GSH      0.514300
     38 H32         2.7270    5.8960   -5.7900 hn        1 GSH      0.329500
@<TRIPOS>BOND
     1    1    2 1   
     2    1   21 1   
     3    1   22 1   
     4    1   36 1   
     5    2    3 1   
     6    2    6 1   
     7    2   23 1   
     8    3    4 1   
     9    3    5 1   
    10    6    7 1   
    11    6   24 1   
    12    6   25 1   
    13    7    8 1   
    14    7   26 1   
    15    7   27 1   
    16    8    9 2   
    17    8   10 1   
    18   10   11 1   
    19   10   28 1   
    20   10   37 1   
    21   11   12 1   
    22   11   14 1   
    23   11   29 1   
    24   12   13 2   
    25   12   16 1   
    26   14   15 1   
    27   14   30 1   
    28   14   31 1   
    29   15   32 1   
    30   16   17 1   
    31   16   38 1   
    32   17   18 1   
    33   17   34 1   
    34   17   35 1   
    35   18   19 1   
    36   18   20 2   
    37   19   33 1   
@<TRIPOS>SUBSTRUCTURE
     1 GSH         1 TEMP              0 ****  ****    0 ROOT
