@<TRIPOS>MOLECULE
GSH
   38    37     1     0     0
SMALL
bcc


@<TRIPOS>ATOM
      1 N1          1.4410   -0.3260    0.4420 n4        1 GSH     -0.824600
      2 CA1         1.0510    0.0090   -0.9620 c3        1 GSH     -0.043500
      3 C1          2.3420    0.4430   -1.7470 c         1 GSH      0.889600
      4 O11         3.1420    1.1890   -1.1190 o         1 GSH     -0.777300
      5 O12         2.4120    0.1120   -2.9510 o         1 GSH     -0.777300
      6 CB1         0.0440    1.1620   -1.0270 c3        1 GSH     -0.084400
      7 CG1        -0.0120    1.7790   -2.4160 c3        1 GSH     -0.149400
      8 CD1         0.8560    3.0120   -2.5150 c         1 GSH      0.563100
      9 OE1         0.5820    4.1090   -2.0440 o         1 GSH     -0.439100
     10 N2          2.1600    2.8780   -3.2410 n4        1 GSH     -0.687800
     11 CA2         2.4990    4.0440   -4.1140 c3        1 GSH      0.052500
     12 C2          1.7500    3.9570   -5.4670 c         1 GSH      0.641100
     13 O2          1.1390    2.9170   -5.7790 o         1 GSH     -0.584100
     14 CB2         4.0040    4.1120   -4.3880 c3        1 GSH     -0.051300
     15 SG2         4.8830    4.0350   -2.8600 sh        1 GSH     -0.311900
     16 N3          1.7430    5.0990   -6.2380 n         1 GSH     -0.502900
     17 CA3         1.3800    5.0380   -7.6300 c3        1 GSH     -0.026000
     18 C3          2.5780    4.9700   -8.5630 c         1 GSH      0.599100
     19 O31         2.3650    4.8670   -9.9000 oh        1 GSH     -0.544100
     20 O32         3.7610    5.0080   -8.2270 o         1 GSH     -0.491000
     21 HN11        2.1850    0.3400    0.7220 hn        1 GSH      0.461133
     22 HN12        1.8250   -1.2730    0.4690 hn        1 GSH      0.461133
     23 HA1         0.6160   -0.9140   -1.4420 hx        1 GSH      0.122700
     24 HB12        0.2990    1.9570   -0.2750 hc        1 GSH      0.077700
     25 HB13       -0.9790    0.7730   -0.7750 hc        1 GSH      0.077700
     26 HG12       -1.0650    2.1270   -2.6240 hc        1 GSH      0.126200
     27 HG13        0.2530    1.0140   -3.2010 hc        1 GSH      0.126200
     28 HN2         2.1440    2.0060   -3.8120 hn        1 GSH      0.514300
     29 HA2         2.1760    4.9810   -3.5590 hx        1 GSH      0.141700
     30 HB22        4.2310    5.0960   -4.8750 h1        1 GSH      0.117700
     31 HB23        4.3180    3.3090   -5.1000 h1        1 GSH      0.117700
     32 HSG         5.6800    2.9980   -3.0970 hs        1 GSH      0.245800
     33 HN3         2.3850    5.8270   -5.9990 hn        1 GSH      0.329500
     34 HA31        0.7230    4.1370   -7.8130 h1        1 GSH      0.109200
     35 HA32        0.7930    5.9720   -7.8770 h1        1 GSH      0.109200
     36 H13         0.6490   -0.2530    1.0800 hn        1 GSH      0.461133
     37 H22         2.9390    2.7700   -2.5260 hn        1 GSH      0.514300
     38 H32         1.4160    4.8370  -10.0910 ho        1 GSH      0.437000
@<TRIPOS>BOND
     1    1    2 1   
     2    1   21 1   
     3    1   22 1   
     4    1   36 1   
     5    2    3 1   
     6    2    6 1   
     7    2   23 1   
     8    3    4 1   
     9    3    5 1   
    10    6    7 1   
    11    6   24 1   
    12    6   25 1   
    13    7    8 1   
    14    7   26 1   
    15    7   27 1   
    16    8    9 2   
    17    8   10 1   
    18   10   11 1   
    19   10   28 1   
    20   10   37 1   
    21   11   12 1   
    22   11   14 1   
    23   11   29 1   
    24   12   13 2   
    25   12   16 1   
    26   14   15 1   
    27   14   30 1   
    28   14   31 1   
    29   15   32 1   
    30   16   17 1   
    31   16   33 1   
    32   17   18 1   
    33   17   34 1   
    34   17   35 1   
    35   18   19 1   
    36   18   20 2   
    37   19   38 1   
@<TRIPOS>SUBSTRUCTURE
     1 GSH         1 TEMP              0 ****  ****    0 ROOT
