@<TRIPOS>MOLECULE
GSH
   35    34     1     0     0
SMALL
bcc


@<TRIPOS>ATOM
      1 N1          5.1090    1.7790   -0.7670 n3        1 GSH     -0.895800
      2 CA1         4.5330    1.1330    0.4060 c3        1 GSH      0.019500
      3 C1          5.5370    0.2310    1.2000 c         1 GSH      0.888600
      4 O11         6.7320    0.1630    0.7860 o         1 GSH     -0.844800
      5 O12         5.1080   -0.3580    2.2300 o         1 GSH     -0.844800
      6 CB1         3.2810    0.3090    0.0950 c3        1 GSH     -0.062400
      7 CG1         2.1580    1.1760   -0.4340 c3        1 GSH     -0.143400
      8 CD1         0.9330    0.3560   -0.7900 c         1 GSH      0.658100
      9 OE1         0.7430   -0.0680   -1.9520 o         1 GSH     -0.648100
     10 N2          0.0320    0.0660    0.2180 n         1 GSH     -0.562900
     11 CA2        -1.2760   -0.4840   -0.0390 c3        1 GSH      0.026700
     12 C2         -2.3810    0.3240    0.7080 c         1 GSH      0.623100
     13 O2         -2.1090    0.9220    1.7750 o         1 GSH     -0.656100
     14 CB2        -1.4220   -1.9410    0.4140 c3        1 GSH      0.009700
     15 SG2        -0.6510   -3.1230   -0.6590 sh        1 GSH     -0.440900
     16 N3         -3.6120    0.3640    0.1250 n         1 GSH     -0.515900
     17 CA3        -4.7640    0.9350    0.7740 c3        1 GSH     -0.049000
     18 C3         -6.1190    0.4030    0.2230 c         1 GSH      0.907600
     19 O31        -6.1130   -0.4820   -0.6800 o         1 GSH     -0.840300
     20 O32        -7.1580    0.9070    0.7300 o         1 GSH     -0.840300
     21 HN11        6.0610    2.0190   -0.5370 hn        1 GSH      0.331800
     22 HN12        5.1600    1.1060   -1.5120 hn        1 GSH      0.331800
     23 HA1         4.2380    1.9660    1.1100 h1        1 GSH      0.041700
     24 HB12        3.5220   -0.4930   -0.6500 hc        1 GSH      0.056700
     25 HB13        2.9710   -0.1950    1.0490 hc        1 GSH      0.056700
     26 HG12        1.9020    1.9660    0.3190 hc        1 GSH      0.065700
     27 HG13        2.4850    1.6950   -1.3750 hc        1 GSH      0.065700
     28 HN2         0.1660    0.4650    1.1210 hn        1 GSH      0.332500
     29 HA2        -1.4610   -0.4390   -1.1570 h1        1 GSH      0.099700
     30 HB22       -1.0250   -2.0690    1.4500 h1        1 GSH      0.082200
     31 HB23       -2.5060   -2.2210    0.4160 h1        1 GSH      0.082200
     32 HSG         0.3640   -2.3970   -1.1240 hs        1 GSH      0.250800
     33 HN3        -3.8220   -0.2430   -0.6410 hn        1 GSH      0.333500
     34 HA31       -4.7250    0.7300    1.8790 h1        1 GSH      0.039700
     35 HA32       -4.7410    2.0510    0.6340 h1        1 GSH      0.039700
@<TRIPOS>BOND
     1    1    2 1   
     2    1   21 1   
     3    1   22 1   
     4    2    3 1   
     5    2    6 1   
     6    2   23 1   
     7    3    4 1   
     8    3    5 1   
     9    6    7 1   
    10    6   24 1   
    11    6   25 1   
    12    7    8 1   
    13    7   26 1   
    14    7   27 1   
    15    8    9 2   
    16    8   10 1   
    17   10   11 1   
    18   10   28 1   
    19   11   12 1   
    20   11   14 1   
    21   11   29 1   
    22   12   13 2   
    23   12   16 1   
    24   14   15 1   
    25   14   30 1   
    26   14   31 1   
    27   15   32 1   
    28   16   17 1   
    29   16   33 1   
    30   17   18 1   
    31   17   34 1   
    32   17   35 1   
    33   18   19 1   
    34   18   20 1   
@<TRIPOS>SUBSTRUCTURE
     1 GSH         1 TEMP              0 ****  ****    0 ROOT
