@<TRIPOS>MOLECULE
GSI
   61    63     1     0     0
SMALL
bcc


@<TRIPOS>ATOM
      1 CL1         0.9920    0.8340    1.8700 cl        1 GSI      0.018600
      2 C1          2.1840    0.2630    0.8570 cc        1 GSI      0.002300
      3 C2          2.1290   -0.9200    0.1380 cd        1 GSI     -0.144000
      4 C3          3.3110   -1.1210   -0.6280 cd        1 GSI     -0.113000
      5 S2          3.6330    1.0750    0.5940 ss        1 GSI      0.063200
      6 C4          4.2160   -0.0820   -0.4690 cc        1 GSI     -0.197400
      7 C5          5.5380   -0.0130   -1.1000 c3        1 GSI      0.061900
      8 C6          5.4490    0.5240   -2.5360 c3        1 GSI     -0.529100
      9 S1          6.7050    0.2010   -3.4840 s4        1 GSI      1.613500
     10 O2          6.6370    0.6070   -4.7740 o         1 GSI     -0.408900
     11 O1          7.5950   -0.7290   -3.0590 o         1 GSI     -0.408900
     12 N1          8.2610    1.9130   -2.9520 n3        1 GSI     -0.994800
     13 C12         7.9570    3.0250   -2.0600 c3        1 GSI      0.064500
     14 C13         9.1350    3.9640   -1.7150 c3        1 GSI     -0.120400
     15 C14         8.6470    5.3930   -2.0220 c3        1 GSI      0.090000
     16 C50         6.8770    3.9660   -2.6650 c         1 GSI      0.700500
     17 O3          5.7900    3.5540   -3.0960 o         1 GSI     -0.625500
     18 N2          7.3290    5.2730   -2.6350 n         1 GSI     -0.371000
     19 C15         6.5720    6.4090   -2.9880 ca        1 GSI      0.019600
     20 C21         6.3210    7.4320   -2.0520 ca        1 GSI     -0.090000
     21 C24         5.5700    8.5510   -2.3830 ca        1 GSI     -0.128000
     22 C27         5.0180    8.6850   -3.6750 ca        1 GSI      0.016800
     23 C26         5.2610    7.6850   -4.6320 ca        1 GSI     -0.181000
     24 C22         6.0410    6.5630   -4.3020 ca        1 GSI      0.163900
     25 F1          6.2630    5.6330   -5.2560 f         1 GSI     -0.110900
     26 N4          4.2030    9.7970   -3.9750 na        1 GSI     -0.107000
     27 C9          3.2210   10.3180   -3.1230 cc        1 GSI     -0.196600
     28 C7          2.5960   11.3710   -3.8220 cd        1 GSI      0.332200
     29 N3          3.1620   11.5020   -5.0790 nd        1 GSI     -0.658000
     30 C8          4.1300   10.5490   -5.1690 cc        1 GSI      0.300800
     31 C10         4.9790   10.3290   -6.3790 c3        1 GSI      0.112500
     32 N5          5.2120   11.6060   -7.1410 n4        1 GSI     -0.675400
     33 C11         6.1280   12.5170   -6.4050 c3        1 GSI      0.082100
     34 C16         5.7420   11.3050   -8.4960 c3        1 GSI      0.082100
     35 H2          1.2920   -1.6260    0.1540 ha        1 GSI      0.188000
     36 H3          3.4710   -2.0070   -1.2470 ha        1 GSI      0.160000
     37 H5C1        5.9980   -1.0420   -1.1190 hc        1 GSI      0.071200
     38 H5C2        6.2210    0.6550   -0.5080 hc        1 GSI      0.071200
     39 H6C1        4.4670    0.1190   -2.9570 h1        1 GSI      0.217700
     40 H6C2        5.1830    1.6330   -2.4550 h1        1 GSI      0.217700
     41 H1          9.0530    1.4030   -2.5820 hn        1 GSI      0.414800
     42 H12         7.5290    2.5920   -1.1070 h1        1 GSI      0.107700
     43 H131        9.4020    3.8690   -0.6330 hc        1 GSI      0.090200
     44 H132       10.0510    3.7360   -2.3150 hc        1 GSI      0.090200
     45 H141        9.3450    5.9130   -2.7350 h1        1 GSI      0.077700
     46 H142        8.5820    6.0020   -1.0790 h1        1 GSI      0.077700
     47 H21         6.7220    7.3510   -1.0260 ha        1 GSI      0.166000
     48 H24         5.3980    9.3270   -1.6170 ha        1 GSI      0.171000
     49 H26         4.8260    7.7380   -5.6430 ha        1 GSI      0.162000
     50 H9          3.0360    9.9090   -2.1280 h4        1 GSI      0.208000
     51 H7          1.7820   12.0200   -3.4860 h4        1 GSI      0.081100
     52 H101        5.9810    9.8960   -6.0960 hx        1 GSI      0.109700
     53 H102        4.4470    9.6130   -7.0750 hx        1 GSI      0.109700
     54 H111        6.2150   13.4850   -6.9700 hx        1 GSI      0.108033
     55 H112        5.7090   12.7180   -5.3820 hx        1 GSI      0.108033
     56 H113        7.1410   12.0430   -6.3150 hx        1 GSI      0.108033
     57 H161        5.9220   12.2720   -9.0420 hx        1 GSI      0.108033
     58 H162        4.9930   10.6910   -9.0650 hx        1 GSI      0.108033
     59 H163        6.7080   10.7410   -8.4090 hx        1 GSI      0.108033
     60 H121        8.5130    2.2630   -3.8660 hn        1 GSI      0.414800
     61 H51         4.3030   12.0890   -7.2490 hn        1 GSI      0.481800
@<TRIPOS>BOND
     1    1    2 1   
     2    2    3 2   
     3    2    5 1   
     4    3    4 1   
     5    3   35 1   
     6    4    6 2   
     7    4   36 1   
     8    5    6 1   
     9    6    7 1   
    10    7    8 1   
    11    7   37 1   
    12    7   38 1   
    13    8    9 1   
    14    8   39 1   
    15    8   40 1   
    16    9   10 1   
    17    9   11 1   
    18   12   13 1   
    19   12   41 1   
    20   12   60 1   
    21   13   14 1   
    22   13   16 1   
    23   13   42 1   
    24   14   15 1   
    25   14   43 1   
    26   14   44 1   
    27   15   18 1   
    28   15   45 1   
    29   15   46 1   
    30   16   17 2   
    31   16   18 1   
    32   18   19 1   
    33   19   20 ar  
    34   19   24 ar  
    35   20   21 ar  
    36   20   47 1   
    37   21   22 ar  
    38   21   48 1   
    39   22   23 ar  
    40   22   26 1   
    41   23   24 ar  
    42   23   49 1   
    43   24   25 1   
    44   26   27 1   
    45   26   30 1   
    46   27   28 2   
    47   27   50 1   
    48   28   29 1   
    49   28   51 1   
    50   29   30 2   
    51   30   31 1   
    52   31   32 1   
    53   31   52 1   
    54   31   53 1   
    55   32   33 1   
    56   32   34 1   
    57   32   61 1   
    58   33   54 1   
    59   33   55 1   
    60   33   56 1   
    61   34   57 1   
    62   34   58 1   
    63   34   59 1   
@<TRIPOS>SUBSTRUCTURE
     1 GSI         1 TEMP              0 ****  ****    0 ROOT
