@<TRIPOS>MOLECULE
GSI
   59    62     1     0     0
SMALL
bcc


@<TRIPOS>ATOM
      1 CL1        12.7630    5.2360   27.8320 cl        1 GSI     -0.032400
      2 C1         11.6070    6.3340   27.3300 cc        1 GSI     -0.036700
      3 C2         11.8580    7.6400   26.9460 cd        1 GSI     -0.146000
      4 C3         10.6570    8.3130   26.5770 cd        1 GSI     -0.149000
      5 S2          9.9700    5.9660   27.2340 ss        1 GSI      0.060200
      6 C4          9.5470    7.4950   26.6930 cc        1 GSI     -0.111400
      7 C5          8.1590    7.8870   26.4000 c3        1 GSI      0.025900
      8 C6          7.8880    7.9550   24.9090 c3        1 GSI     -0.336600
      9 S1          6.2920    8.4870   24.5920 s6        1 GSI      1.457900
     10 O2          6.2380    9.8780   24.8060 o         1 GSI     -0.647800
     11 O1          5.3860    7.6840   25.3150 o         1 GSI     -0.647800
     12 N1          6.1190    8.2100   22.9970 n3        1 GSI     -0.898100
     13 C12         5.5930    7.0040   22.4440 c3        1 GSI      0.172500
     14 C13         4.6090    7.1860   21.2670 c3        1 GSI     -0.106400
     15 C14         5.2460    6.4790   20.0580 c3        1 GSI      0.083000
     16 C50         6.7090    6.0800   21.8680 c         1 GSI      0.676500
     17 O3          7.6650    5.6620   22.5350 o         1 GSI     -0.613500
     18 N2          6.4570    5.8140   20.5200 n         1 GSI     -0.375000
     19 C15         7.1470    4.8860   19.7240 ca        1 GSI      0.044600
     20 C21         7.9050    3.8470   20.3110 ca        1 GSI     -0.121000
     21 C24         8.5970    2.9240   19.5440 ca        1 GSI     -0.125000
     22 C27         8.5670    2.9860   18.1350 ca        1 GSI      0.014800
     23 C26         7.8320    4.0140   17.5230 ca        1 GSI     -0.156000
     24 C22         7.1320    4.9520   18.3000 ca        1 GSI      0.098900
     25 F1          6.4420    5.9180   17.6440 f         1 GSI     -0.139900
     26 N4          9.2800    2.0480   17.3670 na        1 GSI     -0.150000
     27 C9         10.6100    1.6680   17.6070 cc        1 GSI     -0.246600
     28 C7         10.9440    0.7580   16.5950 cd        1 GSI      0.293200
     29 N3          9.8590    0.5630   15.7410 nd        1 GSI     -0.633000
     30 C8          8.8570    1.3410   16.2100 cc        1 GSI      0.408800
     31 C10         7.4790    1.4670   15.6160 c3        1 GSI      0.153500
     32 N5          6.8860    0.1850   15.2720 n3        1 GSI     -0.725600
     33 C11         6.6430   -0.6670   16.4120 c3        1 GSI      0.158100
     34 C16         5.7340    0.3300   14.4120 c3        1 GSI      0.158100
     35 H2         12.8430    8.1110   26.9250 ha        1 GSI      0.164000
     36 H3         10.6330    9.3550   26.2490 ha        1 GSI      0.157000
     37 H5C1        7.4420    7.1560   26.8700 hc        1 GSI      0.069700
     38 H5C2        7.9600    8.8980   26.8570 hc        1 GSI      0.069700
     39 H6C1        8.6500    8.6400   24.4490 h1        1 GSI      0.131200
     40 H6C2        8.1020    6.9430   24.4610 h1        1 GSI      0.131200
     41 H1          6.3730    8.8930   22.3220 hn        1 GSI      0.453800
     42 H12         5.0880    6.4180   23.2720 h1        1 GSI      0.113700
     43 H131        3.6290    6.7150   21.5230 hc        1 GSI      0.073700
     44 H132        4.4190    8.2610   21.0270 hc        1 GSI      0.073700
     45 H141        4.5420    5.7280   19.6080 h1        1 GSI      0.066700
     46 H142        5.5130    7.2320   19.2640 h1        1 GSI      0.066700
     47 H21         7.9630    3.7650   21.4110 ha        1 GSI      0.176000
     48 H24         9.1750    2.1330   20.0510 ha        1 GSI      0.156000
     49 H26         7.8000    4.1160   16.4260 ha        1 GSI      0.164000
     50 H9         11.1840    2.0740   18.4370 h4        1 GSI      0.181000
     51 H7         11.8890    0.2390   16.4350 h4        1 GSI      0.046100
     52 H101        6.8200    2.0470   16.3310 h1        1 GSI      0.046700
     53 H102        7.5820    2.0720   14.6680 h1        1 GSI      0.046700
     54 H111        6.3130   -1.6740   16.0430 h1        1 GSI      0.033700
     55 H112        7.5970   -0.7900   16.9880 h1        1 GSI      0.033700
     56 H113        5.8530   -0.2650   17.1060 h1        1 GSI      0.033700
     57 H161        4.8840    0.8870   14.8950 h1        1 GSI      0.033700
     58 H162        6.0370    0.8770   13.4810 h1        1 GSI      0.033700
     59 H163        5.3720   -0.6930   14.1250 h1        1 GSI      0.033700
@<TRIPOS>BOND
     1    1    2 1   
     2    2    3 2   
     3    2    5 1   
     4    3    4 1   
     5    3   35 1   
     6    4    6 2   
     7    4   36 1   
     8    5    6 1   
     9    6    7 1   
    10    7    8 1   
    11    7   37 1   
    12    7   38 1   
    13    8    9 1   
    14    8   39 1   
    15    8   40 1   
    16    9   10 2   
    17    9   11 2   
    18    9   12 1   
    19   12   13 1   
    20   12   41 1   
    21   13   14 1   
    22   13   16 1   
    23   13   42 1   
    24   14   15 1   
    25   14   43 1   
    26   14   44 1   
    27   15   18 1   
    28   15   45 1   
    29   15   46 1   
    30   16   17 2   
    31   16   18 1   
    32   18   19 1   
    33   19   20 ar  
    34   19   24 ar  
    35   20   21 ar  
    36   20   47 1   
    37   21   22 ar  
    38   21   48 1   
    39   22   23 ar  
    40   22   26 1   
    41   23   24 ar  
    42   23   49 1   
    43   24   25 1   
    44   26   27 1   
    45   26   30 1   
    46   27   28 2   
    47   27   50 1   
    48   28   29 1   
    49   28   51 1   
    50   29   30 2   
    51   30   31 1   
    52   31   32 1   
    53   31   52 1   
    54   31   53 1   
    55   32   33 1   
    56   32   34 1   
    57   33   54 1   
    58   33   55 1   
    59   33   56 1   
    60   34   57 1   
    61   34   58 1   
    62   34   59 1   
@<TRIPOS>SUBSTRUCTURE
     1 GSI         1 TEMP              0 ****  ****    0 ROOT
