@<TRIPOS>MOLECULE
GSI
   61    63     1     0     0
SMALL
bcc


@<TRIPOS>ATOM
      1 Cl1         0.9450    0.8040    1.7990 cl        1 GSI      0.018600
      2 C1          2.1530    0.2400    0.8030 cc        1 GSI      0.002300
      3 C2          2.1140   -0.9430    0.0820 cd        1 GSI     -0.144000
      4 C3          3.3080   -1.1360   -0.6680 cd        1 GSI     -0.113000
      5 S2          3.6010    1.0600    0.5600 ss        1 GSI      0.063200
      6 C4          4.2050   -0.0930   -0.4950 cc        1 GSI     -0.197400
      7 C5          5.5350   -0.0160   -1.1090 c3        1 GSI      0.061900
      8 C6          5.4620    0.5220   -2.5450 c3        1 GSI     -0.529100
      9 S1          6.7320    0.2070   -3.4770 s4        1 GSI      1.613500
     10 O2          6.6800    0.6140   -4.7670 o         1 GSI     -0.408900
     11 O1          7.6210   -0.7200   -3.0410 o         1 GSI     -0.408900
     12 N1          8.2740    1.9250   -2.9220 n8        1 GSI     -0.994800
     13 C12         7.9520    3.0350   -2.0320 c3        1 GSI      0.064500
     14 C13         9.1200    3.9780   -1.6700 c3        1 GSI     -0.120400
     15 C14         8.6300    5.4060   -1.9820 c3        1 GSI      0.090000
     16 C50         6.8750    3.9720   -2.6500 c         1 GSI      0.700500
     17 O3          5.7960    3.5560   -3.0960 o         1 GSI     -0.625500
     18 N2          7.3220    5.2810   -2.6130 n         1 GSI     -0.371000
     19 C15         6.5640    6.4130   -2.9740 ca        1 GSI      0.019600
     20 C21         6.2980    7.4350   -2.0400 ca        1 GSI     -0.090000
     21 C24         5.5460    8.5510   -2.3800 ca        1 GSI     -0.128000
     22 C27         5.0090    8.6830   -3.6790 ca        1 GSI      0.016800
     23 C26         5.2680    7.6850   -4.6330 ca        1 GSI     -0.181000
     24 C22         6.0490    6.5660   -4.2940 ca        1 GSI      0.163900
     25 F1          6.2860    5.6370   -5.2460 f         1 GSI     -0.110900
     26 N4          4.1930    9.7930   -3.9880 na        1 GSI     -0.107000
     27 C9          3.1980   10.3080   -3.1480 cc        1 GSI     -0.196600
     28 C7          2.5780   11.3590   -3.8540 cd        1 GSI      0.332200
     29 N3          3.1580   11.4940   -5.1040 nd        1 GSI     -0.658000
     30 C8          4.1310   10.5450   -5.1830 cc        1 GSI      0.300800
     31 C10         4.9960   10.3290   -6.3830 c3        1 GSI      0.112500
     32 N5          5.2340   11.6070   -7.1400 nx        1 GSI     -0.675400
     33 C11         6.1370   12.5210   -6.3930 c3        1 GSI      0.082100
     34 C16         5.7810   11.3090   -8.4900 c3        1 GSI      0.082100
     35 H2          1.2810   -1.6530    0.0860 ha        1 GSI      0.188000
     36 H3          3.4810   -2.0210   -1.2860 ha        1 GSI      0.160000
     37 H5C1        6.2060    0.6550   -0.5070 hc        1 GSI      0.071200
     38 H5C2        6.0000   -1.0430   -1.1230 hc        1 GSI      0.071200
     39 H6C1        5.1900    1.6300   -2.4670 h1        1 GSI      0.217700
     40 H6C2        4.4880    0.1130   -2.9800 h1        1 GSI      0.217700
     41 H1          8.5350    2.2790   -3.8320 hn        1 GSI      0.414800
     42 H12         7.5130    2.5980   -1.0860 h1        1 GSI      0.107700
     43 H131        9.3740    3.8830   -0.5850 hc        1 GSI      0.090200
     44 H132       10.0460    3.7550   -2.2580 hc        1 GSI      0.090200
     45 H141        9.3350    5.9290   -2.6850 h1        1 GSI      0.077700
     46 H142        8.5510    6.0130   -1.0380 h1        1 GSI      0.077700
     47 H21         6.6860    7.3560   -1.0100 ha        1 GSI      0.166000
     48 H24         5.3620    9.3260   -1.6160 ha        1 GSI      0.171000
     49 H26         4.8440    7.7360   -5.6490 ha        1 GSI      0.162000
     50 H9          3.0040    9.8980   -2.1550 h4        1 GSI      0.208000
     51 H7          1.7580   12.0050   -3.5280 h4        1 GSI      0.081100
     52 H101        4.4750    9.6110   -7.0850 hx        1 GSI      0.109700
     53 H102        5.9960    9.8990   -6.0880 hx        1 GSI      0.109700
     54 H111        5.7050   12.7200   -5.3750 hx        1 GSI      0.108033
     55 H112        6.2270   13.4900   -6.9560 hx        1 GSI      0.108033
     56 H113        7.1500   12.0500   -6.2910 hx        1 GSI      0.108033
     57 H161        5.0400   10.6930   -9.0680 hx        1 GSI      0.108033
     58 H162        5.9630   12.2770   -9.0330 hx        1 GSI      0.108033
     59 H163        6.7470   10.7480   -8.3920 hx        1 GSI      0.108033
     60 H121        9.0620    1.4180   -2.5420 hn        1 GSI      0.414800
     61 H51         4.3240   12.0860   -7.2600 hn        1 GSI      0.481800
@<TRIPOS>BOND
     1    1    2 1   
     2    2    3 2   
     3    2    5 1   
     4    3    4 1   
     5    3   35 1   
     6    4    6 2   
     7    4   36 1   
     8    5    6 1   
     9    6    7 1   
    10    7    8 1   
    11    7   37 1   
    12    7   38 1   
    13    8    9 1   
    14    8   39 1   
    15    8   40 1   
    16    9   10 1   
    17    9   11 1   
    18   12   13 1   
    19   12   41 1   
    20   12   60 1   
    21   13   14 1   
    22   13   16 1   
    23   13   42 1   
    24   14   15 1   
    25   14   43 1   
    26   14   44 1   
    27   15   18 1   
    28   15   45 1   
    29   15   46 1   
    30   16   17 2   
    31   16   18 1   
    32   18   19 1   
    33   19   20 ar  
    34   19   24 ar  
    35   20   21 ar  
    36   20   47 1   
    37   21   22 ar  
    38   21   48 1   
    39   22   23 ar  
    40   22   26 1   
    41   23   24 ar  
    42   23   49 1   
    43   24   25 1   
    44   26   27 1   
    45   26   30 1   
    46   27   28 2   
    47   27   50 1   
    48   28   29 1   
    49   28   51 1   
    50   29   30 2   
    51   30   31 1   
    52   31   32 1   
    53   31   52 1   
    54   31   53 1   
    55   32   33 1   
    56   32   34 1   
    57   32   61 1   
    58   33   54 1   
    59   33   55 1   
    60   33   56 1   
    61   34   57 1   
    62   34   58 1   
    63   34   59 1   
@<TRIPOS>SUBSTRUCTURE
     1 GSI         1 TEMP              0 ****  ****    0 ROOT
