@<TRIPOS>MOLECULE
GSI
   61    63     1     0     0
SMALL
bcc


@<TRIPOS>ATOM
      1 CL1         0.9480    0.7880    1.7890 cl        1 GSI      0.018600
      2 C1          2.1540    0.2270    0.7880 cc        1 GSI      0.002300
      3 C2          2.1100   -0.9510    0.0590 cd        1 GSI     -0.144000
      4 C3          3.3030   -1.1430   -0.6940 cd        1 GSI     -0.113000
      5 S2          3.6040    1.0440    0.5480 ss        1 GSI      0.063200
      6 C4          4.2040   -0.1040   -0.5150 cc        1 GSI     -0.197400
      7 C5          5.5330   -0.0280   -1.1290 c3        1 GSI      0.061900
      8 C6          5.4600    0.5170   -2.5640 c3        1 GSI     -0.529100
      9 S1          6.7290    0.2030   -3.4980 s4        1 GSI      1.613500
     10 O2          6.6750    0.6150   -4.7860 o         1 GSI     -0.408900
     11 O1          7.6170   -0.7260   -3.0650 o         1 GSI     -0.408900
     12 N1          8.2720    1.9180   -2.9390 n3        1 GSI     -0.994800
     13 C12         7.9530    3.0250   -2.0450 c3        1 GSI      0.064500
     14 C13         9.1230    3.9660   -1.6820 c3        1 GSI     -0.120400
     15 C14         8.6330    5.3950   -1.9880 c3        1 GSI      0.090000
     16 C50         6.8760    3.9650   -2.6580 c         1 GSI      0.700500
     17 O3          5.7960    3.5510   -3.1040 o         1 GSI     -0.625500
     18 N2          7.3230    5.2730   -2.6170 n         1 GSI     -0.371000
     19 C15         6.5670    6.4080   -2.9740 ca        1 GSI      0.019600
     20 C21         6.3030    7.4270   -2.0360 ca        1 GSI     -0.090000
     21 C24         5.5520    8.5440   -2.3710 ca        1 GSI     -0.127000
     22 C27         5.0120    8.6810   -3.6690 ca        1 GSI      0.016800
     23 C26         5.2680    7.6860   -4.6260 ca        1 GSI     -0.181000
     24 C22         6.0480    6.5660   -4.2920 ca        1 GSI      0.163900
     25 F1          6.2830    5.6390   -5.2470 f         1 GSI     -0.110900
     26 N4          4.1960    9.7930   -3.9730 na        1 GSI     -0.107000
     27 C9          3.2040   10.3070   -3.1290 cc        1 GSI     -0.196600
     28 C7          2.5830   11.3600   -3.8310 cd        1 GSI      0.332200
     29 N3          3.1610   11.4980   -5.0810 nd        1 GSI     -0.658000
     30 C8          4.1330   10.5480   -5.1650 cc        1 GSI      0.300800
     31 C10         4.9950   10.3350   -6.3670 c3        1 GSI      0.112500
     32 N5          5.2320   11.6150   -7.1220 n4        1 GSI     -0.675400
     33 C11         6.1380   12.5260   -6.3740 c3        1 GSI      0.082100
     34 C16         5.7760   11.3210   -8.4730 c3        1 GSI      0.082100
     35 H2          1.2750   -1.6590    0.0590 ha        1 GSI      0.188000
     36 H3          3.4720   -2.0250   -1.3170 ha        1 GSI      0.160000
     37 H5C1        6.2060    0.6400   -0.5250 hc        1 GSI      0.071200
     38 H5C2        5.9960   -1.0550   -1.1470 hc        1 GSI      0.071200
     39 H6C1        5.1890    1.6250   -2.4810 h1        1 GSI      0.217700
     40 H6C2        4.4840    0.1110   -2.9990 h1        1 GSI      0.217700
     41 H1          9.0610    1.4090   -2.5620 hn        1 GSI      0.414800
     42 H12         7.5150    2.5860   -1.1000 h1        1 GSI      0.107700
     43 H131       10.0470    3.7440   -2.2720 hc        1 GSI      0.090200
     44 H132        9.3780    3.8670   -0.5970 hc        1 GSI      0.090200
     45 H141        8.5560    6.0000   -1.0420 h1        1 GSI      0.077700
     46 H142        9.3380    5.9210   -2.6900 h1        1 GSI      0.077700
     47 H21         6.6940    7.3440   -1.0070 ha        1 GSI      0.166000
     48 H24         5.3700    9.3170   -1.6050 ha        1 GSI      0.171000
     49 H26         4.8430    7.7410   -5.6410 ha        1 GSI      0.162000
     50 H9          3.0110    9.8940   -2.1370 h4        1 GSI      0.208000
     51 H7          1.7640   12.0060   -3.5010 h4        1 GSI      0.081100
     52 H101        5.9950    9.9030   -6.0760 hx        1 GSI      0.109700
     53 H102        4.4710    9.6200   -7.0710 hx        1 GSI      0.109700
     54 H111        6.2270   13.4960   -6.9340 hx        1 GSI      0.108033
     55 H112        7.1510   12.0540   -6.2760 hx        1 GSI      0.108033
     56 H113        5.7080   12.7220   -5.3540 hx        1 GSI      0.108033
     57 H161        5.0340   10.7070   -9.0520 hx        1 GSI      0.108033
     58 H162        6.7420   10.7580   -8.3790 hx        1 GSI      0.108033
     59 H163        5.9580   12.2900   -9.0140 hx        1 GSI      0.108033
     60 H121        8.5330    2.2740   -3.8480 hn        1 GSI      0.414800
     61 H51         4.3220   12.0950   -7.2380 hn        1 GSI      0.481800
@<TRIPOS>BOND
     1    1    2 1   
     2    2    3 2   
     3    2    5 1   
     4    3    4 1   
     5    3   35 1   
     6    4    6 2   
     7    4   36 1   
     8    5    6 1   
     9    6    7 1   
    10    7    8 1   
    11    7   37 1   
    12    7   38 1   
    13    8    9 1   
    14    8   39 1   
    15    8   40 1   
    16    9   10 1   
    17    9   11 1   
    18   12   13 1   
    19   12   41 1   
    20   12   60 1   
    21   13   14 1   
    22   13   16 1   
    23   13   42 1   
    24   14   15 1   
    25   14   43 1   
    26   14   44 1   
    27   15   18 1   
    28   15   45 1   
    29   15   46 1   
    30   16   17 2   
    31   16   18 1   
    32   18   19 1   
    33   19   20 ar  
    34   19   24 ar  
    35   20   21 ar  
    36   20   47 1   
    37   21   22 ar  
    38   21   48 1   
    39   22   23 ar  
    40   22   26 1   
    41   23   24 ar  
    42   23   49 1   
    43   24   25 1   
    44   26   27 1   
    45   26   30 1   
    46   27   28 2   
    47   27   50 1   
    48   28   29 1   
    49   28   51 1   
    50   29   30 2   
    51   30   31 1   
    52   31   32 1   
    53   31   52 1   
    54   31   53 1   
    55   32   33 1   
    56   32   34 1   
    57   32   61 1   
    58   33   54 1   
    59   33   55 1   
    60   33   56 1   
    61   34   57 1   
    62   34   58 1   
    63   34   59 1   
@<TRIPOS>SUBSTRUCTURE
     1 GSI         1 TEMP              0 ****  ****    0 ROOT
