@<TRIPOS>MOLECULE
GSI
   59    52     1     0     0
SMALL
bcc


@<TRIPOS>ATOM
      1 CL1         6.8810   -4.8350   -3.3580 cl        1 GSI      0.047000
      2 C1          5.5720   -5.9990   -3.2660 c2        1 GSI     -0.380000
      3 C2          5.7080   -7.4630   -3.3460 c1        1 GSI     -0.140000
      4 C3          4.2820   -8.1130   -3.0840 c1        1 GSI     -0.150000
      5 S2          4.0890   -5.6760   -2.9570 ss        1 GSI      0.564000
      6 C4          3.3210   -7.0380   -2.8530 c1        1 GSI     -0.363000
      7 C5          1.8060   -7.2180   -2.5230 c2        1 GSI     -0.069000
      8 C6          1.1040   -5.8570   -2.5610 c3        1 GSI     -0.866000
      9 S1          0.5330   -5.4280   -0.8990 s4        1 GSI      2.035800
     10 O2          1.5590   -5.6630    0.0860 o         1 GSI     -0.526900
     11 O1         -0.4930   -6.3290   -0.4540 o         1 GSI     -0.526900
     12 N1          0.0060   -3.8300   -0.8590 n2        1 GSI     -0.875000
     13 C12         0.2630   -3.0090    0.3070 c3        1 GSI      0.020000
     14 C13         1.2380   -2.2190    0.0740 c3        1 GSI     -0.194000
     15 C14         0.8820   -0.7640    0.8240 c3        1 GSI     -0.030000
     16 C50        -0.9720   -1.9460    0.5140 c2        1 GSI      0.291000
     17 O3         -2.1730   -2.1920    0.3970 o         1 GSI     -0.309000
     18 N2         -0.3340   -0.5560    0.6410 n         1 GSI     -0.283000
     19 C15        -1.0210    0.6490    0.9100 c2        1 GSI      0.056000
     20 C21        -1.1530    1.1050    2.2350 c2        1 GSI     -0.123000
     21 C24        -1.8420    2.2910    2.5020 c1        1 GSI     -0.124000
     22 C27        -2.3990    3.0220    1.4580 c1        1 GSI      0.056000
     23 C26        -2.2700    2.5720    0.1450 c1        1 GSI     -0.155000
     24 C22        -1.5720    1.3720   -0.1250 c1        1 GSI      0.060000
     25 F1         -1.3650    0.9840   -1.4010 f         1 GSI     -0.106000
     26 N4         -3.1530    4.1370    1.7300 n2        1 GSI     -0.119500
     27 C9         -4.4730    4.1500    2.0490 c1        1 GSI     -0.164500
     28 C7         -4.8580    5.4650    2.2210 c1        1 GSI     -0.164500
     29 N3         -3.7750    6.2490    2.0080 n2        1 GSI     -0.119500
     30 C8         -2.7130    5.4340    1.7020 c1        1 GSI     -0.036000
     31 C10        -1.2830    5.8890    1.4320 c2        1 GSI      0.011000
     32 N5         -1.2370    7.3540    1.3900 n3        1 GSI     -0.257000
     33 C11        -0.0570    7.8410    2.1540 c3        1 GSI     -0.117000
     34 C16        -1.1370    7.7970    0.0110 c3        1 GSI     -0.117000
     35 H2          6.5290   -7.9490   -3.5280 DU        1 GSI      0.172500
     36 H3          4.0830   -9.0650   -3.0790 DU        1 GSI      0.172500
     37 H5C1        1.7100   -7.6110   -1.6260 ha        1 GSI      0.118500
     38 H5C2        1.3960   -7.8170   -3.1880 ha        1 GSI      0.118500
     39 H6C1        1.7280   -5.1760   -2.8750 h1        1 GSI      0.150000
     40 H6C2        0.3330   -5.9040   -3.1740 h1        1 GSI      0.150000
     41 H1         -0.4410   -3.4660   -1.5970 hn        1 GSI      0.251000
     42 H12         0.3900   -3.7000    1.0040 h1        1 GSI      0.156000
     43 H131        2.0610   -2.5890    0.4410 hc        1 GSI      0.108500
     44 H132        1.3360   -2.0820   -0.9070 hc        1 GSI      0.108500
     45 H141        1.0690   -0.8260    1.7810 h1        1 GSI      0.105000
     46 H142        1.4080   -0.0450    0.4270 h1        1 GSI      0.105000
     47 H21        -0.7550    0.5820    2.9830 ha        1 GSI      0.177000
     48 H24        -1.9360    2.6130    3.4410 ha        1 GSI      0.156000
     49 H26        -2.6600    3.0860   -0.5870 ha        1 GSI      0.166000
     50 H9         -5.0460    3.3710    2.1390 DU        1 GSI      0.172500
     51 H7         -5.7460    5.7720    2.4540 DU        1 GSI      0.172500
     52 H101       -0.7000    5.5650    2.1410 h4        1 GSI      0.089500
     53 H102       -0.9830    5.5280    0.5710 h4        1 GSI      0.089500
     54 H111        0.0900    8.7980    1.9580 h1        1 GSI      0.073000
     55 H112       -0.2200    7.7250    3.1280 h1        1 GSI      0.073000
     56 H113        0.7430    7.3260    1.8900 h1        1 GSI      0.073000
     57 H161       -1.1190    8.7720   -0.0150 h1        1 GSI      0.073000
     58 H162       -0.3180    7.4470   -0.3860 h1        1 GSI      0.073000
     59 H163       -1.9200    7.4660   -0.5000 h1        1 GSI      0.073000
@<TRIPOS>BOND
     1    1    2 1   
     2    2    3 1   
     3    2    5 1   
     4    3    4 1   
     5    4    6 1   
     6    5    6 1   
     7    7    8 1   
     8    7   37 1   
     9    7   38 1   
    10    8    9 1   
    11    8   39 1   
    12    8   40 1   
    13    9   10 1   
    14    9   11 1   
    15   12   13 1   
    16   12   41 1   
    17   13   14 1   
    18   13   16 1   
    19   13   42 1   
    20   14   15 1   
    21   14   43 1   
    22   14   44 1   
    23   15   18 1   
    24   15   45 1   
    25   15   46 1   
    26   16   17 1   
    27   16   18 1   
    28   18   19 1   
    29   19   20 1   
    30   19   24 1   
    31   20   21 1   
    32   20   47 1   
    33   21   48 1   
    34   22   23 1   
    35   23   49 1   
    36   24   25 1   
    37   26   27 1   
    38   26   30 1   
    39   27   28 1   
    40   28   29 1   
    41   29   30 1   
    42   31   32 1   
    43   31   52 1   
    44   31   53 1   
    45   32   33 1   
    46   32   34 1   
    47   33   54 1   
    48   33   55 1   
    49   33   56 1   
    50   34   57 1   
    51   34   58 1   
    52   34   59 1   
@<TRIPOS>SUBSTRUCTURE
     1 GSI         1 TEMP              0 ****  ****    0 ROOT
