@<TRIPOS>MOLECULE
GSJ
   67    69     1     0     0
SMALL
bcc


@<TRIPOS>ATOM
      1 C23         4.7890   -5.6830   -5.3050 c3        1 GSJ     -0.370300
      2 S2          3.9210   -7.1460   -5.1530 s6        1 GSJ      1.469900
      3 O5          2.9710   -7.2150   -6.1980 o         1 GSJ     -0.663300
      4 O6          4.8660   -8.1870   -5.1150 o         1 GSJ     -0.663300
      5 N4          3.1830   -6.9690   -3.7310 n3        1 GSJ     -0.916100
      6 C22         1.8000   -7.2600   -3.5140 c3        1 GSJ      0.207800
      7 C11         0.9640   -6.0620   -3.0060 c3        1 GSJ      0.073000
      8 N3          1.0440   -4.8590   -3.8020 n         1 GSJ     -0.460800
      9 C19         0.0400   -4.6390   -4.8350 c3        1 GSJ      0.105700
     10 C20        -1.2700   -4.0670   -4.2850 c3        1 GSJ     -0.122600
     11 C21        -0.2680   -5.8890   -5.6610 c3        1 GSJ     -0.122600
     12 C18         1.9910   -3.9070   -3.4710 c         1 GSJ      0.634100
     13 O4          2.9400   -4.2090   -2.7120 o         1 GSJ     -0.641100
     14 C16         1.8950   -2.4620   -4.0380 c3        1 GSJ      0.062700
     15 C17         2.9390   -2.3540   -5.1490 c3        1 GSJ     -0.108100
     16 N2          2.0420   -1.4720   -3.0060 n         1 GSJ     -0.463800
     17 C15         0.9670   -0.9190   -2.3190 c         1 GSJ      0.679500
     18 O3         -0.2250   -1.0630   -2.6360 o         1 GSJ     -0.641500
     19 C12         1.4920   -0.0470   -1.1420 c3        1 GSJ      0.172500
     20 C13         3.0200   -0.3010   -1.1410 c3        1 GSJ     -0.106400
     21 C14         3.3120   -1.2010   -2.3570 c3        1 GSJ      0.078000
     22 N1          0.8310   -0.3260    0.0920 n3        1 GSJ     -0.896100
     23 S1         -0.1480    0.7210    0.8690 sy        1 GSJ      1.521200
     24 O2         -0.2320    1.9130    0.1210 o         1 GSJ     -0.651800
     25 O1          0.2840    0.8520    2.2040 o         1 GSJ     -0.651800
     26 C6         -1.6290   -0.0770    0.8630 ca        1 GSJ     -0.396500
     27 C7         -2.2400   -0.4050    2.1050 ca        1 GSJ     -0.043000
     28 C8         -3.4690   -1.0090    2.1550 ca        1 GSJ     -0.140000
     29 C9         -4.1660   -1.3270    0.9570 ca        1 GSJ      0.020000
     30 C10        -5.4420   -1.9520    0.9790 ca        1 GSJ     -0.134000
     31 C4         -3.5670   -1.0120   -0.2890 ca        1 GSJ     -0.080000
     32 C5         -2.2940   -0.3860   -0.3060 ca        1 GSJ      0.045000
     33 C3         -4.2550   -1.3290   -1.4930 ca        1 GSJ     -0.082000
     34 C2         -5.4860   -1.9320   -1.4570 ca        1 GSJ     -0.138000
     35 C1         -6.0810   -2.2450   -0.2050 ca        1 GSJ      0.044400
     36 CL1        -7.6070   -2.9930   -0.1930 cl        1 GSJ     -0.084400
     37 H231        5.8140   -5.7530   -4.8650 h1        1 GSJ      0.116033
     38 H232        4.9250   -5.4230   -6.3850 h1        1 GSJ      0.116033
     39 H233        4.3010   -4.7950   -4.8300 h1        1 GSJ      0.116033
     40 H4          3.6080   -6.5050   -2.9590 hn        1 GSJ      0.463800
     41 H221        1.3490   -7.6480   -4.4740 h1        1 GSJ      0.061700
     42 H222        1.7060   -8.0680   -2.7310 h1        1 GSJ      0.061700
     43 H111       -0.1110   -6.3960   -2.9620 h1        1 GSJ      0.063700
     44 H112        1.3030   -5.8180   -1.9560 h1        1 GSJ      0.063700
     45 H19         0.4720   -3.8870   -5.5660 h1        1 GSJ      0.050700
     46 H201       -1.9600   -3.8630   -5.1390 hc        1 GSJ      0.053033
     47 H202       -1.7620   -4.7940   -3.5960 hc        1 GSJ      0.053033
     48 H203       -1.0930   -3.1120   -3.7310 hc        1 GSJ      0.053033
     49 H211        0.6650   -6.3250   -6.1000 hc        1 GSJ      0.053033
     50 H212       -0.9500   -5.5980   -6.4970 hc        1 GSJ      0.053033
     51 H213       -0.7790   -6.6680   -5.0480 hc        1 GSJ      0.053033
     52 H16         0.8650   -2.2820   -4.4780 h1        1 GSJ      0.098700
     53 H171        2.7160   -3.1210   -5.9300 hc        1 GSJ      0.056033
     54 H172        2.9080   -1.3420   -5.6190 hc        1 GSJ      0.056033
     55 H173        3.9660   -2.5340   -4.7470 hc        1 GSJ      0.056033
     56 H141        3.9910   -0.6780   -3.0850 h1        1 GSJ      0.065700
     57 H142        3.8020   -2.1640   -2.0410 h1        1 GSJ      0.065700
     58 H12         1.2880    1.0310   -1.4280 h1        1 GSJ      0.116700
     59 H131        3.3660   -0.8020   -0.2040 hc        1 GSJ      0.070200
     60 H132        3.5640    0.6700   -1.2330 hc        1 GSJ      0.070200
     61 H1          1.0310   -1.2250    0.4610 hn        1 GSJ      0.449800
     62 H7         -1.7010   -0.1540    3.0370 ha        1 GSJ      0.164000
     63 H5         -1.8370   -0.1580   -1.2900 ha        1 GSJ      0.170000
     64 H8         -3.9370   -1.2550    3.1210 ha        1 GSJ      0.144000
     65 H10        -5.9000   -2.1920    1.9510 ha        1 GSJ      0.153000
     66 H3         -3.7770   -1.0800   -2.4540 ha        1 GSJ      0.150000
     67 H2         -6.0230   -2.1770   -2.3860 ha        1 GSJ      0.152000
@<TRIPOS>BOND
     1    1    2 1   
     2    1   37 1   
     3    1   38 1   
     4    1   39 1   
     5    2    3 2   
     6    2    4 2   
     7    2    5 1   
     8    5    6 1   
     9    5   40 1   
    10    6    7 1   
    11    6   41 1   
    12    6   42 1   
    13    7    8 1   
    14    7   43 1   
    15    7   44 1   
    16    8    9 1   
    17    8   12 1   
    18    9   10 1   
    19    9   11 1   
    20    9   45 1   
    21   10   46 1   
    22   10   47 1   
    23   10   48 1   
    24   11   49 1   
    25   11   50 1   
    26   11   51 1   
    27   12   13 2   
    28   12   14 1   
    29   14   15 1   
    30   14   16 1   
    31   14   52 1   
    32   15   53 1   
    33   15   54 1   
    34   15   55 1   
    35   16   17 1   
    36   16   21 1   
    37   17   18 2   
    38   17   19 1   
    39   19   20 1   
    40   19   22 1   
    41   19   58 1   
    42   20   21 1   
    43   20   59 1   
    44   20   60 1   
    45   21   56 1   
    46   21   57 1   
    47   22   23 1   
    48   22   61 1   
    49   23   24 2   
    50   23   25 2   
    51   23   26 1   
    52   26   27 ar  
    53   26   32 ar  
    54   27   28 ar  
    55   27   62 1   
    56   28   29 ar  
    57   28   64 1   
    58   29   30 ar  
    59   29   31 ar  
    60   30   35 ar  
    61   30   65 1   
    62   31   32 ar  
    63   31   33 ar  
    64   32   63 1   
    65   33   34 ar  
    66   33   66 1   
    67   34   35 ar  
    68   34   67 1   
    69   35   36 1   
@<TRIPOS>SUBSTRUCTURE
     1 GSJ         1 TEMP              0 ****  ****    0 ROOT
