@<TRIPOS>MOLECULE
GSJ
   70    70     1     0     0
SMALL
bcc


@<TRIPOS>ATOM
      1 C23         0.6580   -0.5930    3.5370 c3        1 GSJ     -0.591800
      2 S2          0.4150   -0.6880    1.9710 s4        1 GSJ      1.654500
      3 O5          1.4500   -1.0630    1.1900 o         1 GSJ     -0.402400
      4 O6         -0.8450   -0.5430    1.5140 o         1 GSJ     -0.402400
      5 N4          0.8630    1.6670    1.4350 n3        1 GSJ     -0.995800
      6 C22         1.2580    1.8060    0.0430 c3        1 GSJ      0.111800
      7 C11         1.4920    3.2670   -0.4030 c3        1 GSJ      0.067800
      8 N3          1.8690    3.4030   -1.8380 n4        1 GSJ     -0.602200
      9 C19         1.6830    4.8430   -2.3310 c3        1 GSJ      0.134500
     10 C20         2.2640    5.8660   -1.3690 c3        1 GSJ     -0.133600
     11 C21         0.2190    5.1420   -2.6160 c3        1 GSJ     -0.133600
     12 C18         3.2970    2.9610   -2.1250 c         1 GSJ      0.506100
     13 O4          4.0790    2.9530   -1.1910 o         1 GSJ     -0.414100
     14 C16         3.5940    2.5380   -3.5970 c3        1 GSJ      0.097700
     15 C17         3.6100    1.0080   -3.5870 c3        1 GSJ     -0.128100
     16 N2          4.7830    3.1670   -4.0670 n         1 GSJ     -0.486800
     17 C15         4.7710    4.3150   -4.8700 c         1 GSJ      0.674500
     18 O3          3.7960    5.0720   -4.9680 o         1 GSJ     -0.612500
     19 C12         6.1400    4.4740   -5.5720 c3        1 GSJ      0.087500
     20 C13         7.0450    3.4440   -4.8540 c3        1 GSJ     -0.104400
     21 C14         6.0960    2.5330   -4.0490 c3        1 GSJ      0.083000
     22 N1          6.6490    5.8300   -5.6200 n3        1 GSJ     -0.973800
     23 S1          8.7190    5.9420   -7.1340 s4        1 GSJ      1.687300
     24 O2          8.2160    4.8640   -7.7950 o         1 GSJ     -0.439900
     25 O1          9.4250    5.8010   -5.9820 o         1 GSJ     -0.439900
     26 C6          8.6280    7.3160   -7.8010 ca        1 GSJ     -0.664500
     27 C7          9.2100    8.4680   -7.1520 ca        1 GSJ     -0.046000
     28 C8          9.2220    9.6950   -7.7390 ca        1 GSJ     -0.105000
     29 C9          8.6560    9.8960   -9.0370 ca        1 GSJ      0.088000
     30 C10         8.6800   11.1520   -9.6710 ca        1 GSJ     -0.163000
     31 C4          8.0620    8.7750   -9.7000 ca        1 GSJ     -0.111000
     32 C5          8.0560    7.5280   -9.0770 ca        1 GSJ      0.125000
     33 C3          7.5030    8.9630  -11.0030 ca        1 GSJ     -0.058000
     34 C2          7.5380   10.1930  -11.6060 ca        1 GSJ     -0.122000
     35 C1          8.1320   11.3030  -10.9390 ca        1 GSJ      0.116400
     36 CL1         8.1620   12.7950  -11.7050 cl        1 GSJ      0.029600
     37 H231        1.6950   -0.2810    3.8750 h1        1 GSJ      0.220700
     38 H232        0.5260   -1.5730    4.1120 h1        1 GSJ      0.220700
     39 H233       -0.0370    0.0910    4.1190 h1        1 GSJ      0.220700
     40 H4         -0.0020    2.1590    1.6050 hn        1 GSJ      0.407800
     41 H221        0.4440    1.3460   -0.5900 h1        1 GSJ      0.096700
     42 H222        2.2080    1.2120   -0.1070 h1        1 GSJ      0.096700
     43 H111        2.3190    3.7280    0.2140 hx        1 GSJ      0.120200
     44 H112        0.5480    3.8670   -0.2410 hx        1 GSJ      0.120200
     45 H19         2.2600    4.8950   -3.3130 hx        1 GSJ      0.130700
     46 H201        3.3090    5.6080   -1.0690 hc        1 GSJ      0.082033
     47 H202        2.2840    6.8560   -1.8940 hc        1 GSJ      0.082033
     48 H203        1.6350    5.9770   -0.4530 hc        1 GSJ      0.082033
     49 H211       -0.3940    5.1720   -1.6840 hc        1 GSJ      0.082033
     50 H212        0.1650    6.1560   -3.0940 hc        1 GSJ      0.082033
     51 H213       -0.2280    4.4070   -3.3290 hc        1 GSJ      0.082033
     52 H16         2.7360    2.8960   -4.2510 h1        1 GSJ      0.101700
     53 H171        3.7860    0.6250   -4.6250 hc        1 GSJ      0.081367
     54 H172        4.4140    0.6110   -2.9210 hc        1 GSJ      0.081367
     55 H173        2.6200    0.6290   -3.2370 hc        1 GSJ      0.081367
     56 H141        6.4440    2.4280   -2.9840 h1        1 GSJ      0.079200
     57 H142        6.0440    1.5090   -4.5130 h1        1 GSJ      0.079200
     58 H12         5.9820    4.1430   -6.6470 h1        1 GSJ      0.130700
     59 H131        7.7830    3.9320   -4.1690 hc        1 GSJ      0.097700
     60 H132        7.6150    2.8430   -5.6060 hc        1 GSJ      0.097700
     61 H1          5.9130    6.4570   -5.9030 hn        1 GSJ      0.399800
     62 H7          9.6700    8.3240   -6.1570 ha        1 GSJ      0.168000
     63 H5          7.6010    6.6660   -9.6070 ha        1 GSJ      0.166000
     64 H8          9.6820   10.5600   -7.2280 ha        1 GSJ      0.182000
     65 H10         9.1440   12.0110   -9.1540 ha        1 GSJ      0.185000
     66 H3          7.0500    8.1000  -11.5190 ha        1 GSJ      0.164000
     67 H2          7.1130   10.3380  -12.6160 ha        1 GSJ      0.189000
     68 H42         1.5720    2.0490    2.0410 hn        1 GSJ      0.407800
     69 H31         1.2430    2.8120   -2.3980 hn        1 GSJ      0.449800
     70 H121        6.9940    6.1160   -4.7180 hn        1 GSJ      0.399800
@<TRIPOS>BOND
     1    1    2 1   
     2    1   37 1   
     3    1   38 1   
     4    1   39 1   
     5    2    3 1   
     6    2    4 1   
     7    5    6 1   
     8    5   40 1   
     9    5   68 1   
    10    6    7 1   
    11    6   41 1   
    12    6   42 1   
    13    7    8 1   
    14    7   43 1   
    15    7   44 1   
    16    8    9 1   
    17    8   12 1   
    18    8   69 1   
    19    9   10 1   
    20    9   11 1   
    21    9   45 1   
    22   10   46 1   
    23   10   47 1   
    24   10   48 1   
    25   11   49 1   
    26   11   50 1   
    27   11   51 1   
    28   12   13 2   
    29   12   14 1   
    30   14   15 1   
    31   14   16 1   
    32   14   52 1   
    33   15   53 1   
    34   15   54 1   
    35   15   55 1   
    36   16   17 1   
    37   16   21 1   
    38   17   18 2   
    39   17   19 1   
    40   19   20 1   
    41   19   22 1   
    42   19   58 1   
    43   20   21 1   
    44   20   59 1   
    45   20   60 1   
    46   21   56 1   
    47   21   57 1   
    48   22   61 1   
    49   22   70 1   
    50   23   24 1   
    51   23   25 1   
    52   23   26 1   
    53   26   27 ar  
    54   26   32 ar  
    55   27   28 ar  
    56   27   62 1   
    57   28   29 ar  
    58   28   64 1   
    59   29   30 ar  
    60   29   31 ar  
    61   30   35 ar  
    62   30   65 1   
    63   31   32 ar  
    64   31   33 ar  
    65   32   63 1   
    66   33   34 ar  
    67   33   66 1   
    68   34   35 ar  
    69   34   67 1   
    70   35   36 1   
@<TRIPOS>SUBSTRUCTURE
     1 GSJ         1 TEMP              0 ****  ****    0 ROOT
