@<TRIPOS>MOLECULE
GSJ
   70    70     1     0     0
SMALL
bcc


@<TRIPOS>ATOM
      1 C23         1.4890   -0.4090    3.3600 c3        1 GSJ     -0.589800
      2 S2          1.1710   -0.6700    1.8260 s4        1 GSJ      1.653500
      3 O5          2.1390   -1.2180    1.0630 o         1 GSJ     -0.403900
      4 O6         -0.0960   -0.4800    1.4020 o         1 GSJ     -0.403900
      5 N4          1.7910    1.5380    0.9750 n3        1 GSJ     -1.006800
      6 C22         0.8000    2.0160    0.0240 c3        1 GSJ      0.111800
      7 C11         1.0250    3.4310   -0.5450 c3        1 GSJ      0.072800
      8 N3          1.4920    3.4910   -1.9610 n4        1 GSJ     -0.607200
      9 C19         1.3970    4.9200   -2.5140 c3        1 GSJ      0.135500
     10 C20         1.9620    5.9570   -1.5590 c3        1 GSJ     -0.134100
     11 C21        -0.0370    5.2640   -2.8910 c3        1 GSJ     -0.134100
     12 C18         2.8930    2.9520   -2.1540 c         1 GSJ      0.519100
     13 O4          3.5710    2.7910   -1.1500 o         1 GSJ     -0.452100
     14 C16         3.3080    2.5910   -3.6150 c3        1 GSJ      0.093700
     15 C17         3.2970    1.0620   -3.6690 c3        1 GSJ     -0.130100
     16 N2          4.5410    3.2200   -3.9560 n         1 GSJ     -0.485800
     17 C15         4.6070    4.3440   -4.7950 c         1 GSJ      0.672500
     18 O3          3.6540    5.1070   -4.9910 o         1 GSJ     -0.607500
     19 C12         6.0300    4.4700   -5.3890 c3        1 GSJ      0.088500
     20 C13         6.8610    3.4510   -4.5750 c3        1 GSJ     -0.103400
     21 C14         5.8380    2.5630   -3.8370 c3        1 GSJ      0.081000
     22 N1          6.5570    5.8180   -5.4380 n3        1 GSJ     -0.972800
     23 S1          8.7300    5.8770   -6.8270 s4        1 GSJ      1.687300
     24 O2          8.2640    4.7720   -7.4700 o         1 GSJ     -0.440400
     25 O1          9.3530    5.7850   -5.6240 o         1 GSJ     -0.440400
     26 C6          8.6940    7.2190   -7.5590 ca        1 GSJ     -0.665500
     27 C7          9.2380    8.3970   -6.9240 ca        1 GSJ     -0.046000
     28 C8          9.2970    9.5970   -7.5620 ca        1 GSJ     -0.105000
     29 C9          8.8210    9.7430   -8.9020 ca        1 GSJ      0.088000
     30 C10         8.8950   10.9690   -9.5870 ca        1 GSJ     -0.164000
     31 C4          8.2650    8.5950   -9.5540 ca        1 GSJ     -0.111000
     32 C5          8.2100    7.3770   -8.8780 ca        1 GSJ      0.125000
     33 C3          7.7960    8.7270  -10.8990 ca        1 GSJ     -0.057000
     34 C2          7.8790    9.9290  -11.5510 ca        1 GSJ     -0.122000
     35 C1          8.4330   11.0660  -10.8950 ca        1 GSJ      0.117400
     36 CL1         8.5240   12.5220  -11.7210 cl        1 GSJ      0.031600
     37 H231        2.5620   -0.1460    3.6200 h1        1 GSJ      0.219367
     38 H232        0.8760    0.3930    3.8790 h1        1 GSJ      0.219367
     39 H233        1.3100   -1.3020    4.0530 h1        1 GSJ      0.219367
     40 H4          1.8940    2.1950    1.7330 hn        1 GSJ      0.407800
     41 H221       -0.2010    2.0300    0.5560 h1        1 GSJ      0.106200
     42 H222        0.7160    1.2530   -0.8030 h1        1 GSJ      0.106200
     43 H111        1.7700    4.0030    0.0840 hx        1 GSJ      0.126200
     44 H112        0.0390    3.9860   -0.5040 hx        1 GSJ      0.126200
     45 H19         2.0280    4.9170   -3.4620 hx        1 GSJ      0.128700
     46 H201        2.9770    5.6730   -1.1870 hc        1 GSJ      0.083200
     47 H202        1.2840    6.1340   -0.6890 hc        1 GSJ      0.083200
     48 H203        2.0550    6.9230   -2.1210 hc        1 GSJ      0.083200
     49 H211       -0.0220    6.2590   -3.4120 hc        1 GSJ      0.083200
     50 H212       -0.6970    5.3590   -1.9950 hc        1 GSJ      0.083200
     51 H213       -0.4770    4.5180   -3.5970 hc        1 GSJ      0.083200
     52 H16         2.5100    2.9870   -4.3220 h1        1 GSJ      0.104700
     53 H171        2.2730    0.6890   -3.4260 hc        1 GSJ      0.081700
     54 H172        4.0320    0.6200   -2.9530 hc        1 GSJ      0.081700
     55 H173        3.5580    0.7180   -4.7030 hc        1 GSJ      0.081700
     56 H141        5.8060    1.5360   -4.2970 h1        1 GSJ      0.078200
     57 H142        6.1030    2.4620   -2.7490 h1        1 GSJ      0.078200
     58 H12         5.9520    4.1080   -6.4640 h1        1 GSJ      0.130700
     59 H131        7.4910    2.8310   -5.2600 hc        1 GSJ      0.097700
     60 H132        7.5390    3.9510   -3.8370 hc        1 GSJ      0.097700
     61 H1          5.8480    6.4460   -5.7840 hn        1 GSJ      0.399800
     62 H7          9.6290    8.2960   -5.8940 ha        1 GSJ      0.168000
     63 H5          7.7860    6.4940   -9.4000 ha        1 GSJ      0.166000
     64 H8          9.7270   10.4830   -7.0590 ha        1 GSJ      0.183000
     65 H10         9.3280   11.8490   -9.0790 ha        1 GSJ      0.185000
     66 H3          7.3720    7.8440  -11.4060 ha        1 GSJ      0.164000
     67 H2          7.5230   10.0310  -12.5930 ha        1 GSJ      0.190000
     68 H42         2.6910    1.4310    0.5310 hn        1 GSJ      0.407800
     69 H31         0.8620    2.9130   -2.5340 hn        1 GSJ      0.453800
     70 H121        6.8490    6.1240   -4.5250 hn        1 GSJ      0.399800
@<TRIPOS>BOND
     1    1    2 1   
     2    1   37 1   
     3    1   38 1   
     4    1   39 1   
     5    2    3 1   
     6    2    4 1   
     7    5    6 1   
     8    5   40 1   
     9    5   68 1   
    10    6    7 1   
    11    6   41 1   
    12    6   42 1   
    13    7    8 1   
    14    7   43 1   
    15    7   44 1   
    16    8    9 1   
    17    8   12 1   
    18    8   69 1   
    19    9   10 1   
    20    9   11 1   
    21    9   45 1   
    22   10   46 1   
    23   10   47 1   
    24   10   48 1   
    25   11   49 1   
    26   11   50 1   
    27   11   51 1   
    28   12   13 2   
    29   12   14 1   
    30   14   15 1   
    31   14   16 1   
    32   14   52 1   
    33   15   53 1   
    34   15   54 1   
    35   15   55 1   
    36   16   17 1   
    37   16   21 1   
    38   17   18 2   
    39   17   19 1   
    40   19   20 1   
    41   19   22 1   
    42   19   58 1   
    43   20   21 1   
    44   20   59 1   
    45   20   60 1   
    46   21   56 1   
    47   21   57 1   
    48   22   61 1   
    49   22   70 1   
    50   23   24 1   
    51   23   25 1   
    52   23   26 1   
    53   26   27 ar  
    54   26   32 ar  
    55   27   28 ar  
    56   27   62 1   
    57   28   29 ar  
    58   28   64 1   
    59   29   30 ar  
    60   29   31 ar  
    61   30   35 ar  
    62   30   65 1   
    63   31   32 ar  
    64   31   33 ar  
    65   32   63 1   
    66   33   34 ar  
    67   33   66 1   
    68   34   35 ar  
    69   34   67 1   
    70   35   36 1   
@<TRIPOS>SUBSTRUCTURE
     1 GSJ         1 TEMP              0 ****  ****    0 ROOT
