@<TRIPOS>MOLECULE
GSJ
   67    64     1     0     0
SMALL
bcc


@<TRIPOS>ATOM
      1 C23        -3.7660   -0.9590    6.6460 c3        1 GSJ     -0.940000
      2 S2         -3.6400    0.3880    5.4600 s4        1 GSJ      2.035800
      3 O5         -4.9560    0.9660    5.1700 o         1 GSJ     -0.545900
      4 O6         -2.9620    1.5170    6.0240 o         1 GSJ     -0.545900
      5 N4         -2.8940   -0.1360    4.0690 n2        1 GSJ     -0.896000
      6 C22        -3.6630   -0.4200    2.9260 c3        1 GSJ     -0.028000
      7 C11        -3.3830    0.6120    1.8560 c3        1 GSJ     -0.049000
      8 N3         -3.7630    0.0630    0.5330 n         1 GSJ     -0.321000
      9 C19        -5.0920    0.4320   -0.0870 c3        1 GSJ      0.031000
     10 C20        -5.2030    1.9640   -0.1950 c3        1 GSJ     -0.239000
     11 C21        -6.2310   -0.1010    0.7870 c3        1 GSJ     -0.239000
     12 C18        -2.8400   -0.8260   -0.1840 c2        1 GSJ      0.277000
     13 O4         -2.2390   -1.6980    0.4220 o         1 GSJ     -0.385000
     14 C16        -2.6420   -0.6670   -1.7030 c3        1 GSJ      0.034000
     15 C17        -3.4920   -1.6400   -2.4170 c3        1 GSJ     -0.222000
     16 N2         -1.2690   -0.9020   -2.0380 n         1 GSJ     -0.319000
     17 C15        -0.3860   -0.0180   -2.9730 c2        1 GSJ      0.285000
     18 O3         -0.6130    1.1120   -3.2990 o         1 GSJ     -0.358000
     19 C12         1.0460   -0.7760   -3.0900 c3        1 GSJ      0.024000
     20 C13         0.9530   -1.6680   -2.1490 c3        1 GSJ     -0.185000
     21 C14        -0.6660   -1.9930   -1.9450 c3        1 GSJ     -0.040000
     22 N1          2.2660    0.1580   -2.9580 n3        1 GSJ     -0.868000
     23 S1          3.7740   -0.3780   -3.4040 s4        1 GSJ      2.076800
     24 O2          4.0090   -0.1730   -4.8180 o         1 GSJ     -0.541400
     25 O1          3.8610   -1.7960   -3.3130 o         1 GSJ     -0.541400
     26 C6          5.0700    0.4380   -2.3920 c1        1 GSJ     -0.835000
     27 C7          5.5360    1.7150   -2.7710 c2        1 GSJ     -0.032000
     28 C8          6.5920    2.3080   -2.0700 c1        1 GSJ     -0.137000
     29 C9          7.1910    1.6310   -0.9880 c1        1 GSJ      0.021000
     30 C10         8.2440    2.2350   -0.2620 c2        1 GSJ     -0.132000
     31 C4          6.7310    0.3780   -0.6190 c1        1 GSJ     -0.080000
     32 C5          5.6610   -0.2260   -1.3260 c1        1 GSJ      0.026000
     33 C3          7.3210   -0.3000    0.4890 c2        1 GSJ     -0.088000
     34 C2          8.3390    0.2870    1.1880 c1        1 GSJ     -0.134000
     35 C1          8.8130    1.5730    0.8120 c1        1 GSJ     -0.036000
     36 CL1        10.1710    2.2900    1.5860 cl        1 GSJ     -0.005000
     37 H231       -4.4020   -1.6420    6.3060 h1        1 GSJ      0.153333
     38 H232       -2.8730   -1.3720    6.7740 h1        1 GSJ      0.153333
     39 H233       -4.0900   -0.6090    7.5040 h1        1 GSJ      0.153333
     40 H4         -1.9810   -0.2900    4.0620 hn        1 GSJ      0.251000
     41 H221       -3.4320   -1.3070    2.5910 h1        1 GSJ      0.098500
     42 H222       -4.6120   -0.3980    3.1580 h1        1 GSJ      0.098500
     43 H111       -2.4140    0.8340    1.8580 h1        1 GSJ      0.107500
     44 H112       -3.9050    1.4230    2.0360 h1        1 GSJ      0.107500
     45 H19        -5.1570    0.0340   -0.9820 h1        1 GSJ      0.085000
     46 H201       -4.3080    2.3470   -0.3930 hc        1 GSJ      0.091667
     47 H202       -5.8220    2.1970   -0.9100 hc        1 GSJ      0.091667
     48 H203       -5.5390    2.3350    0.6690 hc        1 GSJ      0.091667
     49 H211       -7.0720   -0.1420    0.2500 hc        1 GSJ      0.091667
     50 H212       -6.0080   -0.9880    1.1050 hc        1 GSJ      0.091667
     51 H213       -6.3570    0.4850    1.5370 hc        1 GSJ      0.091667
     52 H16        -2.8980    0.2570   -1.9750 h1        1 GSJ      0.136000
     53 H171       -4.3370   -1.2430   -2.6090 hc        1 GSJ      0.093333
     54 H172       -3.0610   -1.8990   -3.2460 hc        1 GSJ      0.093333
     55 H173       -3.6220   -2.4290   -1.8580 hc        1 GSJ      0.093333
     56 H141       -0.8170   -2.3810   -1.0780 h1        1 GSJ      0.105500
     57 H142       -0.9720   -2.6000   -2.6360 h1        1 GSJ      0.105500
     58 H12         1.1880   -1.1740   -3.9680 h1        1 GSJ      0.155000
     59 H131        1.4240   -2.4810   -2.4130 hc        1 GSJ      0.108000
     60 H132        1.3270   -1.3210   -1.3270 hc        1 GSJ      0.108000
     61 H1          2.1570    1.0000   -2.6580 hn        1 GSJ      0.246000
     62 H7          5.1590    2.1610   -3.5640 ha        1 GSJ      0.169000
     63 H5          5.3180   -1.1370   -1.0430 ha        1 GSJ      0.163000
     64 H8          6.9210    3.2060   -2.3360 ha        1 GSJ      0.145000
     65 H10         8.5730    3.1210   -0.5190 ha        1 GSJ      0.154000
     66 H3          6.9920   -1.1980    0.7540 ha        1 GSJ      0.144000
     67 H2          8.7430   -0.1780    1.9440 ha        1 GSJ      0.152000
@<TRIPOS>BOND
     1    1    2 1   
     2    1   37 1   
     3    1   38 1   
     4    1   39 1   
     5    2    3 1   
     6    2    4 1   
     7    5    6 1   
     8    5   40 1   
     9    6    7 1   
    10    6   41 1   
    11    6   42 1   
    12    7    8 1   
    13    7   43 1   
    14    7   44 1   
    15    8    9 1   
    16    8   12 1   
    17    9   10 1   
    18    9   11 1   
    19    9   45 1   
    20   10   46 1   
    21   10   47 1   
    22   10   48 1   
    23   11   49 1   
    24   11   50 1   
    25   11   51 1   
    26   12   13 1   
    27   12   14 1   
    28   14   15 1   
    29   14   16 1   
    30   14   52 1   
    31   15   53 1   
    32   15   54 1   
    33   15   55 1   
    34   16   17 1   
    35   16   21 1   
    36   17   18 1   
    37   17   19 1   
    38   19   20 1   
    39   19   22 1   
    40   19   58 1   
    41   20   21 1   
    42   20   59 1   
    43   20   60 1   
    44   21   56 1   
    45   21   57 1   
    46   22   23 1   
    47   22   61 1   
    48   23   24 1   
    49   23   25 1   
    50   26   27 1   
    51   26   32 1   
    52   27   28 1   
    53   27   62 1   
    54   28   64 1   
    55   29   30 1   
    56   29   31 1   
    57   30   35 1   
    58   30   65 1   
    59   31   33 1   
    60   32   63 1   
    61   33   34 1   
    62   33   66 1   
    63   34   67 1   
    64   35   36 1   
@<TRIPOS>SUBSTRUCTURE
     1 GSJ         1 TEMP              0 ****  ****    0 ROOT
