@<TRIPOS>MOLECULE
GSJ
   70    70     1     0     0
SMALL
bcc


@<TRIPOS>ATOM
      1 C23         1.1640    1.1430    3.9490 c3        1 GSJ     -0.583800
      2 S2          0.4370    1.0230    2.5380 s4        1 GSJ      1.650500
      3 O5          0.6710   -0.0820    1.8010 o         1 GSJ     -0.403400
      4 O6         -0.5100    1.9380    2.2390 o         1 GSJ     -0.403400
      5 N4          2.0810    2.2550    1.2570 n8        1 GSJ     -1.007800
      6 C22         1.4230    3.1260    0.2960 c3        1 GSJ      0.121800
      7 C11         2.3440    4.0310   -0.5500 c3        1 GSJ      0.083800
      8 N3          2.3820    3.7810   -2.0230 nx        1 GSJ     -0.609200
      9 C19         1.0660    4.0160   -2.7610 c3        1 GSJ      0.139500
     10 C20         0.3070    5.2230   -2.2300 c3        1 GSJ     -0.133100
     11 C21         0.1460    2.8060   -2.8110 c3        1 GSJ     -0.133100
     12 C18         2.9860    2.4400   -2.3690 c         1 GSJ      0.535100
     13 O4          3.1350    1.6420   -1.4550 o         1 GSJ     -0.456100
     14 C16         3.3780    2.1960   -3.8570 c3        1 GSJ      0.083700
     15 C17         3.3780    0.6820   -4.0660 c3        1 GSJ     -0.120100
     16 N2          4.6090    2.8630   -4.1700 n         1 GSJ     -0.483800
     17 C15         4.6440    4.1940   -4.6020 c         1 GSJ      0.667500
     18 O3          3.7840    5.0300   -4.2740 o         1 GSJ     -0.658500
     19 C12         5.8990    4.4440   -5.4710 c3        1 GSJ      0.098500
     20 C13         6.7550    3.1770   -5.2320 c3        1 GSJ     -0.106400
     21 C14         5.8040    2.1390   -4.6020 c3        1 GSJ      0.078000
     22 N1          6.5760    5.7020   -5.2570 n8        1 GSJ     -0.966800
     23 S1          8.7170    5.9190   -6.8330 s4        1 GSJ      1.686300
     24 O2          8.1620    4.8890   -7.5240 o         1 GSJ     -0.438900
     25 O1          9.3490    5.7110   -5.6490 o         1 GSJ     -0.438900
     26 C6          8.7430    7.3030   -7.4720 ca        1 GSJ     -0.671500
     27 C7          9.3700    8.4050   -6.7760 ca        1 GSJ     -0.046000
     28 C8          9.4850    9.6390   -7.3350 ca        1 GSJ     -0.104000
     29 C9          8.9890    9.9020   -8.6500 ca        1 GSJ      0.091000
     30 C10         9.1190   11.1640   -9.2550 ca        1 GSJ     -0.165000
     31 C4          8.3510    8.8320   -9.3610 ca        1 GSJ     -0.112000
     32 C5          8.2390    7.5780   -8.7660 ca        1 GSJ      0.127000
     33 C3          7.8600    9.0830  -10.6810 ca        1 GSJ     -0.055000
     34 C2          7.9990   10.3180  -11.2560 ca        1 GSJ     -0.123000
     35 C1          8.6350   11.3750  -10.5410 ca        1 GSJ      0.121400
     36 Cl1         8.7940   12.8750  -11.2720 cl        1 GSJ      0.035600
     37 H231        0.6250    0.6290    4.8160 h1        1 GSJ      0.216033
     38 H232        2.1960    0.6780    4.0280 h1        1 GSJ      0.216033
     39 H233        1.2990    2.1890    4.3640 h1        1 GSJ      0.216033
     40 H4          2.6910    2.7850    1.8590 hn        1 GSJ      0.410300
     41 H221        0.7200    3.8030    0.8710 h1        1 GSJ      0.106200
     42 H222        0.7910    2.4700   -0.3710 h1        1 GSJ      0.106200
     43 H111        2.0110    5.1030   -0.4080 hx        1 GSJ      0.112200
     44 H112        3.4120    3.9520   -0.1870 hx        1 GSJ      0.112200
     45 H19         1.4030    4.2610   -3.8220 hx        1 GSJ      0.115700
     46 H201       -0.1010    5.0380   -1.2070 hc        1 GSJ      0.081200
     47 H202       -0.5600    5.4110   -2.9170 hc        1 GSJ      0.081200
     48 H203        0.9410    6.1440   -2.2210 hc        1 GSJ      0.081200
     49 H211       -0.5550    2.9470   -3.6760 hc        1 GSJ      0.081200
     50 H212       -0.4810    2.7210   -1.8900 hc        1 GSJ      0.081200
     51 H213        0.6980    1.8480   -2.9720 hc        1 GSJ      0.081200
     52 H16         2.5420    2.6430   -4.4850 h1        1 GSJ      0.095700
     53 H171        3.5180    0.4470   -5.1510 hc        1 GSJ      0.087367
     54 H172        4.1870    0.1850   -3.4760 hc        1 GSJ      0.087367
     55 H173        2.3920    0.2670   -3.7400 hc        1 GSJ      0.087367
     56 H141        6.2780    1.6470   -3.7090 h1        1 GSJ      0.084700
     57 H142        5.5420    1.3420   -5.3520 h1        1 GSJ      0.084700
     58 H12         5.5320    4.4410   -6.5450 h1        1 GSJ      0.124700
     59 H131        7.6170    3.3740   -4.5460 hc        1 GSJ      0.100200
     60 H132        7.1640    2.8010   -6.2040 hc        1 GSJ      0.100200
     61 H1          7.0340    5.7210   -4.3620 hn        1 GSJ      0.396300
     62 H7          9.7770    8.2120   -5.7650 ha        1 GSJ      0.168000
     63 H5          7.7510    6.7580   -9.3320 ha        1 GSJ      0.166000
     64 H8          9.9770   10.4630   -6.7860 ha        1 GSJ      0.184000
     65 H10         9.6150   11.9810   -8.7020 ha        1 GSJ      0.186000
     66 H3          7.3730    8.2610  -11.2340 ha        1 GSJ      0.165000
     67 H2          7.6260   10.5100  -12.2780 ha        1 GSJ      0.191000
     68 H42         2.6320    1.5560    0.7780 hn        1 GSJ      0.410300
     69 H31         3.0270    4.4990   -2.4160 hn        1 GSJ      0.488800
     70 H121        5.9140    6.4580   -5.3050 hn        1 GSJ      0.396300
@<TRIPOS>BOND
     1    1    2 1   
     2    1   37 1   
     3    1   38 1   
     4    1   39 1   
     5    2    3 1   
     6    2    4 1   
     7    5    6 1   
     8    5   40 1   
     9    5   68 1   
    10    6    7 1   
    11    6   41 1   
    12    6   42 1   
    13    7    8 1   
    14    7   43 1   
    15    7   44 1   
    16    8    9 1   
    17    8   12 1   
    18    8   69 1   
    19    9   10 1   
    20    9   11 1   
    21    9   45 1   
    22   10   46 1   
    23   10   47 1   
    24   10   48 1   
    25   11   49 1   
    26   11   50 1   
    27   11   51 1   
    28   12   13 2   
    29   12   14 1   
    30   14   15 1   
    31   14   16 1   
    32   14   52 1   
    33   15   53 1   
    34   15   54 1   
    35   15   55 1   
    36   16   17 1   
    37   16   21 1   
    38   17   18 2   
    39   17   19 1   
    40   19   20 1   
    41   19   22 1   
    42   19   58 1   
    43   20   21 1   
    44   20   59 1   
    45   20   60 1   
    46   21   56 1   
    47   21   57 1   
    48   22   61 1   
    49   22   70 1   
    50   23   24 1   
    51   23   25 1   
    52   23   26 1   
    53   26   27 ar  
    54   26   32 ar  
    55   27   28 ar  
    56   27   62 1   
    57   28   29 ar  
    58   28   64 1   
    59   29   30 ar  
    60   29   31 ar  
    61   30   35 ar  
    62   30   65 1   
    63   31   32 ar  
    64   31   33 ar  
    65   32   63 1   
    66   33   34 ar  
    67   33   66 1   
    68   34   35 ar  
    69   34   67 1   
    70   35   36 1   
@<TRIPOS>SUBSTRUCTURE
     1 GSJ         1 TEMP              0 ****  ****    0 ROOT
