@<TRIPOS>MOLECULE
GSK
   56    59     1     0     0
SMALL
bcc


@<TRIPOS>ATOM
      1 CL1         0.5370   -3.4410   -2.5720 cl        1 GSK     -0.020400
      2 C1          1.8520   -2.6420   -1.8810 ca        1 GSK      0.082400
      3 C2          1.6420   -1.8530   -0.7160 ca        1 GSK     -0.119000
      4 C3          2.6940   -1.1940   -0.1340 ca        1 GSK     -0.072000
      5 C4          4.0050   -1.2910   -0.6870 ca        1 GSK     -0.097000
      6 C5          5.0990   -0.6250   -0.1060 ca        1 GSK      0.099000
      7 C9          4.2090   -2.0840   -1.8520 ca        1 GSK      0.059000
      8 C10         3.1110   -2.7570   -2.4400 ca        1 GSK     -0.149000
      9 C8          5.5240   -2.1820   -2.3930 ca        1 GSK     -0.107000
     10 C7          6.5690   -1.5230   -1.8100 ca        1 GSK     -0.055000
     11 C6          6.3860   -0.7150   -0.6410 ca        1 GSK     -0.560500
     12 S1          7.6490   -0.0180    0.0380 sy        1 GSK      1.490200
     13 O2          7.4540    0.4070    1.3360 o         1 GSK     -0.576300
     14 O1          8.8840   -0.4710   -0.3820 o         1 GSK     -0.576300
     15 N1          7.5780    1.6340   -0.9650 n4        1 GSK     -0.683900
     16 C12         7.4600    2.8570   -0.1490 c3        1 GSK      0.005500
     17 C13         8.7730    3.5770    0.2020 c3        1 GSK     -0.098400
     18 C14         8.4330    5.0770    0.0810 c3        1 GSK      0.058000
     19 C15         6.5990    3.9500   -0.8560 c         1 GSK      0.692500
     20 O3          5.5950    3.6460   -1.5080 o         1 GSK     -0.586500
     21 N2          7.2070    5.2020   -0.7120 n         1 GSK     -0.394800
     22 C16         6.4020    6.3960   -0.4970 c3        1 GSK      0.036700
     23 C17         5.3890    6.6360   -1.6130 c3        1 GSK     -0.107100
     24 C18         5.6440    6.3480    0.8590 c         1 GSK      0.630100
     25 O4          5.4640    5.2410    1.4190 o         1 GSK     -0.641100
     26 N3          5.1950    7.5070    1.4440 n         1 GSK     -0.451800
     27 C19         4.4020    7.4390    2.6600 c3        1 GSK      0.051500
     28 C20         4.7050    8.5910    3.6280 c3        1 GSK      0.112400
     29 O5          4.6490    9.8520    2.9730 os        1 GSK     -0.396600
     30 C22         5.5480    9.9270    1.8760 c3        1 GSK      0.112400
     31 C23         5.2770    8.8190    0.8430 c3        1 GSK      0.051500
     32 H2          0.6260   -1.7800   -0.2900 ha        1 GSK      0.175000
     33 H3          2.5410   -0.5800    0.7690 ha        1 GSK      0.159000
     34 H5          4.9280   -0.0210    0.8080 ha        1 GSK      0.166000
     35 H10         3.2780   -3.3690   -3.3420 ha        1 GSK      0.172000
     36 H8          5.6820   -2.8060   -3.2890 ha        1 GSK      0.169000
     37 H7          7.5900   -1.6250   -2.2220 ha        1 GSK      0.163000
     38 H1          8.4150    1.6980   -1.5440 hn        1 GSK      0.453800
     39 H12         6.9070    2.5950    0.8080 hx        1 GSK      0.153700
     40 H131        9.0930    3.3320    1.2440 hc        1 GSK      0.085200
     41 H132        9.6080    3.3150   -0.4950 hc        1 GSK      0.085200
     42 H141        9.2520    5.6300   -0.4540 h1        1 GSK      0.080200
     43 H142        8.3000    5.5240    1.1060 h1        1 GSK      0.080200
     44 H16         7.1460    7.2500   -0.4780 h1        1 GSK      0.087700
     45 H171        4.8570    7.6000   -1.4250 hc        1 GSK      0.067700
     46 H172        5.9060    6.7000   -2.6010 hc        1 GSK      0.067700
     47 H173        4.6380    5.8090   -1.6580 hc        1 GSK      0.067700
     48 H191        3.3110    7.4800    2.3760 h1        1 GSK      0.065450
     49 H192        4.5980    6.4610    3.1830 h1        1 GSK      0.065450
     50 H201        3.9050    8.6480    4.4130 h1        1 GSK      0.065450
     51 H202        5.7100    8.4570    4.1080 h1        1 GSK      0.065450
     52 H221        6.6060    9.8720    2.2460 h1        1 GSK      0.065450
     53 H222        5.3500   10.9300    1.4150 h1        1 GSK      0.065450
     54 H231        4.2960    9.0430    0.3300 h1        1 GSK      0.065450
     55 H232        6.0950    8.8570    0.0730 h1        1 GSK      0.065450
     56 H121        6.7710    1.6130   -1.5990 hn        1 GSK      0.453800
@<TRIPOS>BOND
     1    1    2 1   
     2    2    3 ar  
     3    2    8 ar  
     4    3    4 ar  
     5    3   32 1   
     6    4    5 ar  
     7    4   33 1   
     8    5    6 ar  
     9    5    7 ar  
    10    6   11 ar  
    11    6   34 1   
    12    7    8 ar  
    13    7    9 ar  
    14    8   35 1   
    15    9   10 ar  
    16    9   36 1   
    17   10   11 ar  
    18   10   37 1   
    19   11   12 1   
    20   12   13 2   
    21   12   14 2   
    22   12   15 1   
    23   15   16 1   
    24   15   38 1   
    25   15   56 1   
    26   16   17 1   
    27   16   19 1   
    28   16   39 1   
    29   17   18 1   
    30   17   40 1   
    31   17   41 1   
    32   18   21 1   
    33   18   42 1   
    34   18   43 1   
    35   19   20 2   
    36   19   21 1   
    37   21   22 1   
    38   22   23 1   
    39   22   24 1   
    40   22   44 1   
    41   23   45 1   
    42   23   46 1   
    43   23   47 1   
    44   24   25 2   
    45   24   26 1   
    46   26   27 1   
    47   26   31 1   
    48   27   28 1   
    49   27   48 1   
    50   27   49 1   
    51   28   29 1   
    52   28   50 1   
    53   28   51 1   
    54   29   30 1   
    55   30   31 1   
    56   30   52 1   
    57   30   53 1   
    58   31   54 1   
    59   31   55 1   
@<TRIPOS>SUBSTRUCTURE
     1 GSK         1 TEMP              0 ****  ****    0 ROOT
