@<TRIPOS>MOLECULE
GSK
   56    59     1     0     0
SMALL
bcc


@<TRIPOS>ATOM
      1 CL1         0.5830   -3.5510   -2.4250 cl        1 GSK     -0.020400
      2 C1          1.8950   -2.7260   -1.7570 ca        1 GSK      0.082400
      3 C2          1.6850   -1.9230   -0.6010 ca        1 GSK     -0.119000
      4 C3          2.7340   -1.2430   -0.0380 ca        1 GSK     -0.072000
      5 C4          4.0410   -1.3300   -0.6030 ca        1 GSK     -0.097000
      6 C5          5.1310   -0.6410   -0.0430 ca        1 GSK      0.099000
      7 C9          4.2440   -2.1360   -1.7600 ca        1 GSK      0.059000
      8 C10         3.1500   -2.8310   -2.3280 ca        1 GSK     -0.149000
      9 C8          5.5550   -2.2240   -2.3130 ca        1 GSK     -0.107000
     10 C7          6.5960   -1.5430   -1.7500 ca        1 GSK     -0.055000
     11 C6          6.4150   -0.7220   -0.5900 ca        1 GSK     -0.560500
     12 S1          7.6750    0.0010    0.0670 sy        1 GSK      1.490200
     13 O2          7.4870    0.4420    1.3610 o         1 GSK     -0.576300
     14 O1          8.9120   -0.4430   -0.3580 o         1 GSK     -0.576300
     15 N1          7.5730    1.6370   -0.9590 n4        1 GSK     -0.683900
     16 C12         7.4550    2.8710   -0.1580 c3        1 GSK      0.005500
     17 C13         8.7660    3.6060    0.1650 c3        1 GSK     -0.098400
     18 C14         8.4130    5.1020    0.0260 c3        1 GSK      0.058000
     19 C15         6.5760    3.9460   -0.8700 c         1 GSK      0.692500
     20 O3          5.5660    3.6240   -1.5040 o         1 GSK     -0.586500
     21 N2          7.1770    5.2050   -0.7540 n         1 GSK     -0.394800
     22 C16         6.3670    6.3970   -0.5490 c3        1 GSK      0.036700
     23 C17         5.3360    6.6100   -1.6550 c3        1 GSK     -0.107100
     24 C18         5.6280    6.3690    0.8180 c         1 GSK      0.630100
     25 O4          5.4640    5.2720    1.4010 o         1 GSK     -0.640100
     26 N3          5.1800    7.5360    1.3880 n         1 GSK     -0.451800
     27 C19         4.4050    7.4860    2.6170 c3        1 GSK      0.051500
     28 C20         4.7140    8.6570    3.5580 c3        1 GSK      0.112900
     29 O5          4.6410    9.9060    2.8800 os        1 GSK     -0.396600
     30 C22         5.5230    9.9660    1.7700 c3        1 GSK      0.112900
     31 C23         5.2440    8.8370    0.7620 c3        1 GSK      0.051500
     32 H2          0.6730   -1.8590   -0.1660 ha        1 GSK      0.175000
     33 H3          2.5820   -0.6190    0.8580 ha        1 GSK      0.159000
     34 H5          4.9620   -0.0280    0.8650 ha        1 GSK      0.166000
     35 H10         3.3160   -3.4540   -3.2230 ha        1 GSK      0.172000
     36 H8          5.7120   -2.8570   -3.2030 ha        1 GSK      0.169000
     37 H7          7.6140   -1.6370   -2.1710 ha        1 GSK      0.163000
     38 H1          6.7570    1.5990   -1.5810 hn        1 GSK      0.453800
     39 H12         6.9160    2.6180    0.8090 hx        1 GSK      0.153700
     40 H131        9.5950    3.3400   -0.5370 hc        1 GSK      0.085200
     41 H132        9.1000    3.3790    1.2080 hc        1 GSK      0.085200
     42 H141        8.2890    5.5640    1.0450 h1        1 GSK      0.080200
     43 H142        9.2210    5.6520   -0.5280 h1        1 GSK      0.080200
     44 H16         7.1060    7.2550   -0.5570 h1        1 GSK      0.087700
     45 H171        5.8390    6.6580   -2.6520 hc        1 GSK      0.067700
     46 H172        4.5890    5.7780   -1.6730 hc        1 GSK      0.067700
     47 H173        4.8010    7.5740   -1.4770 hc        1 GSK      0.067700
     48 H191        4.6150    6.5190    3.1540 h1        1 GSK      0.065450
     49 H192        3.3100    7.5140    2.3470 h1        1 GSK      0.065450
     50 H201        3.9260    8.7240    4.3540 h1        1 GSK      0.065450
     51 H202        5.7270    8.5390    4.0260 h1        1 GSK      0.065450
     52 H221        6.5860    9.9240    2.1260 h1        1 GSK      0.065450
     53 H222        5.3120   10.9590    1.2940 h1        1 GSK      0.065450
     54 H231        4.2550    9.0460    0.2580 h1        1 GSK      0.065450
     55 H232        6.0510    8.8660   -0.0200 h1        1 GSK      0.065450
     56 H121        8.4010    1.7000   -1.5510 hn        1 GSK      0.453800
@<TRIPOS>BOND
     1    1    2 1   
     2    2    3 ar  
     3    2    8 ar  
     4    3    4 ar  
     5    3   32 1   
     6    4    5 ar  
     7    4   33 1   
     8    5    6 ar  
     9    5    7 ar  
    10    6   11 ar  
    11    6   34 1   
    12    7    8 ar  
    13    7    9 ar  
    14    8   35 1   
    15    9   10 ar  
    16    9   36 1   
    17   10   11 ar  
    18   10   37 1   
    19   11   12 1   
    20   12   13 2   
    21   12   14 2   
    22   12   15 1   
    23   15   16 1   
    24   15   38 1   
    25   15   56 1   
    26   16   17 1   
    27   16   19 1   
    28   16   39 1   
    29   17   18 1   
    30   17   40 1   
    31   17   41 1   
    32   18   21 1   
    33   18   42 1   
    34   18   43 1   
    35   19   20 2   
    36   19   21 1   
    37   21   22 1   
    38   22   23 1   
    39   22   24 1   
    40   22   44 1   
    41   23   45 1   
    42   23   46 1   
    43   23   47 1   
    44   24   25 2   
    45   24   26 1   
    46   26   27 1   
    47   26   31 1   
    48   27   28 1   
    49   27   48 1   
    50   27   49 1   
    51   28   29 1   
    52   28   50 1   
    53   28   51 1   
    54   29   30 1   
    55   30   31 1   
    56   30   52 1   
    57   30   53 1   
    58   31   54 1   
    59   31   55 1   
@<TRIPOS>SUBSTRUCTURE
     1 GSK         1 TEMP              0 ****  ****    0 ROOT
