@<TRIPOS>MOLECULE
GSK
   56    59     1     0     0
SMALL
bcc


@<TRIPOS>ATOM
      1 Cl1         0.5780   -3.4100   -2.8050 cl        1 GSK     -0.020400
      2 C1          1.8730   -2.6220   -2.0650 ca        1 GSK      0.082400
      3 C2          1.6310   -1.8490   -0.8960 ca        1 GSK     -0.119000
      4 C3          2.6660   -1.1990   -0.2760 ca        1 GSK     -0.072000
      5 C4          3.9920   -1.2890   -0.7930 ca        1 GSK     -0.097000
      6 C5          5.0690   -0.6310   -0.1730 ca        1 GSK      0.099000
      7 C9          4.2280   -2.0660   -1.9640 ca        1 GSK      0.059000
      8 C10         3.1480   -2.7290   -2.5910 ca        1 GSK     -0.149000
      9 C8          5.5580   -2.1560   -2.4690 ca        1 GSK     -0.107000
     10 C7          6.5860   -1.5060   -1.8470 ca        1 GSK     -0.055000
     11 C6          6.3710   -0.7140   -0.6730 ca        1 GSK     -0.560500
     12 S1          7.6150   -0.0280    0.0510 sy        1 GSK      1.490200
     13 O2          7.3830    0.3800    1.3490 o         1 GSK     -0.576300
     14 O1          8.8610   -0.4780   -0.3390 o         1 GSK     -0.576300
     15 N1          7.5730    1.6370   -0.9310 ny        1 GSK     -0.683900
     16 C12         7.4450    2.8500   -0.1020 c3        1 GSK      0.005500
     17 C13         8.7540    3.5550    0.2900 c3        1 GSK     -0.098400
     18 C14         8.4300    5.0590    0.1780 c3        1 GSK      0.058000
     19 C15         6.6100    3.9590   -0.8150 c         1 GSK      0.692500
     20 O3          5.6180    3.6710   -1.4950 o         1 GSK     -0.586500
     21 N2          7.2260    5.2040   -0.6430 n         1 GSK     -0.394800
     22 C16         6.4270    6.4040   -0.4370 c3        1 GSK      0.036700
     23 C17         5.4410    6.6620   -1.5730 c3        1 GSK     -0.107100
     24 C18         5.6390    6.3540    0.9020 c         1 GSK      0.630100
     25 O4          5.4370    5.2450    1.4500 o         1 GSK     -0.640100
     26 N3          5.1900    7.5130    1.4860 n         1 GSK     -0.451800
     27 C19         4.3700    7.4450    2.6840 c3        1 GSK      0.051500
     28 C20         4.6640    8.5870    3.6660 c3        1 GSK      0.112900
     29 O5          4.6350    9.8540    3.0190 os        1 GSK     -0.396600
     30 C22         5.5580    9.9260    1.9420 c3        1 GSK      0.112900
     31 C23         5.2980    8.8280    0.8960 c3        1 GSK      0.051500
     32 H2          0.6040   -1.7820   -0.4980 ha        1 GSK      0.175000
     33 H3          2.4870   -0.5980    0.6320 ha        1 GSK      0.159000
     34 H5          4.8730   -0.0410    0.7450 ha        1 GSK      0.166000
     35 H10         3.3400   -3.3290   -3.4960 ha        1 GSK      0.172000
     36 H8          5.7410   -2.7670   -3.3690 ha        1 GSK      0.169000
     37 H7          7.6180   -1.6030   -2.2320 ha        1 GSK      0.163000
     38 H1          8.4230    1.7030   -1.4920 hn        1 GSK      0.453800
     39 H12         6.8660    2.5790    0.8370 hx        1 GSK      0.153700
     40 H131        9.6040    3.2930   -0.3880 hc        1 GSK      0.085200
     41 H132        9.0460    3.2950    1.3370 hc        1 GSK      0.085200
     42 H141        9.2670    5.6110   -0.3300 h1        1 GSK      0.080200
     43 H142        8.2750    5.4960    1.2040 h1        1 GSK      0.080200
     44 H16         7.1800    7.2490   -0.3960 h1        1 GSK      0.087700
     45 H171        4.9150    7.6300   -1.3900 hc        1 GSK      0.067700
     46 H172        4.6820    5.8430   -1.6390 hc        1 GSK      0.067700
     47 H173        5.9800    6.7260   -2.5490 hc        1 GSK      0.067700
     48 H191        4.5450    6.4610    3.2030 h1        1 GSK      0.065450
     49 H192        3.2860    7.4990    2.3760 h1        1 GSK      0.065450
     50 H201        3.8480    8.6470    4.4350 h1        1 GSK      0.065450
     51 H202        5.6570    8.4400    4.1660 h1        1 GSK      0.065450
     52 H221        5.3800   10.9350    1.4850 h1        1 GSK      0.065450
     53 H222        6.6070    9.8580    2.3350 h1        1 GSK      0.065450
     54 H231        4.3300    9.0660    0.3630 h1        1 GSK      0.065450
     55 H232        6.1330    8.8630    0.1440 h1        1 GSK      0.065450
     56 H121        6.7810    1.6280   -1.5830 hn        1 GSK      0.453800
@<TRIPOS>BOND
     1    1    2 1   
     2    2    3 ar  
     3    2    8 ar  
     4    3    4 ar  
     5    3   32 1   
     6    4    5 ar  
     7    4   33 1   
     8    5    6 ar  
     9    5    7 ar  
    10    6   11 ar  
    11    6   34 1   
    12    7    8 ar  
    13    7    9 ar  
    14    8   35 1   
    15    9   10 ar  
    16    9   36 1   
    17   10   11 ar  
    18   10   37 1   
    19   11   12 1   
    20   12   13 2   
    21   12   14 2   
    22   12   15 1   
    23   15   16 1   
    24   15   38 1   
    25   15   56 1   
    26   16   17 1   
    27   16   19 1   
    28   16   39 1   
    29   17   18 1   
    30   17   40 1   
    31   17   41 1   
    32   18   21 1   
    33   18   42 1   
    34   18   43 1   
    35   19   20 2   
    36   19   21 1   
    37   21   22 1   
    38   22   23 1   
    39   22   24 1   
    40   22   44 1   
    41   23   45 1   
    42   23   46 1   
    43   23   47 1   
    44   24   25 2   
    45   24   26 1   
    46   26   27 1   
    47   26   31 1   
    48   27   28 1   
    49   27   48 1   
    50   27   49 1   
    51   28   29 1   
    52   28   50 1   
    53   28   51 1   
    54   29   30 1   
    55   30   31 1   
    56   30   52 1   
    57   30   53 1   
    58   31   54 1   
    59   31   55 1   
@<TRIPOS>SUBSTRUCTURE
     1 GSK         1 TEMP              0 ****  ****    0 ROOT
