@<TRIPOS>MOLECULE
GSK
   55    54     1     0     0
SMALL
bcc


@<TRIPOS>ATOM
      1 CL1         6.3070   -3.3230   -5.6080 cl        1 GSK     -0.006000
      2 C1          5.4750   -3.0280   -4.1570 c2        1 GSK     -0.036000
      3 C2          5.7960   -1.9840   -3.3160 c2        1 GSK     -0.135000
      4 C3          5.1450   -1.8550   -2.0740 c1        1 GSK     -0.087000
      5 C4          4.1870   -2.7720   -1.6990 c1        1 GSK     -0.080000
      6 C5          3.5160   -2.6270   -0.4740 c2        1 GSK      0.026000
      7 C9          3.8690   -3.8050   -2.5310 c1        1 GSK      0.020000
      8 C10         4.5310   -3.9330   -3.7890 c1        1 GSK     -0.132000
      9 C8          2.8660   -4.7280   -2.1620 c2        1 GSK     -0.138000
     10 C7          2.2030   -4.5820   -0.9500 c1        1 GSK     -0.031000
     11 C6          2.5260   -3.5360   -0.1080 c1        1 GSK     -0.833000
     12 S1          1.6610   -3.3310    1.4440 s4        1 GSK      2.076800
     13 O2          1.2510   -4.6100    1.9900 o         1 GSK     -0.541900
     14 O1          2.5250   -2.8690    2.4530 o         1 GSK     -0.541900
     15 N1          0.3490   -2.3060    1.2490 n2        1 GSK     -0.869000
     16 C12         0.0270   -1.3530    2.2830 c3        1 GSK      0.025000
     17 C13         0.7670   -0.3010    2.1480 c3        1 GSK     -0.184000
     18 C14        -0.1660    1.0020    2.5330 c3        1 GSK     -0.040000
     19 C15        -1.4580   -0.7390    2.0190 c2        1 GSK      0.286000
     20 O3         -2.4030   -1.3410    1.6070 o         1 GSK     -0.356000
     21 N2         -1.3070    0.7870    2.0460 n         1 GSK     -0.315000
     22 C16        -2.3920    1.7530    1.9160 c3        1 GSK      0.034000
     23 C17        -2.6360    2.4140    3.2260 c3        1 GSK     -0.222000
     24 C18        -2.0110    2.8060    0.8710 c2        1 GSK      0.281000
     25 O4         -0.8230    3.1020    0.7040 o         1 GSK     -0.378000
     26 N3         -3.0420    3.5420    0.1780 n         1 GSK     -0.325000
     27 C19        -2.7680    4.6020   -0.6970 c3        1 GSK     -0.062000
     28 C20        -3.4530    4.4190   -2.0610 c3        1 GSK     -0.046000
     29 O5         -4.8510    4.1380   -1.9330 os        1 GSK     -0.267000
     30 C22        -5.1040    3.0660   -1.0460 c3        1 GSK     -0.046000
     31 C23        -4.4090    3.2580    0.3160 c3        1 GSK     -0.062000
     32 H2          6.4420   -1.2780   -3.6190 ha        1 GSK      0.152000
     33 H3          5.3640   -1.1460   -1.5030 ha        1 GSK      0.144000
     34 H5          3.7360   -1.9130    0.1030 ha        1 GSK      0.163000
     35 H10         4.3670   -4.6930   -4.3370 ha        1 GSK      0.153000
     36 H8          2.6400   -5.4590   -2.7510 ha        1 GSK      0.145000
     37 H7          1.4910   -5.2380   -0.6840 ha        1 GSK      0.170000
     38 H1         -0.0890   -2.2700    0.4380 hn        1 GSK      0.248000
     39 H12         0.1550   -1.9030    3.0970 h1        1 GSK      0.154000
     40 H131        1.5140   -0.3510    2.7390 hc        1 GSK      0.108500
     41 H132        1.0850   -0.2290    1.1970 hc        1 GSK      0.108500
     42 H141       -0.2280    1.0910    3.4900 h1        1 GSK      0.104500
     43 H142        0.2150    1.8040    2.1500 h1        1 GSK      0.104500
     44 H16        -3.2280    1.2770    1.6240 h1        1 GSK      0.134000
     45 H171       -2.3530    3.3310    3.1780 hc        1 GSK      0.093333
     46 H172       -2.1010    1.9280    3.9620 hc        1 GSK      0.093333
     47 H173       -3.6550    2.3730    3.4530 hc        1 GSK      0.093333
     48 H191       -3.0770    5.4370   -0.2950 h1        1 GSK      0.105500
     49 H192       -1.7960    4.6540   -0.8350 h1        1 GSK      0.105500
     50 H201       -3.0380    3.7100   -2.5180 h1        1 GSK      0.098750
     51 H202       -3.3390    5.2740   -2.6050 h1        1 GSK      0.098750
     52 H221       -4.7920    2.2690   -1.4340 h1        1 GSK      0.098750
     53 H222       -6.1110    2.9880   -0.8970 h1        1 GSK      0.098750
     54 H231       -4.8670    4.0500    0.8210 h1        1 GSK      0.105500
     55 H232       -4.5160    2.4290    0.8500 h1        1 GSK      0.105500
@<TRIPOS>BOND
     1    1    2 1   
     2    2    3 1   
     3    2    8 1   
     4    3    4 1   
     5    3   32 1   
     6    4   33 1   
     7    5    6 1   
     8    5    7 1   
     9    6   11 1   
    10    6   34 1   
    11    7    9 1   
    12    8   35 1   
    13    9   10 1   
    14    9   36 1   
    15   10   37 1   
    16   11   12 1   
    17   12   13 1   
    18   12   14 1   
    19   15   16 1   
    20   15   38 1   
    21   16   17 1   
    22   16   19 1   
    23   16   39 1   
    24   17   18 1   
    25   17   40 1   
    26   17   41 1   
    27   18   21 1   
    28   18   42 1   
    29   18   43 1   
    30   19   20 1   
    31   19   21 1   
    32   21   22 1   
    33   22   23 1   
    34   22   24 1   
    35   22   44 1   
    36   23   45 1   
    37   23   46 1   
    38   23   47 1   
    39   24   25 1   
    40   24   26 1   
    41   26   27 1   
    42   26   31 1   
    43   27   28 1   
    44   27   48 1   
    45   27   49 1   
    46   28   29 1   
    47   28   50 1   
    48   28   51 1   
    49   29   30 1   
    50   30   31 1   
    51   30   52 1   
    52   30   53 1   
    53   31   54 1   
    54   31   55 1   
@<TRIPOS>SUBSTRUCTURE
     1 GSK         1 TEMP              0 ****  ****    0 ROOT
