@<TRIPOS>MOLECULE
GSK
   55    58     1     0     0
SMALL
bcc


@<TRIPOS>ATOM
      1 CL1         4.8710   -5.7380   -2.1780 cl        1 GSK     -0.086400
      2 C1          4.3240   -4.2810   -1.4950 ca        1 GSK      0.044400
      3 C2          3.0520   -4.2610   -0.8620 ca        1 GSK     -0.139000
      4 C3          2.5890   -3.0970   -0.3030 ca        1 GSK     -0.080000
      5 C4          3.3700   -1.9090   -0.3510 ca        1 GSK     -0.079000
      6 C5          2.9080   -0.6960    0.2240 ca        1 GSK      0.045000
      7 C9          4.6370   -1.9350   -0.9870 ca        1 GSK      0.019000
      8 C10         5.1040   -3.1480   -1.5610 ca        1 GSK     -0.135000
      9 C8          5.4070   -0.7400   -1.0350 ca        1 GSK     -0.141000
     10 C7          4.9310    0.4150   -0.4730 ca        1 GSK     -0.043000
     11 C6          3.6650    0.4560    0.1750 ca        1 GSK     -0.395500
     12 S1          3.1670    1.8920    0.8990 sy        1 GSK      1.520200
     13 O2          2.8980    1.6790    2.2660 o         1 GSK     -0.652300
     14 O1          4.1130    2.8940    0.5980 o         1 GSK     -0.652300
     15 N1          1.7760    2.2290    0.1230 n3        1 GSK     -0.897100
     16 C12         0.4880    2.2530    0.7410 c3        1 GSK      0.165500
     17 C13        -0.3020    3.5710    0.5570 c3        1 GSK     -0.104400
     18 C14        -1.6630    3.1740   -0.0380 c3        1 GSK      0.071000
     19 C15        -0.4700    1.1560    0.1900 c         1 GSK      0.684500
     20 O3         -0.2060   -0.0540    0.1870 o         1 GSK     -0.623500
     21 N2         -1.6220    1.7480   -0.3410 n         1 GSK     -0.440800
     22 C16        -2.8810    1.0680   -0.5390 c3        1 GSK      0.060700
     23 C17        -2.7330   -0.3820   -0.9950 c3        1 GSK     -0.102100
     24 C18        -3.7860    1.0790    0.7240 c         1 GSK      0.629100
     25 O4         -3.2960    1.2510    1.8580 o         1 GSK     -0.606100
     26 N3         -5.1540    0.9140    0.5910 n         1 GSK     -0.473800
     27 C19        -5.9830    0.8140    1.7770 c3        1 GSK      0.057500
     28 C20        -7.3440    1.5000    1.6050 c3        1 GSK      0.112400
     29 O5         -7.9990    1.0800    0.4130 os        1 GSK     -0.408600
     30 C22        -7.2060    1.3080   -0.7440 c3        1 GSK      0.112400
     31 C23        -5.8350    0.6180   -0.6450 c3        1 GSK      0.057500
     32 H2          2.4520   -5.1830   -0.8270 ha        1 GSK      0.152000
     33 H3          1.6040   -3.0610    0.1890 ha        1 GSK      0.152000
     34 H5          1.9110   -0.6950    0.7080 ha        1 GSK      0.171000
     35 H10         6.0900   -3.1600   -2.0500 ha        1 GSK      0.152000
     36 H8          6.3900   -0.7640   -1.5300 ha        1 GSK      0.142000
     37 H7          5.5310    1.3430   -0.5100 ha        1 GSK      0.163000
     38 H1          1.7610    2.4540   -0.8430 hn        1 GSK      0.447800
     39 H12         0.6090    2.0370    1.8480 h1        1 GSK      0.121700
     40 H131        0.2210    4.2890   -0.1200 hc        1 GSK      0.069700
     41 H132       -0.4420    4.0690    1.5480 hc        1 GSK      0.069700
     42 H141       -1.8630    3.7340   -0.9920 h1        1 GSK      0.056200
     43 H142       -2.4910    3.4010    0.6910 h1        1 GSK      0.056200
     44 H16        -3.4010    1.6640   -1.3520 h1        1 GSK      0.065700
     45 H171       -2.3250   -1.0170   -0.1710 hc        1 GSK      0.060700
     46 H172       -3.7320   -0.7750   -1.3020 hc        1 GSK      0.060700
     47 H173       -2.0340   -0.4490   -1.8640 hc        1 GSK      0.060700
     48 H191       -6.1530   -0.2770    2.0080 h1        1 GSK      0.061200
     49 H192       -5.4460    1.2810    2.6510 h1        1 GSK      0.061200
     50 H201       -8.0370    1.1850    2.4290 h1        1 GSK      0.057700
     51 H202       -7.2320    2.6160    1.5990 h1        1 GSK      0.057700
     52 H221       -7.7980    0.8580   -1.5840 h1        1 GSK      0.057700
     53 H222       -7.0830    2.4110   -0.9050 h1        1 GSK      0.057700
     54 H231       -5.2220    0.9440   -1.5290 h1        1 GSK      0.061200
     55 H232       -5.9930   -0.4980   -0.7190 h1        1 GSK      0.061200
@<TRIPOS>BOND
     1    1    2 1   
     2    2    3 ar  
     3    2    8 ar  
     4    3    4 ar  
     5    3   32 1   
     6    4    5 ar  
     7    4   33 1   
     8    5    6 ar  
     9    5    7 ar  
    10    6   11 ar  
    11    6   34 1   
    12    7    8 ar  
    13    7    9 ar  
    14    8   35 1   
    15    9   10 ar  
    16    9   36 1   
    17   10   11 ar  
    18   10   37 1   
    19   11   12 1   
    20   12   13 2   
    21   12   14 2   
    22   12   15 1   
    23   15   16 1   
    24   15   38 1   
    25   16   17 1   
    26   16   19 1   
    27   16   39 1   
    28   17   18 1   
    29   17   40 1   
    30   17   41 1   
    31   18   21 1   
    32   18   42 1   
    33   18   43 1   
    34   19   20 2   
    35   19   21 1   
    36   21   22 1   
    37   22   23 1   
    38   22   24 1   
    39   22   44 1   
    40   23   45 1   
    41   23   46 1   
    42   23   47 1   
    43   24   25 2   
    44   24   26 1   
    45   26   27 1   
    46   26   31 1   
    47   27   28 1   
    48   27   48 1   
    49   27   49 1   
    50   28   29 1   
    51   28   50 1   
    52   28   51 1   
    53   29   30 1   
    54   30   31 1   
    55   30   52 1   
    56   30   53 1   
    57   31   54 1   
    58   31   55 1   
@<TRIPOS>SUBSTRUCTURE
     1 GSK         1 TEMP              0 ****  ****    0 ROOT
