@<TRIPOS>MOLECULE
GSL
  120   120     1     0     0
SMALL
bcc


@<TRIPOS>ATOM
      1 C17       -13.7140   -8.3780   -1.8730 c3        1 GSL     -0.092100
      2 C16       -13.3690   -6.9900   -1.4000 c3        1 GSL     -0.080400
      3 C15       -11.8720   -6.7690   -1.3690 c3        1 GSL     -0.079400
      4 C14       -11.5300   -5.3730   -0.8930 c3        1 GSL     -0.079400
      5 C13       -10.0330   -5.1530   -0.8630 c3        1 GSL     -0.079400
      6 C12        -9.6910   -3.7570   -0.3870 c3        1 GSL     -0.078400
      7 C11        -8.1940   -3.5370   -0.3560 c3        1 GSL     -0.079400
      8 C10        -7.8520   -2.1410    0.1190 c3        1 GSL     -0.078400
      9 C9         -6.3550   -1.9220    0.1490 c3        1 GSL     -0.079400
     10 C8         -6.0130   -0.5260    0.6250 c3        1 GSL     -0.078400
     11 C7         -4.5150   -0.3070    0.6550 c3        1 GSL     -0.080400
     12 C6         -4.1720    1.0890    1.1290 c3        1 GSL     -0.076400
     13 C5         -2.6740    1.3060    1.1560 c3        1 GSL     -0.082400
     14 C4         -2.3290    2.7010    1.6300 c3        1 GSL     -0.069400
     15 C3         -0.8320    2.9190    1.6290 c3        1 GSL     -0.133400
     16 C2         -0.4770    4.3140    2.1240 c3        1 GSL      0.121100
     17 O          -1.0650    4.5860    3.3920 oh        1 GSL     -0.614800
     18 C1          1.0570    4.5670    2.2420 c3        1 GSL      0.048700
     19 C           1.3180    6.0700    1.9830 c3        1 GSL      0.140400
     20 O1          0.7760    6.5300    0.7530 os        1 GSL     -0.466600
     21 C29         1.6890    6.6710   -0.3260 c3        1 GSL      0.299900
     22 O3          1.8100    5.4150   -0.9430 os        1 GSL     -0.407600
     23 C28         0.6040    4.9290   -1.5380 c3        1 GSL     -0.030900
     24 C34         0.9320    3.5010   -2.0630 c         1 GSL      0.937600
     25 O7          1.0070    2.5920   -1.1900 o         1 GSL     -0.825800
     26 O6          1.0710    3.3330   -3.3030 o         1 GSL     -0.825800
     27 C33         0.0970    5.8930   -2.6100 c3        1 GSL      0.117100
     28 O5          1.0140    6.1060   -3.6700 oh        1 GSL     -0.648800
     29 C32        -0.1570    7.2710   -1.9680 c3        1 GSL      0.114100
     30 O4         -0.5960    8.2120   -2.9270 oh        1 GSL     -0.601800
     31 C30         1.1190    7.7590   -1.2640 c3        1 GSL      0.098100
     32 O31         0.9070    8.9540   -0.5410 oh        1 GSL     -0.596800
     33 N           1.8920    3.7200    1.4350 n         1 GSL     -0.546900
     34 C18         2.4950    2.5920    1.9590 c         1 GSL      0.661100
     35 O2          2.5210    2.3740    3.1930 o         1 GSL     -0.671100
     36 C19         3.1830    1.6770    0.9630 c3        1 GSL     -0.164400
     37 C20         3.5680    0.3630    1.6050 c3        1 GSL     -0.066400
     38 C21         4.2740   -0.5340    0.6120 c3        1 GSL     -0.081400
     39 C22         4.6460   -1.8600    1.2390 c3        1 GSL     -0.077400
     40 C23         5.3540   -2.7590    0.2470 c3        1 GSL     -0.080400
     41 C24         5.7230   -4.0870    0.8730 c3        1 GSL     -0.078400
     42 C25         6.4310   -4.9840   -0.1190 c3        1 GSL     -0.079400
     43 C26         6.7990   -6.3130    0.5060 c3        1 GSL     -0.078400
     44 C27         7.5070   -7.2100   -0.4870 c3        1 GSL     -0.079400
     45 C38         7.8750   -8.5390    0.1380 c3        1 GSL     -0.078400
     46 C37         8.5820   -9.4360   -0.8550 c3        1 GSL     -0.079400
     47 C36         8.9520  -10.7650   -0.2320 c3        1 GSL     -0.080400
     48 C35         9.6560  -11.6620   -1.2170 c3        1 GSL     -0.092100
     49 H171      -13.2690   -9.1470   -1.1960 hc        1 GSL      0.031033
     50 H172      -14.8210   -8.5200   -1.8880 hc        1 GSL      0.031033
     51 H173      -13.3210   -8.5520   -2.9040 hc        1 GSL      0.031033
     52 H161      -13.8440   -6.2320   -2.0770 hc        1 GSL      0.037700
     53 H162      -13.7920   -6.8250   -0.3730 hc        1 GSL      0.037700
     54 H151      -11.3950   -7.5240   -0.6910 hc        1 GSL      0.039200
     55 H152      -11.4470   -6.9310   -2.3940 hc        1 GSL      0.039200
     56 H141      -12.0070   -4.6170   -1.5710 hc        1 GSL      0.038200
     57 H142      -11.9550   -5.2100    0.1330 hc        1 GSL      0.038200
     58 H131       -9.5560   -5.9080   -0.1840 hc        1 GSL      0.039200
     59 H132       -9.6080   -5.3150   -1.8880 hc        1 GSL      0.039200
     60 H121      -10.1690   -3.0010   -1.0650 hc        1 GSL      0.038200
     61 H122      -10.1160   -3.5950    0.6390 hc        1 GSL      0.038200
     62 H111       -7.7170   -4.2930    0.3220 hc        1 GSL      0.039700
     63 H112       -7.7690   -3.6990   -1.3820 hc        1 GSL      0.039700
     64 H101       -8.3290   -1.3860   -0.5590 hc        1 GSL      0.037700
     65 H102       -8.2770   -1.9790    1.1450 hc        1 GSL      0.037700
     66 H91        -5.8780   -2.6780    0.8280 hc        1 GSL      0.039700
     67 H92        -5.9300   -2.0840   -0.8760 hc        1 GSL      0.039700
     68 H81        -6.4890    0.2300   -0.0540 hc        1 GSL      0.036700
     69 H82        -6.4380   -0.3630    1.6500 hc        1 GSL      0.036700
     70 H71        -4.0380   -1.0630    1.3330 hc        1 GSL      0.041200
     71 H72        -4.0900   -0.4690   -0.3710 hc        1 GSL      0.041200
     72 H61        -4.6490    1.8440    0.4510 hc        1 GSL      0.034700
     73 H62        -4.5950    1.2520    2.1550 hc        1 GSL      0.034700
     74 H51        -2.1960    0.5500    1.8330 hc        1 GSL      0.048200
     75 H52        -2.2490    1.1460    0.1290 hc        1 GSL      0.048200
     76 H41        -2.8170    3.4580    0.9610 hc        1 GSL      0.035200
     77 H42        -2.7350    2.8660    2.6640 hc        1 GSL      0.035200
     78 H31A       -0.3370    2.1530    2.2830 hc        1 GSL      0.078700
     79 H32A       -0.4350    2.7820    0.5820 hc        1 GSL      0.078700
     80 H2         -0.9360    5.0870    1.4420 h1        1 GSL      0.087700
     81 HO         -0.8160    3.8630    3.9790 ho        1 GSL      0.395000
     82 H1          1.3390    4.3890    3.3270 h1        1 GSL      0.075700
     83 H1A         0.7480    6.6470    2.7630 h1        1 GSL      0.047700
     84 H2A         2.4120    6.2980    2.0570 h1        1 GSL      0.047700
     85 H29         2.7250    6.9370    0.0230 h2        1 GSL      0.073700
     86 H28        -0.1830    4.8380   -0.7360 h1        1 GSL      0.047700
     87 H33        -0.8630    5.4920   -3.0400 h1        1 GSL      0.051700
     88 HO5         1.3560    5.2300   -3.9220 ho        1 GSL      0.463000
     89 H32        -0.9990    7.1970   -1.2250 h1        1 GSL      0.075700
     90 HO4         0.0300    8.1750   -3.6630 ho        1 GSL      0.416000
     91 H30         1.9000    8.0130   -2.0340 h1        1 GSL      0.094700
     92 H31         0.2100    8.7710    0.1030 ho        1 GSL      0.408000
     93 HN          1.7260    3.7370    0.4410 hn        1 GSL      0.366500
     94 H191        2.5020    1.5000    0.0810 hc        1 GSL      0.093700
     95 H192        4.0980    2.2010    0.5780 hc        1 GSL      0.093700
     96 H201        4.2290    0.5540    2.4920 hc        1 GSL      0.045200
     97 H202        2.6460   -0.1460    1.9910 hc        1 GSL      0.045200
     98 H211        3.6100   -0.7080   -0.2760 hc        1 GSL      0.044200
     99 H212        5.2000   -0.0240    0.2350 hc        1 GSL      0.044200
    100 H221        5.3080   -1.6850    2.1280 hc        1 GSL      0.035700
    101 H222        3.7190   -2.3700    1.6140 hc        1 GSL      0.035700
    102 H231        4.6910   -2.9320   -0.6410 hc        1 GSL      0.040200
    103 H232        6.2800   -2.2480   -0.1270 hc        1 GSL      0.040200
    104 H241        6.3850   -3.9130    1.7620 hc        1 GSL      0.036700
    105 H242        4.7960   -4.5960    1.2470 hc        1 GSL      0.036700
    106 H251        5.7680   -5.1580   -1.0080 hc        1 GSL      0.039700
    107 H252        7.3570   -4.4740   -0.4930 hc        1 GSL      0.039700
    108 H261        7.4620   -6.1390    1.3940 hc        1 GSL      0.037700
    109 H262        5.8720   -6.8220    0.8790 hc        1 GSL      0.037700
    110 H271        6.8440   -7.3830   -1.3760 hc        1 GSL      0.039200
    111 H272        8.4330   -6.7000   -0.8610 hc        1 GSL      0.039200
    112 H381        8.5380   -8.3650    1.0260 hc        1 GSL      0.038200
    113 H382        6.9490   -9.0480    0.5120 hc        1 GSL      0.038200
    114 H371        7.9200   -9.6100   -1.7440 hc        1 GSL      0.039200
    115 H372        9.5090   -8.9270   -1.2290 hc        1 GSL      0.039200
    116 H361        9.6130  -10.5900    0.6580 hc        1 GSL      0.037700
    117 H362        8.0240  -11.2730    0.1430 hc        1 GSL      0.037700
    118 H351        9.9190  -12.6360   -0.7370 hc        1 GSL      0.030700
    119 H352        9.0020  -11.8690   -2.0990 hc        1 GSL      0.030700
    120 H353       10.5960  -11.1840   -1.5830 hc        1 GSL      0.030700
@<TRIPOS>BOND
     1    1    2 1   
     2    1   49 1   
     3    1   50 1   
     4    1   51 1   
     5    2    3 1   
     6    2   52 1   
     7    2   53 1   
     8    3    4 1   
     9    3   54 1   
    10    3   55 1   
    11    4    5 1   
    12    4   56 1   
    13    4   57 1   
    14    5    6 1   
    15    5   58 1   
    16    5   59 1   
    17    6    7 1   
    18    6   60 1   
    19    6   61 1   
    20    7    8 1   
    21    7   62 1   
    22    7   63 1   
    23    8    9 1   
    24    8   64 1   
    25    8   65 1   
    26    9   10 1   
    27    9   66 1   
    28    9   67 1   
    29   10   11 1   
    30   10   68 1   
    31   10   69 1   
    32   11   12 1   
    33   11   70 1   
    34   11   71 1   
    35   12   13 1   
    36   12   72 1   
    37   12   73 1   
    38   13   14 1   
    39   13   74 1   
    40   13   75 1   
    41   14   15 1   
    42   14   76 1   
    43   14   77 1   
    44   15   16 1   
    45   15   78 1   
    46   15   79 1   
    47   16   17 1   
    48   16   18 1   
    49   16   80 1   
    50   17   81 1   
    51   18   19 1   
    52   18   33 1   
    53   18   82 1   
    54   19   20 1   
    55   19   83 1   
    56   19   84 1   
    57   20   21 1   
    58   21   22 1   
    59   21   31 1   
    60   21   85 1   
    61   22   23 1   
    62   23   24 1   
    63   23   27 1   
    64   23   86 1   
    65   24   25 1   
    66   24   26 1   
    67   27   28 1   
    68   27   29 1   
    69   27   87 1   
    70   28   88 1   
    71   29   30 1   
    72   29   31 1   
    73   29   89 1   
    74   30   90 1   
    75   31   32 1   
    76   31   91 1   
    77   32   92 1   
    78   33   34 1   
    79   33   93 1   
    80   34   35 2   
    81   34   36 1   
    82   36   37 1   
    83   36   94 1   
    84   36   95 1   
    85   37   38 1   
    86   37   96 1   
    87   37   97 1   
    88   38   39 1   
    89   38   98 1   
    90   38   99 1   
    91   39   40 1   
    92   39  100 1   
    93   39  101 1   
    94   40   41 1   
    95   40  102 1   
    96   40  103 1   
    97   41   42 1   
    98   41  104 1   
    99   41  105 1   
   100   42   43 1   
   101   42  106 1   
   102   42  107 1   
   103   43   44 1   
   104   43  108 1   
   105   43  109 1   
   106   44   45 1   
   107   44  110 1   
   108   44  111 1   
   109   45   46 1   
   110   45  112 1   
   111   45  113 1   
   112   46   47 1   
   113   46  114 1   
   114   46  115 1   
   115   47   48 1   
   116   47  116 1   
   117   47  117 1   
   118   48  118 1   
   119   48  119 1   
   120   48  120 1   
@<TRIPOS>SUBSTRUCTURE
     1 GSL         1 TEMP              0 ****  ****    0 ROOT
