@<TRIPOS>MOLECULE
GSL
  120   120     1     0     0
SMALL
bcc


@<TRIPOS>ATOM
      1 C17         0.8670    0.2700   -1.2140 c3        1 GSL     -0.092100
      2 C16         2.1740   -0.3660   -0.8170 c3        1 GSL     -0.080400
      3 C15         2.7630    0.2950    0.4120 c3        1 GSL     -0.079400
      4 C14         4.0760   -0.3470    0.8070 c3        1 GSL     -0.079400
      5 C13         4.6630    0.3140    2.0350 c3        1 GSL     -0.078400
      6 C12         5.9760   -0.3280    2.4300 c3        1 GSL     -0.079400
      7 C11         6.5640    0.3330    3.6590 c3        1 GSL     -0.078400
      8 C10         7.8770   -0.3090    4.0530 c3        1 GSL     -0.079400
      9 C9          8.4650    0.3520    5.2820 c3        1 GSL     -0.078400
     10 C8          9.7780   -0.2890    5.6760 c3        1 GSL     -0.079400
     11 C7         10.3660    0.3710    6.9050 c3        1 GSL     -0.078400
     12 C6         11.6790   -0.2700    7.2990 c3        1 GSL     -0.079400
     13 C5         12.2670    0.3900    8.5280 c3        1 GSL     -0.077400
     14 C4         13.5830   -0.2490    8.9180 c3        1 GSL     -0.079400
     15 C3         14.1580    0.3990   10.1580 c3        1 GSL     -0.079400
     16 C2         15.5180   -0.1950   10.5120 c3        1 GSL      0.131100
     17 O          16.4670    0.4180    9.6480 oh        1 GSL     -0.616800
     18 C1         15.8630    0.1010   12.0020 c3        1 GSL      0.054700
     19 C          17.3920    0.1520   12.2070 c3        1 GSL      0.130400
     20 O1         18.0520   -0.9710   11.6360 os        1 GSL     -0.482600
     21 C29        18.5870   -1.9070   12.5640 c3        1 GSL      0.302900
     22 O3         17.5350   -2.7520   12.9480 os        1 GSL     -0.404600
     23 C28        17.0400   -3.6060   11.9130 c3        1 GSL     -0.029900
     24 C34        15.8720   -4.4150   12.5520 c         1 GSL      0.936600
     25 O7         14.8050   -3.7780   12.7640 o         1 GSL     -0.821800
     26 O6         16.0540   -5.6390   12.7870 o         1 GSL     -0.821800
     27 C33        18.1500   -4.4780   11.3280 c3        1 GSL      0.116100
     28 O5         18.7740   -5.3270   12.2750 oh        1 GSL     -0.649800
     29 C32        19.2580   -3.5700   10.7620 c3        1 GSL      0.115100
     30 O4         20.3220   -4.3270   10.2210 oh        1 GSL     -0.600800
     31 C30        19.7600   -2.6300   11.8690 c3        1 GSL      0.097100
     32 O31        20.6920   -1.6830   11.3890 oh        1 GSL     -0.593800
     33 N          15.2220   -0.8160   12.9080 n         1 GSL     -0.557900
     34 C18        14.1000   -0.4720   13.6270 c         1 GSL      0.664100
     35 O2         13.6370    0.6940   13.6120 o         1 GSL     -0.675100
     36 C19        13.4480   -1.5590   14.4620 c3        1 GSL     -0.145400
     37 C20        14.4040   -2.1470   15.4770 c3        1 GSL     -0.078400
     38 C21        13.6570   -2.9860   16.4930 c3        1 GSL     -0.072400
     39 C22        14.6130   -3.6300   17.4740 c3        1 GSL     -0.080400
     40 C23        13.8720   -4.4600   18.5000 c3        1 GSL     -0.077400
     41 C24        14.8290   -5.1090   19.4770 c3        1 GSL     -0.079400
     42 C25        14.0890   -5.9390   20.5040 c3        1 GSL     -0.078400
     43 C26        15.0470   -6.5890   21.4790 c3        1 GSL     -0.079400
     44 C27        14.3080   -7.4190   22.5070 c3        1 GSL     -0.078400
     45 C38        15.2660   -8.0690   23.4820 c3        1 GSL     -0.079400
     46 C37        14.5270   -8.8990   24.5100 c3        1 GSL     -0.079400
     47 C36        15.4840   -9.5490   25.4850 c3        1 GSL     -0.080400
     48 C35        14.7530  -10.3770   26.5110 c3        1 GSL     -0.092100
     49 H171        0.1190    0.1830   -0.3890 hc        1 GSL      0.031033
     50 H172        0.4510   -0.2310   -2.1210 hc        1 GSL      0.031033
     51 H173        1.0090    1.3540   -1.4440 hc        1 GSL      0.031033
     52 H161        2.9030   -0.2910   -1.6670 hc        1 GSL      0.038200
     53 H162        2.0160   -1.4580   -0.6140 hc        1 GSL      0.038200
     54 H151        2.0360    0.2190    1.2630 hc        1 GSL      0.039200
     55 H152        2.9230    1.3870    0.2100 hc        1 GSL      0.039200
     56 H141        4.8020   -0.2720   -0.0450 hc        1 GSL      0.039200
     57 H142        3.9150   -1.4390    1.0080 hc        1 GSL      0.039200
     58 H131        3.9370    0.2380    2.8870 hc        1 GSL      0.039200
     59 H132        4.8240    1.4060    1.8340 hc        1 GSL      0.039200
     60 H121        5.8160   -1.4200    2.6310 hc        1 GSL      0.039200
     61 H122        6.7030   -0.2520    1.5790 hc        1 GSL      0.039200
     62 H111        5.8370    0.2570    4.5100 hc        1 GSL      0.038700
     63 H112        6.7240    1.4250    3.4580 hc        1 GSL      0.038700
     64 H101        8.6030   -0.2330    3.2020 hc        1 GSL      0.038700
     65 H102        7.7160   -1.4010    4.2540 hc        1 GSL      0.038700
     66 H91         7.7390    0.2760    6.1340 hc        1 GSL      0.038200
     67 H92         8.6250    1.4440    5.0810 hc        1 GSL      0.038200
     68 H81        10.5040   -0.2130    4.8250 hc        1 GSL      0.039200
     69 H82         9.6180   -1.3810    5.8770 hc        1 GSL      0.039200
     70 H71         9.6400    0.2940    7.7570 hc        1 GSL      0.037700
     71 H72        10.5250    1.4640    6.7050 hc        1 GSL      0.037700
     72 H61        11.5200   -1.3620    7.4990 hc        1 GSL      0.039200
     73 H62        12.4060   -0.1920    6.4470 hc        1 GSL      0.039200
     74 H51        12.4220    1.4830    8.3310 hc        1 GSL      0.038700
     75 H52        11.5430    0.3070    9.3820 hc        1 GSL      0.038700
     76 H41        14.3180   -0.1500    8.0760 hc        1 GSL      0.044700
     77 H42        13.4290   -1.3450    9.1010 hc        1 GSL      0.044700
     78 H31A       14.2750    1.5020    9.9910 hc        1 GSL      0.058700
     79 H32A       13.4610    0.2570   11.0270 hc        1 GSL      0.058700
     80 H2         15.5180   -1.3080   10.3350 h1        1 GSL      0.054700
     81 HO         17.2730   -0.1110    9.7030 ho        1 GSL      0.409000
     82 H1         15.4870    1.1450   12.2340 h1        1 GSL      0.083700
     83 H1A        17.6360    0.2630   13.2950 h1        1 GSL      0.049200
     84 H2A        17.7930    1.0380   11.6400 h1        1 GSL      0.049200
     85 H29        18.9320   -1.4080   13.5130 h2        1 GSL      0.073700
     86 H28        16.6230   -2.9650   11.0870 h1        1 GSL      0.041700
     87 H33        17.7190   -5.1120   10.5040 h1        1 GSL      0.053700
     88 HO5        18.0590   -5.7530   12.7810 ho        1 GSL      0.464000
     89 H32        18.8600   -2.9690    9.8980 h1        1 GSL      0.071700
     90 HO4        20.5750   -4.9740   10.8930 ho        1 GSL      0.416000
     91 H30        20.3190   -3.2280   12.6420 h1        1 GSL      0.097700
     92 H31        20.2470   -1.1810   10.6930 ho        1 GSL      0.406000
     93 HN         15.4730   -1.7890   12.8470 hn        1 GSL      0.371500
     94 H191       12.5570   -1.1070   14.9700 hc        1 GSL      0.076200
     95 H192       13.0980   -2.3790   13.7740 hc        1 GSL      0.076200
     96 H201       14.9630   -1.3300   16.0020 hc        1 GSL      0.060200
     97 H202       15.1520   -2.7950   14.9380 hc        1 GSL      0.060200
     98 H211       12.9200   -2.3480   17.0480 hc        1 GSL      0.036200
     99 H212       13.0760   -3.7830   15.9580 hc        1 GSL      0.036200
    100 H221       15.2120   -2.8370   17.9930 hc        1 GSL      0.044200
    101 H222       15.3360   -4.2800   16.9130 hc        1 GSL      0.044200
    102 H231       13.2730   -5.2520   17.9780 hc        1 GSL      0.035700
    103 H232       13.1470   -3.8110   19.0590 hc        1 GSL      0.035700
    104 H241       15.4320   -4.3180   19.9950 hc        1 GSL      0.040200
    105 H242       15.5510   -5.7600   18.9160 hc        1 GSL      0.040200
    106 H251       13.3660   -5.2890   21.0630 hc        1 GSL      0.036700
    107 H252       13.4880   -6.7310   19.9840 hc        1 GSL      0.036700
    108 H261       15.6500   -5.7980   21.9980 hc        1 GSL      0.039200
    109 H262       15.7690   -7.2400   20.9190 hc        1 GSL      0.039200
    110 H271       13.5850   -6.7680   23.0670 hc        1 GSL      0.038200
    111 H272       13.7050   -8.2100   21.9880 hc        1 GSL      0.038200
    112 H381       15.9880   -8.7200   22.9220 hc        1 GSL      0.039200
    113 H382       15.8690   -7.2780   24.0000 hc        1 GSL      0.039200
    114 H371       13.8050   -8.2480   25.0700 hc        1 GSL      0.038200
    115 H372       13.9240   -9.6900   23.9910 hc        1 GSL      0.038200
    116 H361       16.2070  -10.1980   24.9230 hc        1 GSL      0.038200
    117 H362       16.0870   -8.7560   26.0020 hc        1 GSL      0.038200
    118 H351       15.4770  -10.8470   27.2200 hc        1 GSL      0.030367
    119 H352       14.0460   -9.7420   27.0980 hc        1 GSL      0.030367
    120 H353       14.1660  -11.1880   26.0170 hc        1 GSL      0.030367
@<TRIPOS>BOND
     1    1    2 1   
     2    1   49 1   
     3    1   50 1   
     4    1   51 1   
     5    2    3 1   
     6    2   52 1   
     7    2   53 1   
     8    3    4 1   
     9    3   54 1   
    10    3   55 1   
    11    4    5 1   
    12    4   56 1   
    13    4   57 1   
    14    5    6 1   
    15    5   58 1   
    16    5   59 1   
    17    6    7 1   
    18    6   60 1   
    19    6   61 1   
    20    7    8 1   
    21    7   62 1   
    22    7   63 1   
    23    8    9 1   
    24    8   64 1   
    25    8   65 1   
    26    9   10 1   
    27    9   66 1   
    28    9   67 1   
    29   10   11 1   
    30   10   68 1   
    31   10   69 1   
    32   11   12 1   
    33   11   70 1   
    34   11   71 1   
    35   12   13 1   
    36   12   72 1   
    37   12   73 1   
    38   13   14 1   
    39   13   74 1   
    40   13   75 1   
    41   14   15 1   
    42   14   76 1   
    43   14   77 1   
    44   15   16 1   
    45   15   78 1   
    46   15   79 1   
    47   16   17 1   
    48   16   18 1   
    49   16   80 1   
    50   17   81 1   
    51   18   19 1   
    52   18   33 1   
    53   18   82 1   
    54   19   20 1   
    55   19   83 1   
    56   19   84 1   
    57   20   21 1   
    58   21   22 1   
    59   21   31 1   
    60   21   85 1   
    61   22   23 1   
    62   23   24 1   
    63   23   27 1   
    64   23   86 1   
    65   24   25 1   
    66   24   26 1   
    67   27   28 1   
    68   27   29 1   
    69   27   87 1   
    70   28   88 1   
    71   29   30 1   
    72   29   31 1   
    73   29   89 1   
    74   30   90 1   
    75   31   32 1   
    76   31   91 1   
    77   32   92 1   
    78   33   34 1   
    79   33   93 1   
    80   34   35 2   
    81   34   36 1   
    82   36   37 1   
    83   36   94 1   
    84   36   95 1   
    85   37   38 1   
    86   37   96 1   
    87   37   97 1   
    88   38   39 1   
    89   38   98 1   
    90   38   99 1   
    91   39   40 1   
    92   39  100 1   
    93   39  101 1   
    94   40   41 1   
    95   40  102 1   
    96   40  103 1   
    97   41   42 1   
    98   41  104 1   
    99   41  105 1   
   100   42   43 1   
   101   42  106 1   
   102   42  107 1   
   103   43   44 1   
   104   43  108 1   
   105   43  109 1   
   106   44   45 1   
   107   44  110 1   
   108   44  111 1   
   109   45   46 1   
   110   45  112 1   
   111   45  113 1   
   112   46   47 1   
   113   46  114 1   
   114   46  115 1   
   115   47   48 1   
   116   47  116 1   
   117   47  117 1   
   118   48  118 1   
   119   48  119 1   
   120   48  120 1   
@<TRIPOS>SUBSTRUCTURE
     1 GSL         1 TEMP              0 ****  ****    0 ROOT
