@<TRIPOS>MOLECULE
GSM
   41    40     1     0     0
SMALL
bcc


@<TRIPOS>ATOM
      1 O32         7.2710   -0.6700    0.8430 o         1 GSM     -0.784300
      2 C3          6.8970   -1.1940   -0.2190 c         1 GSM      0.918600
      3 O31         7.6200   -1.6020   -1.1790 o         1 GSM     -0.784300
      4 CA3         5.3430   -1.2860   -0.4340 c3        1 GSM     -0.064200
      5 N3          4.9830   -1.3100   -1.8790 ny        1 GSM     -0.629800
      6 C2          5.0550    0.0190   -2.5380 c         1 GSM      0.578100
      7 O2          4.0600    0.4260   -3.1290 o         1 GSM     -0.455100
      8 CA2         6.3600    0.8240   -2.4310 c3        1 GSM      0.075500
      9 CB2         6.2170    1.8010   -1.2530 c3        1 GSM     -0.101300
     10 SG2         7.2620    3.2160   -1.4270 ss        1 GSM     -0.235200
     11 C4          6.1530    4.5670   -1.2600 c3        1 GSM     -0.057000
     12 N2          6.6640    1.5150   -3.7230 ny        1 GSM     -0.683800
     13 CD1         7.6150    0.7800   -4.6630 c         1 GSM      0.608100
     14 OE1         7.2350    0.7580   -5.8250 o         1 GSM     -0.436100
     15 CG1         8.9550    0.3410   -4.1370 c3        1 GSM     -0.125400
     16 CB1         9.3480   -1.0140   -4.7080 c3        1 GSM     -0.078400
     17 CA1         8.7730   -2.1450   -3.8630 c3        1 GSM     -0.039500
     18 N1          9.3750   -3.4790   -4.1720 nz        1 GSM     -0.823600
     19 C1          7.2240   -2.2510   -3.9880 c         1 GSM      0.938600
     20 O11         6.5700   -1.1780   -4.1780 o         1 GSM     -0.808300
     21 O12         6.6850   -3.3660   -3.7990 o         1 GSM     -0.808300
     22 HA31        4.8320   -0.4250    0.0720 hx        1 GSM      0.103700
     23 HA32        4.9940   -2.2520    0.0240 hx        1 GSM      0.103700
     24 HN3         5.6780   -1.9390   -2.3520 hn        1 GSM      0.492800
     25 HA2         7.2210    0.0980   -2.2170 hx        1 GSM      0.197700
     26 HB21        5.1530    2.1150   -1.1170 h1        1 GSM      0.132200
     27 HB22        6.5390    1.2460   -0.3210 h1        1 GSM      0.132200
     28 H41         6.7960    5.4810   -1.2980 h1        1 GSM      0.089033
     29 H42         5.4010    4.6120   -2.0770 h1        1 GSM      0.089033
     30 H43         5.6240    4.5490   -0.2800 h1        1 GSM      0.089033
     31 HN2         7.0900    2.4430   -3.4760 hn        1 GSM      0.470300
     32 HG11        9.6970    1.1150   -4.4860 hc        1 GSM      0.106700
     33 HG12        8.9950    0.3120   -3.0150 hc        1 GSM      0.106700
     34 HB11       10.4700   -1.0650   -4.7180 hc        1 GSM      0.080700
     35 HB12        8.9830   -1.0980   -5.7680 hc        1 GSM      0.080700
     36 HA1         8.9690   -1.9450   -2.7580 hx        1 GSM      0.169700
     37 HN11        9.5190   -3.5850   -5.1770 hn        1 GSM      0.462467
     38 HN12        8.6920   -4.1950   -3.8540 hn        1 GSM      0.462467
     39 H32         4.0420   -1.6950   -2.0190 hn        1 GSM      0.492800
     40 H22         5.7870    1.6750   -4.2420 hn        1 GSM      0.470300
     41 H13        10.2610   -3.6000   -3.6810 hn        1 GSM      0.462467
@<TRIPOS>BOND
     1    1    2 1   
     2    2    3 1   
     3    2    4 1   
     4    4    5 1   
     5    4   22 1   
     6    4   23 1   
     7    5    6 1   
     8    5   24 1   
     9    5   39 1   
    10    6    7 2   
    11    6    8 1   
    12    8    9 1   
    13    8   12 1   
    14    8   25 1   
    15    9   10 1   
    16    9   26 1   
    17    9   27 1   
    18   10   11 1   
    19   11   28 1   
    20   11   29 1   
    21   11   30 1   
    22   12   13 1   
    23   12   31 1   
    24   12   40 1   
    25   13   14 2   
    26   13   15 1   
    27   15   16 1   
    28   15   32 1   
    29   15   33 1   
    30   16   17 1   
    31   16   34 1   
    32   16   35 1   
    33   17   18 1   
    34   17   19 1   
    35   17   36 1   
    36   18   37 1   
    37   18   38 1   
    38   18   41 1   
    39   19   20 1   
    40   19   21 1   
@<TRIPOS>SUBSTRUCTURE
     1 GSM         1 TEMP              0 ****  ****    0 ROOT
