@<TRIPOS>MOLECULE
GSM
   41    40     1     0     0
SMALL
bcc


@<TRIPOS>ATOM
      1 O32         3.2490    2.1340    0.0970 o         1 GSM     -0.490000
      2 C3          2.4500    1.5190   -0.6090 c         1 GSM      0.598100
      3 O31         1.2660    2.1510   -0.8180 oh        1 GSM     -0.545100
      4 CA3         2.6730    0.1520   -1.2340 c3        1 GSM     -0.025000
      5 N3          3.9780   -0.3950   -0.9680 n         1 GSM     -0.501900
      6 C2          4.9980   -0.2440   -1.8820 c         1 GSM      0.644100
      7 O2          4.8040    0.0510   -3.0770 o         1 GSM     -0.593100
      8 CA2         6.4290   -0.5520   -1.3770 c3        1 GSM      0.052500
      9 CB2         6.8090    0.4570   -0.2870 c3        1 GSM     -0.081300
     10 SG2         8.5280    0.4090    0.0890 ss        1 GSM     -0.227200
     11 C4          9.1680    1.8670   -0.6550 c3        1 GSM     -0.070000
     12 N2          7.4100   -0.5120   -2.5050 n4        1 GSM     -0.686800
     13 CD1         7.3730   -1.7100   -3.4030 c         1 GSM      0.565100
     14 OE1         7.2660   -2.8100   -2.8760 o         1 GSM     -0.438100
     15 CG1         7.4820   -1.4570   -4.8890 c3        1 GSM     -0.148400
     16 CB1         8.8700   -1.7870   -5.4140 c3        1 GSM     -0.085400
     17 CA1         9.7460   -0.5340   -5.5200 c3        1 GSM     -0.040500
     18 N1         11.1980   -0.8710   -5.6530 n4        1 GSM     -0.825600
     19 C1          9.5540    0.3140   -4.2130 c         1 GSM      0.887600
     20 O11         8.7110    1.2390   -4.2480 o         1 GSM     -0.778800
     21 O12        10.1930   -0.0800   -3.1990 o         1 GSM     -0.778800
     22 HA31        1.9060   -0.5600   -0.8090 h1        1 GSM      0.108700
     23 HA32        2.5160    0.2320   -2.3500 h1        1 GSM      0.108700
     24 HN3         4.2240   -0.4570   -0.0020 hn        1 GSM      0.329500
     25 HA2         6.4550   -1.6030   -0.9500 hx        1 GSM      0.139700
     26 HB21        6.4770    1.4880   -0.5700 h1        1 GSM      0.117200
     27 HB22        6.2650    0.1740    0.6530 h1        1 GSM      0.117200
     28 H41         8.5640    2.7690   -0.4180 h1        1 GSM      0.092367
     29 H42        10.1900    1.9920   -0.2190 h1        1 GSM      0.092367
     30 H43         9.2670    1.7620   -1.7630 h1        1 GSM      0.092367
     31 HN2         7.2450    0.3430   -3.0740 hn        1 GSM      0.510300
     32 HG11        6.7290   -2.1420   -5.3740 hc        1 GSM      0.125700
     33 HG12        7.1970   -0.4000   -5.1550 hc        1 GSM      0.125700
     34 HB11        8.7590   -2.2460   -6.4340 hc        1 GSM      0.077700
     35 HB12        9.3510   -2.5530   -4.7480 hc        1 GSM      0.077700
     36 HA1         9.4390    0.0810   -6.4130 hx        1 GSM      0.122700
     37 HN11       11.6970   -0.0670   -6.0400 hn        1 GSM      0.461467
     38 HN12       11.5600   -1.0580   -4.7010 hn        1 GSM      0.461467
     39 H32         0.6910    1.6140   -1.3830 ho        1 GSM      0.436000
     40 H22         8.3810   -0.4260   -2.0850 hn        1 GSM      0.510300
     41 H13        11.3400   -1.6870   -6.2480 hn        1 GSM      0.461467
@<TRIPOS>BOND
     1    1    2 2   
     2    2    3 1   
     3    2    4 1   
     4    3   39 1   
     5    4    5 1   
     6    4   22 1   
     7    4   23 1   
     8    5    6 1   
     9    5   24 1   
    10    6    7 2   
    11    6    8 1   
    12    8    9 1   
    13    8   12 1   
    14    8   25 1   
    15    9   10 1   
    16    9   26 1   
    17    9   27 1   
    18   10   11 1   
    19   11   28 1   
    20   11   29 1   
    21   11   30 1   
    22   12   13 1   
    23   12   31 1   
    24   12   40 1   
    25   13   14 2   
    26   13   15 1   
    27   15   16 1   
    28   15   32 1   
    29   15   33 1   
    30   16   17 1   
    31   16   34 1   
    32   16   35 1   
    33   17   18 1   
    34   17   19 1   
    35   17   36 1   
    36   18   37 1   
    37   18   38 1   
    38   18   41 1   
    39   19   20 1   
    40   19   21 1   
@<TRIPOS>SUBSTRUCTURE
     1 GSM         1 TEMP              0 ****  ****    0 ROOT
