@<TRIPOS>MOLECULE
GSM
   41    40     1     0     0
SMALL
bcc


@<TRIPOS>ATOM
      1 O32         3.2540    2.1380    0.1110 o         1 GSM     -0.490000
      2 C3          2.4540    1.5420   -0.6100 c         1 GSM      0.598100
      3 O31         1.2790    2.1900   -0.8190 oh        1 GSM     -0.545100
      4 CA3         2.6680    0.1820   -1.2550 c3        1 GSM     -0.025000
      5 N3          3.9650   -0.3820   -0.9890 n         1 GSM     -0.501900
      6 C2          4.9920   -0.2290   -1.8950 c         1 GSM      0.644100
      7 O2          4.8090    0.0840   -3.0870 o         1 GSM     -0.593100
      8 CA2         6.4170   -0.5600   -1.3860 c3        1 GSM      0.052500
      9 CB2         6.8020    0.4300   -0.2820 c3        1 GSM     -0.081300
     10 SG2         8.5180    0.3570    0.1030 ss        1 GSM     -0.227200
     11 C4          9.1810    1.8160   -0.6190 c3        1 GSM     -0.069000
     12 N2          7.4040   -0.5180   -2.5090 n4        1 GSM     -0.686800
     13 CD1         7.3590   -1.7040   -3.4220 c         1 GSM      0.565100
     14 OE1         7.2350   -2.8090   -2.9090 o         1 GSM     -0.438100
     15 CG1         7.4790   -1.4330   -4.9040 c3        1 GSM     -0.148400
     16 CB1         8.8660   -1.7720   -5.4260 c3        1 GSM     -0.085400
     17 CA1         9.7570   -0.5280   -5.5110 c3        1 GSM     -0.040500
     18 N1         11.2050   -0.8800   -5.6410 n4        1 GSM     -0.825600
     19 C1          9.5670    0.3060   -4.1950 c         1 GSM      0.887600
     20 O11         8.7350    1.2410   -4.2230 o         1 GSM     -0.778800
     21 O12        10.1950   -0.1090   -3.1830 o         1 GSM     -0.778800
     22 HA31        1.8910   -0.5290   -0.8460 h1        1 GSM      0.108700
     23 HA32        2.5190    0.2820   -2.3710 h1        1 GSM      0.108700
     24 HN3         0.7020    1.6680   -1.3960 ho        1 GSM      0.436000
     25 HA2         6.4280   -1.6170   -0.9740 hx        1 GSM      0.139700
     26 HB21        6.4840    1.4690   -0.5540 h1        1 GSM      0.116700
     27 HB22        6.2490    0.1420    0.6510 h1        1 GSM      0.116700
     28 H41        10.2010    1.9230   -0.1750 h1        1 GSM      0.092367
     29 H42         8.5850    2.7230   -0.3740 h1        1 GSM      0.092367
     30 H43         9.2840    1.7240   -1.7270 h1        1 GSM      0.092367
     31 HN2         8.3740   -0.4480   -2.0830 hn        1 GSM      0.510300
     32 HG11        6.7200   -2.1030   -5.4020 hc        1 GSM      0.125700
     33 HG12        7.2070   -0.3690   -5.1580 hc        1 GSM      0.125700
     34 HB11        8.7550   -2.2170   -6.4520 hc        1 GSM      0.077700
     35 HB12        9.3350   -2.5520   -4.7670 hc        1 GSM      0.077700
     36 HA1         9.4610    0.1020   -6.3990 hx        1 GSM      0.122700
     37 HN11       11.5590   -1.0830   -4.6890 hn        1 GSM      0.461467
     38 HN12       11.7150   -0.0760   -6.0140 hn        1 GSM      0.461467
     39 H32         4.2050   -0.4600   -0.0230 hn        1 GSM      0.329500
     40 H22         7.2520    0.3470   -3.0680 hn        1 GSM      0.510300
     41 H13        11.3410   -1.6900   -6.2450 hn        1 GSM      0.461467
@<TRIPOS>BOND
     1    1    2 2   
     2    2    3 1   
     3    2    4 1   
     4    3   24 1   
     5    4    5 1   
     6    4   22 1   
     7    4   23 1   
     8    5    6 1   
     9    5   39 1   
    10    6    7 2   
    11    6    8 1   
    12    8    9 1   
    13    8   12 1   
    14    8   25 1   
    15    9   10 1   
    16    9   26 1   
    17    9   27 1   
    18   10   11 1   
    19   11   28 1   
    20   11   29 1   
    21   11   30 1   
    22   12   13 1   
    23   12   31 1   
    24   12   40 1   
    25   13   14 2   
    26   13   15 1   
    27   15   16 1   
    28   15   32 1   
    29   15   33 1   
    30   16   17 1   
    31   16   34 1   
    32   16   35 1   
    33   17   18 1   
    34   17   19 1   
    35   17   36 1   
    36   18   37 1   
    37   18   38 1   
    38   18   41 1   
    39   19   20 1   
    40   19   21 1   
@<TRIPOS>SUBSTRUCTURE
     1 GSM         1 TEMP              0 ****  ****    0 ROOT
