@<TRIPOS>MOLECULE
GSM
   38    37     1     0     0
SMALL
bcc


@<TRIPOS>ATOM
      1 O32        -3.8200   -5.2540    0.2400 o         1 GSM     -0.840300
      2 C3         -3.0260   -4.7650    1.0930 c         1 GSM      0.906600
      3 O31        -3.4100   -4.5890    2.2890 o         1 GSM     -0.840300
      4 CA3        -1.6060   -4.4150    0.6920 c3        1 GSM     -0.051000
      5 N3         -1.5690   -3.0600    0.1800 n         1 GSM     -0.506900
      6 C2         -0.3380   -2.5190   -0.3370 c         1 GSM      0.620100
      7 O2          0.6770   -3.1840   -0.3100 o         1 GSM     -0.671100
      8 CA2        -0.3120   -1.1150   -0.9220 c3        1 GSM      0.042700
      9 CB2         0.0180   -1.1880   -2.3940 c3        1 GSM     -0.032300
     10 SG2        -1.4670   -1.4690   -3.3190 ss        1 GSM     -0.317200
     11 C4         -1.0840   -1.5290   -5.0560 c3        1 GSM     -0.042000
     12 N2          0.6770   -0.3410   -0.2520 n         1 GSM     -0.562900
     13 CD1         0.3110    0.8960    0.3910 c         1 GSM      0.660100
     14 OE1        -0.8380    1.2780    0.3600 o         1 GSM     -0.640100
     15 CG1         1.3900    1.7520    1.0870 c3        1 GSM     -0.145400
     16 CB1         0.7870    3.0900    1.5110 c3        1 GSM     -0.063400
     17 CA1         1.8420    3.9150    2.2400 c3        1 GSM      0.020500
     18 N1          1.4750    4.0550    3.5970 n3        1 GSM     -0.894800
     19 C1          1.9410    5.2790    1.6050 c         1 GSM      0.888600
     20 O11         0.9820    6.0850    1.6970 o         1 GSM     -0.845800
     21 O12         3.0180    5.6430    1.0630 o         1 GSM     -0.845800
     22 HA31       -1.3000   -5.0360   -0.0030 h1        1 GSM      0.038200
     23 HA32       -1.0210   -4.4850    1.4720 h1        1 GSM      0.038200
     24 HN3        -2.3260   -2.5460    0.1920 hn        1 GSM      0.337500
     25 HA2        -1.1900   -0.6970   -0.8040 h1        1 GSM      0.103700
     26 HB21        0.4250   -0.3460   -2.6790 h1        1 GSM      0.086200
     27 HB22        0.6440   -1.9210   -2.5510 h1        1 GSM      0.086200
     28 H41        -0.4320   -0.8250   -5.2720 h1        1 GSM      0.066700
     29 H42        -0.7050   -2.4040   -5.2760 h1        1 GSM      0.066700
     30 H43        -1.9070   -1.3870   -5.5790 h1        1 GSM      0.066700
     31 HN2         1.5420   -0.6110   -0.2550 hn        1 GSM      0.324500
     32 HG11        1.7220    1.2800    1.8770 hc        1 GSM      0.065700
     33 HG12        2.1300    1.9110    0.4670 hc        1 GSM      0.065700
     34 HB11        0.0260    2.9310    2.1090 hc        1 GSM      0.054200
     35 HB12        0.4820    3.5770    0.7160 hc        1 GSM      0.054200
     36 HA1         2.7070    3.4640    2.1810 h1        1 GSM      0.041700
     37 HN11        2.0650    3.5920    4.1230 hn        1 GSM      0.331300
     38 HN12        1.4910    4.9410    3.8280 hn        1 GSM      0.331300
@<TRIPOS>BOND
     1    1    2 1   
     2    2    3 1   
     3    2    4 1   
     4    4    5 1   
     5    4   22 1   
     6    4   23 1   
     7    5    6 1   
     8    5   24 1   
     9    6    7 2   
    10    6    8 1   
    11    8    9 1   
    12    8   12 1   
    13    8   25 1   
    14    9   10 1   
    15    9   26 1   
    16    9   27 1   
    17   10   11 1   
    18   11   28 1   
    19   11   29 1   
    20   11   30 1   
    21   12   13 1   
    22   12   31 1   
    23   13   14 2   
    24   13   15 1   
    25   15   16 1   
    26   15   32 1   
    27   15   33 1   
    28   16   17 1   
    29   16   34 1   
    30   16   35 1   
    31   17   18 1   
    32   17   19 1   
    33   17   36 1   
    34   18   37 1   
    35   18   38 1   
    36   19   20 1   
    37   19   21 1   
@<TRIPOS>SUBSTRUCTURE
     1 GSM         1 TEMP              0 ****  ****    0 ROOT
