@<TRIPOS>MOLECULE
GSM
   38    37     1     0     0
SMALL
bcc


@<TRIPOS>ATOM
      1 O32        -6.7850   -0.1020   -0.5240 o         1 GSM     -0.843300
      2 C3         -5.6600    0.2660   -0.0900 c         1 GSM      0.903600
      3 O31        -5.4790    1.2550    0.6800 o         1 GSM     -0.843300
      4 CA3        -4.4360   -0.5720   -0.5510 c3        1 GSM     -0.058000
      5 N3         -3.1910   -0.1940    0.0700 n         1 GSM     -0.508900
      6 C2         -2.0230   -0.1050   -0.6390 c         1 GSM      0.615100
      7 O2         -1.8880   -0.5800   -1.7910 o         1 GSM     -0.656100
      8 CA2        -0.8070    0.5700    0.0620 c3        1 GSM      0.038700
      9 CB2        -0.7230    2.0110   -0.4700 c3        1 GSM     -0.022300
     10 SG2        -1.5220    3.1930    0.5730 ss        1 GSM     -0.337200
     11 C4         -3.1380    3.3800   -0.0940 c3        1 GSM     -0.055000
     12 N2          0.3960   -0.1850   -0.1830 n         1 GSM     -0.560900
     13 CD1         1.1960   -0.6840    0.8260 c         1 GSM      0.662100
     14 OE1         0.9680   -0.4140    2.0250 o         1 GSM     -0.642100
     15 CG1         2.3620   -1.5700    0.4240 c3        1 GSM     -0.145400
     16 CB1         3.5070   -0.7730   -0.1640 c3        1 GSM     -0.062400
     17 CA1         4.6870   -1.6710   -0.5460 c3        1 GSM      0.020500
     18 N1          5.2820   -2.3660    0.5900 n3        1 GSM     -0.895800
     19 C1          5.7030   -0.8250   -1.3840 c         1 GSM      0.888600
     20 O11         5.2590   -0.1960   -2.3830 o         1 GSM     -0.846300
     21 O12         6.9200   -0.8400   -1.0360 o         1 GSM     -0.846300
     22 HA31       -4.3550   -0.4870   -1.6700 h1        1 GSM      0.045200
     23 HA32       -4.6380   -1.6500   -0.3020 h1        1 GSM      0.045200
     24 HN3        -3.2990    0.3950    0.8730 hn        1 GSM      0.324500
     25 HA2        -0.9660    0.6130    1.1840 h1        1 GSM      0.110700
     26 HB21       -1.1240    2.0580   -1.5110 h1        1 GSM      0.082200
     27 HB22        0.3450    2.3490   -0.4960 h1        1 GSM      0.082200
     28 H41        -3.5220    4.3410    0.3190 h1        1 GSM      0.078700
     29 H42        -3.1230    3.4350   -1.2030 h1        1 GSM      0.078700
     30 H43        -3.8360    2.5600    0.2180 h1        1 GSM      0.078700
     31 HN2         0.5540   -0.4740   -1.1210 hn        1 GSM      0.327500
     32 HG11        2.7000   -2.1060    1.3500 hc        1 GSM      0.064200
     33 HG12        2.0200   -2.3440   -0.3120 hc        1 GSM      0.064200
     34 HB11        3.1800   -0.2430   -1.0980 hc        1 GSM      0.055700
     35 HB12        3.8390    0.0070    0.5690 hc        1 GSM      0.055700
     36 HA1         4.3040   -2.4760   -1.2400 h1        1 GSM      0.040700
     37 HN11        6.2100   -2.6450    0.3150 hn        1 GSM      0.331300
     38 HN12        5.3950   -1.7120    1.3440 hn        1 GSM      0.331300
@<TRIPOS>BOND
     1    1    2 1   
     2    2    3 1   
     3    2    4 1   
     4    4    5 1   
     5    4   22 1   
     6    4   23 1   
     7    5    6 1   
     8    5   24 1   
     9    6    7 2   
    10    6    8 1   
    11    8    9 1   
    12    8   12 1   
    13    8   25 1   
    14    9   10 1   
    15    9   26 1   
    16    9   27 1   
    17   10   11 1   
    18   11   28 1   
    19   11   29 1   
    20   11   30 1   
    21   12   13 1   
    22   12   31 1   
    23   13   14 2   
    24   13   15 1   
    25   15   16 1   
    26   15   32 1   
    27   15   33 1   
    28   16   17 1   
    29   16   34 1   
    30   16   35 1   
    31   17   18 1   
    32   17   19 1   
    33   17   36 1   
    34   18   37 1   
    35   18   38 1   
    36   19   20 1   
    37   19   21 1   
@<TRIPOS>SUBSTRUCTURE
     1 GSM         1 TEMP              0 ****  ****    0 ROOT
