@<TRIPOS>MOLECULE
GSN
   36    35     1     0     0
SMALL
bcc


@<TRIPOS>ATOM
      1 OXT         6.7880    1.6550   -0.7370 o         1 GSN     -0.847300
      2 C           5.9520    0.8350   -0.2570 c         1 GSN      0.889600
      3 O           6.1450   -0.4100   -0.1820 o         1 GSN     -0.847300
      4 CA          4.6130    1.4000    0.3230 c3        1 GSN      0.019500
      5 N           4.4980    2.8520    0.2570 n3        1 GSN     -0.896800
      6 CB          3.4400    0.6680   -0.3340 c3        1 GSN     -0.060400
      7 CAG         2.1540    0.8870    0.4360 c3        1 GSN     -0.143400
      8 CAH         0.9460    0.3150   -0.2800 c         1 GSN      0.653100
      9 OAI         0.8730    0.2180   -1.5200 o         1 GSN     -0.610100
     10 NAJ        -0.1050   -0.1320    0.5300 n         1 GSN     -0.551900
     11 CAK        -1.4120   -0.4000   -0.0140 c3        1 GSN      0.017700
     12 CAL        -1.9800   -1.7470    0.4420 c3        1 GSN      0.010700
     13 SAM        -0.9860   -3.1560   -0.0080 ss        1 GSN     -0.200600
     14 NAN         0.1830   -3.2050    1.2090 n2        1 GSN      0.113800
     15 OAV         0.9980   -4.0190    1.2110 o         1 GSN     -0.144300
     16 CAO        -2.4740    0.6540    0.4330 c         1 GSN      0.612100
     17 OAP        -2.2850    1.3290    1.4700 o         1 GSN     -0.649100
     18 NAQ        -3.5620    0.8130   -0.3850 n         1 GSN     -0.500900
     19 CAR        -4.7710    1.4600    0.0650 c3        1 GSN     -0.063000
     20 CAS        -6.0660    0.6610   -0.2610 c         1 GSN      0.902600
     21 OAU        -7.1540    1.1960    0.0840 o         1 GSN     -0.841300
     22 OAT        -5.9640   -0.4570   -0.8430 o         1 GSN     -0.841300
     23 HA          4.6180    1.1360    1.4220 h1        1 GSN      0.038700
     24 HN1         5.4180    3.2310    0.4150 hn        1 GSN      0.331300
     25 HN2         4.2440    3.1110   -0.6800 hn        1 GSN      0.331300
     26 HB1         3.3070    1.0040   -1.3950 hc        1 GSN      0.062700
     27 HB2         3.6950   -0.4250   -0.3570 hc        1 GSN      0.062700
     28 HAG1        2.2610    0.4450    1.4610 hc        1 GSN      0.064200
     29 HAG2        1.9600    1.9870    0.5580 hc        1 GSN      0.064200
     30 HAJ        -0.1140    0.1980    1.4720 hn        1 GSN      0.310500
     31 HAK        -1.3270   -0.4000   -1.1450 h1        1 GSN      0.110700
     32 HAL1       -2.1590   -1.7380    1.5440 h1        1 GSN      0.094700
     33 HAL2       -2.9560   -1.9300   -0.0790 h1        1 GSN      0.094700
     34 HAQ        -3.7340    0.0930   -1.0620 hn        1 GSN      0.318500
     35 HAR1       -4.7310    1.6380    1.1740 h1        1 GSN      0.046700
     36 HAR2       -4.8400    2.4610   -0.4450 h1        1 GSN      0.046700
@<TRIPOS>BOND
     1    1    2 1   
     2    2    3 1   
     3    2    4 1   
     4    4    5 1   
     5    4    6 1   
     6    4   23 1   
     7    5   24 1   
     8    5   25 1   
     9    6    7 1   
    10    6   26 1   
    11    6   27 1   
    12    7    8 1   
    13    7   28 1   
    14    7   29 1   
    15    8    9 2   
    16    8   10 1   
    17   10   11 1   
    18   10   30 1   
    19   11   12 1   
    20   11   16 1   
    21   11   31 1   
    22   12   13 1   
    23   12   32 1   
    24   12   33 1   
    25   13   14 1   
    26   14   15 2   
    27   16   17 2   
    28   16   18 1   
    29   18   19 1   
    30   18   34 1   
    31   19   20 1   
    32   19   35 1   
    33   19   36 1   
    34   20   21 1   
    35   20   22 1   
@<TRIPOS>SUBSTRUCTURE
     1 GSN         1 TEMP              0 ****  ****    0 ROOT
