@<TRIPOS>MOLECULE
GSN
   39    38     1     0     0
SMALL
bcc


@<TRIPOS>ATOM
      1 OXT         3.9390   -1.3140    1.0490 o         1 GSN     -0.778800
      2 C           3.8180   -0.5270    2.0300 c         1 GSN      0.892600
      3 O           4.6850   -0.2630    2.8910 o         1 GSN     -0.778800
      4 CA          2.3760    0.0470    2.2730 c3        1 GSN     -0.043500
      5 N           1.7710    0.3930    0.9510 n4        1 GSN     -0.824600
      6 CB          1.5680   -1.0190    3.0220 c3        1 GSN     -0.085400
      7 CAG         2.3450   -1.5800    4.2030 c3        1 GSN     -0.153400
      8 CAH         2.9170   -2.9470    3.9080 c         1 GSN      0.559100
      9 OAI         2.3230   -4.0080    4.0450 o         1 GSN     -0.431100
     10 NAJ         4.3260   -2.9930    3.3970 n4        1 GSN     -0.686800
     11 CAK         5.0700   -4.2580    3.6920 c3        1 GSN      0.052500
     12 CAL         6.2070   -4.4730    2.6920 c3        1 GSN     -0.017300
     13 SAM         5.5570   -4.4260    1.0370 ss        1 GSN     -0.273600
     14 NAN         6.3770   -3.0720    0.3440 n2        1 GSN      0.173800
     15 OAV         6.1760   -2.7640   -0.7320 o         1 GSN     -0.024300
     16 CAO         5.6710   -4.2190    5.1210 c         1 GSN      0.643100
     17 OAP         5.6950   -3.1500    5.7590 o         1 GSN     -0.582100
     18 NAQ         6.0900   -5.4240    5.6410 n         1 GSN     -0.502900
     19 CAR         6.9450   -5.4650    6.7980 c3        1 GSN     -0.026000
     20 CAS         8.4080   -5.6960    6.4550 c         1 GSN      0.599100
     21 OAU         8.8650   -5.9010    5.3300 o         1 GSN     -0.490000
     22 OAT         9.3260   -5.6940    7.4550 oh        1 GSN     -0.544100
     23 HA          2.4460    0.9870    2.8920 hx        1 GSN      0.123700
     24 HN1         2.1220    1.3060    0.6480 hn        1 GSN      0.461800
     25 HN2         2.0860   -0.3220    0.2700 hn        1 GSN      0.461800
     26 HB1         1.2780   -1.8510    2.3250 hc        1 GSN      0.076700
     27 HB2         0.6190   -0.5590    3.4120 hc        1 GSN      0.076700
     28 HAG1        3.1500   -0.8610    4.5310 hc        1 GSN      0.128700
     29 HAG2        1.6430   -1.7220    5.0750 hc        1 GSN      0.128700
     30 HAJ         4.8540   -2.1800    3.7830 hn        1 GSN      0.511800
     31 HAK         4.3270   -5.1120    3.6130 hx        1 GSN      0.143700
     32 HAL1        6.6380   -5.4960    2.8470 h1        1 GSN      0.124200
     33 HAL2        7.0300   -3.7300    2.8450 h1        1 GSN      0.124200
     34 HAQ         8.8980   -5.5220    8.3080 ho        1 GSN      0.437000
     35 HAR1        6.8510   -4.4990    7.3770 h1        1 GSN      0.109200
     36 HAR2        6.6000   -6.3170    7.4550 h1        1 GSN      0.109200
     37 HN3         0.7530    0.4100    0.9950 hn        1 GSN      0.461800
     38 HAJ2        4.2980   -2.8790    2.3480 hn        1 GSN      0.511800
     39 HAQ2        6.1860   -6.1960    5.0140 hn        1 GSN      0.330500
@<TRIPOS>BOND
     1    1    2 1   
     2    2    3 1   
     3    2    4 1   
     4    4    5 1   
     5    4    6 1   
     6    4   23 1   
     7    5   24 1   
     8    5   25 1   
     9    5   37 1   
    10    6    7 1   
    11    6   26 1   
    12    6   27 1   
    13    7    8 1   
    14    7   28 1   
    15    7   29 1   
    16    8    9 2   
    17    8   10 1   
    18   10   11 1   
    19   10   30 1   
    20   10   38 1   
    21   11   12 1   
    22   11   16 1   
    23   11   31 1   
    24   12   13 1   
    25   12   32 1   
    26   12   33 1   
    27   13   14 1   
    28   14   15 2   
    29   16   17 2   
    30   16   18 1   
    31   18   19 1   
    32   18   39 1   
    33   19   20 1   
    34   19   35 1   
    35   19   36 1   
    36   20   21 2   
    37   20   22 1   
    38   22   34 1   
@<TRIPOS>SUBSTRUCTURE
     1 GSN         1 TEMP              0 ****  ****    0 ROOT
