@<TRIPOS>MOLECULE
GSN
   39    38     1     0     0
SMALL
bcc


@<TRIPOS>ATOM
      1 OXT         4.1290   -0.9670    1.2530 o         1 GSN     -0.778800
      2 C           3.8160   -0.3600    2.3170 c         1 GSN      0.892600
      3 O           4.5420   -0.1820    3.3190 o         1 GSN     -0.778800
      4 CA          2.3100    0.0690    2.4430 c3        1 GSN     -0.043500
      5 N           1.8490    0.5850    1.1180 nz        1 GSN     -0.824600
      6 CB          1.5120   -1.1560    2.9020 c3        1 GSN     -0.085400
      7 CAG         2.1810   -1.8490    4.0800 c3        1 GSN     -0.153400
      8 CAH         2.9040   -3.1080    3.6610 c         1 GSN      0.558100
      9 OAI         2.3930   -4.2150    3.5520 o         1 GSN     -0.431100
     10 NAJ         4.3640   -2.9760    3.3480 ny        1 GSN     -0.686800
     11 CAK         5.1740   -4.2190    3.5470 c3        1 GSN      0.052500
     12 CAL         6.4410   -4.1920    2.6900 c3        1 GSN     -0.017300
     13 SAM         6.0020   -3.9200    0.9890 ss        1 GSN     -0.273600
     14 NAN         6.7800   -2.4200    0.6290 n2        1 GSN      0.173800
     15 OAV         6.6890   -1.9550   -0.4050 o         1 GSN     -0.024300
     16 CAO         5.5860   -4.3730    5.0330 c         1 GSN      0.643100
     17 OAP         5.4360   -3.4230    5.8240 o         1 GSN     -0.582100
     18 NAQ         6.0420   -5.6150    5.4160 ns        1 GSN     -0.502900
     19 CAR         6.7470   -5.7860    6.6600 c3        1 GSN     -0.026000
     20 CAS         8.2560   -5.8590    6.4890 c         1 GSN      0.599100
     21 OAU         8.8650   -5.8470    5.4200 o         1 GSN     -0.490000
     22 OAT         9.0380   -5.9570    7.5940 oh        1 GSN     -0.544100
     23 HA          2.2190    0.8990    3.2010 hx        1 GSN      0.123700
     24 HN1         2.1520    1.5550    1.0100 hn        1 GSN      0.461800
     25 HN2         0.8350    0.5250    1.0240 hn        1 GSN      0.461800
     26 HB1         0.4850   -0.8320    3.2220 hc        1 GSN      0.076700
     27 HB2         1.3870   -1.8820    2.0530 hc        1 GSN      0.076700
     28 HAG1        2.8720   -1.1400    4.6210 hc        1 GSN      0.128700
     29 HAG2        1.3910   -2.1780    4.8140 hc        1 GSN      0.128700
     30 HAJ         4.7660   -2.2030    3.9220 hn        1 GSN      0.511800
     31 HAK         4.5240   -5.0970    3.2380 hx        1 GSN      0.143700
     32 HAL1        6.9380   -5.1950    2.7460 h1        1 GSN      0.124200
     33 HAL2        7.1700   -3.4300    3.0670 h1        1 GSN      0.124200
     34 HAQ         8.4940   -5.9550    8.3960 ho        1 GSN      0.437000
     35 HAR1        6.3990   -6.7550    7.1250 h1        1 GSN      0.109200
     36 HAR2        6.4960   -4.9360    7.3600 h1        1 GSN      0.109200
     37 HN3         2.3080    0.0120    0.3870 hn        1 GSN      0.461800
     38 HAJ2        4.4580   -2.6950    2.3360 hn        1 GSN      0.511800
     39 HAQ2        6.2830   -6.2660    4.6980 hn        1 GSN      0.330500
@<TRIPOS>BOND
     1    1    2 1   
     2    2    3 1   
     3    2    4 1   
     4    4    5 1   
     5    4    6 1   
     6    4   23 1   
     7    5   24 1   
     8    5   25 1   
     9    5   37 1   
    10    6    7 1   
    11    6   26 1   
    12    6   27 1   
    13    7    8 1   
    14    7   28 1   
    15    7   29 1   
    16    8    9 2   
    17    8   10 1   
    18   10   11 1   
    19   10   30 1   
    20   10   38 1   
    21   11   12 1   
    22   11   16 1   
    23   11   31 1   
    24   12   13 1   
    25   12   32 1   
    26   12   33 1   
    27   13   14 1   
    28   14   15 2   
    29   16   17 2   
    30   16   18 1   
    31   18   19 1   
    32   18   39 1   
    33   19   20 1   
    34   19   35 1   
    35   19   36 1   
    36   20   21 2   
    37   20   22 1   
    38   22   34 1   
@<TRIPOS>SUBSTRUCTURE
     1 GSN         1 TEMP              0 ****  ****    0 ROOT
