@<TRIPOS>MOLECULE
GSN
   39    38     1     0     0
SMALL
bcc


@<TRIPOS>ATOM
      1 OXT         4.1040   -0.9540    1.2700 o         1 GSN     -0.778800
      2 C           3.8080   -0.3510    2.3400 c         1 GSN      0.892600
      3 O           4.5480   -0.1810    3.3330 o         1 GSN     -0.778800
      4 CA          2.3050    0.0830    2.4890 c3        1 GSN     -0.043500
      5 N           1.8280    0.6070    1.1730 n4        1 GSN     -0.824600
      6 CB          1.5090   -1.1420    2.9520 c3        1 GSN     -0.085400
      7 CAG         2.1910   -1.8430    4.1170 c3        1 GSN     -0.153400
      8 CAH         2.9040   -3.1020    3.6830 c         1 GSN      0.558100
      9 OAI         2.3880   -4.2070    3.5750 o         1 GSN     -0.431100
     10 NAJ         4.3600   -2.9740    3.3510 n4        1 GSN     -0.686800
     11 CAK         5.1680   -4.2200    3.5330 c3        1 GSN      0.052500
     12 CAL         6.4240   -4.1940    2.6600 c3        1 GSN     -0.017300
     13 SAM         5.9630   -3.9120    0.9660 ss        1 GSN     -0.273600
     14 NAN         6.7420   -2.4130    0.6030 n2        1 GSN      0.173800
     15 OAV         6.6380   -1.9430   -0.4270 o         1 GSN     -0.024300
     16 CAO         5.6000   -4.3830    5.0130 c         1 GSN      0.643100
     17 OAP         5.4630   -3.4360    5.8100 o         1 GSN     -0.582100
     18 NAQ         6.0560   -5.6290    5.3840 n         1 GSN     -0.502900
     19 CAR         6.7770   -5.8080    6.6170 c3        1 GSN     -0.026000
     20 CAS         8.2830   -5.8850    6.4260 c         1 GSN      0.599100
     21 OAU         8.8780   -5.8700    5.3480 o         1 GSN     -0.490000
     22 OAT         9.0800   -5.9920    7.5200 oh        1 GSN     -0.544100
     23 HA          2.2270    0.9090    3.2520 hx        1 GSN      0.123700
     24 HN1         0.8130    0.5510    1.0910 hn        1 GSN      0.461800
     25 HN2         2.1340    1.5770    1.0650 hn        1 GSN      0.461800
     26 HB1         1.3700   -1.8630    2.1020 hc        1 GSN      0.076700
     27 HB2         0.4870   -0.8160    3.2880 hc        1 GSN      0.076700
     28 HAG1        1.4090   -2.1730    4.8610 hc        1 GSN      0.128700
     29 HAG2        2.8920   -1.1390    4.6530 hc        1 GSN      0.128700
     30 HAJ         4.7720   -2.2050    3.9240 hn        1 GSN      0.511800
     31 HAK         4.5120   -5.0950    3.2280 hx        1 GSN      0.143700
     32 HAL1        7.1600   -3.4370    3.0300 h1        1 GSN      0.124200
     33 HAL2        6.9180   -5.1990    2.7040 h1        1 GSN      0.124200
     34 HAQ         8.5470   -5.9920    8.3290 ho        1 GSN      0.437000
     35 HAR1        6.4320   -6.7780    7.0820 h1        1 GSN      0.109200
     36 HAR2        6.5390   -4.9600    7.3250 h1        1 GSN      0.109200
     37 HN3         2.2750    0.0360    0.4320 hn        1 GSN      0.461800
     38 HAJ2        4.4410   -2.6880    2.3390 hn        1 GSN      0.511800
     39 HAQ2        6.2850   -6.2770    4.6600 hn        1 GSN      0.330500
@<TRIPOS>BOND
     1    1    2 1   
     2    2    3 1   
     3    2    4 1   
     4    4    5 1   
     5    4    6 1   
     6    4   23 1   
     7    5   24 1   
     8    5   25 1   
     9    5   37 1   
    10    6    7 1   
    11    6   26 1   
    12    6   27 1   
    13    7    8 1   
    14    7   28 1   
    15    7   29 1   
    16    8    9 2   
    17    8   10 1   
    18   10   11 1   
    19   10   30 1   
    20   10   38 1   
    21   11   12 1   
    22   11   16 1   
    23   11   31 1   
    24   12   13 1   
    25   12   32 1   
    26   12   33 1   
    27   13   14 1   
    28   14   15 2   
    29   16   17 2   
    30   16   18 1   
    31   18   19 1   
    32   18   39 1   
    33   19   20 1   
    34   19   35 1   
    35   19   36 1   
    36   20   21 2   
    37   20   22 1   
    38   22   34 1   
@<TRIPOS>SUBSTRUCTURE
     1 GSN         1 TEMP              0 ****  ****    0 ROOT
