@<TRIPOS>MOLECULE
GSN
   36    35     1     0     0
SMALL
bcc


@<TRIPOS>ATOM
      1 OXT        -2.1900   -4.8570   -3.6790 o         1 GSN     -0.845300
      2 C          -1.1290   -4.7470   -3.0060 c         1 GSN      0.888600
      3 O          -0.0520   -5.0980   -3.4930 o         1 GSN     -0.845300
      4 CA         -1.1870   -4.2550   -1.5880 c3        1 GSN      0.020500
      5 N          -0.7360   -5.2730   -0.7170 n3        1 GSN     -0.894800
      6 CB         -0.2890   -3.0160   -1.4360 c3        1 GSN     -0.063400
      7 CAG        -1.0690   -1.9130   -0.7930 c3        1 GSN     -0.144400
      8 CAH        -0.1250   -0.6820   -0.5380 c         1 GSN      0.661100
      9 OAI         1.0850   -0.7930   -0.6990 o         1 GSN     -0.637100
     10 NAJ        -0.6720    0.5640   -0.1610 n         1 GSN     -0.563900
     11 CAK         0.1990    1.6880    0.0810 c3        1 GSN      0.043700
     12 CAL        -0.0040    2.7210   -0.9870 c3        1 GSN     -0.004300
     13 SAM         1.4950    3.6680   -1.1930 ss        1 GSN     -0.194600
     14 NAN         1.3060    4.7150   -2.4310 n2        1 GSN      0.105800
     15 OAV         2.2480    5.4000   -2.8030 o         1 GSN     -0.150300
     16 CAO        -0.1120    2.2900    1.4220 c         1 GSN      0.627100
     17 OAP        -1.2570    2.6520    1.6830 o         1 GSN     -0.665100
     18 NAQ         0.9660    2.5110    2.3860 n         1 GSN     -0.509900
     19 CAR         0.6730    3.0480    3.6950 c3        1 GSN     -0.045000
     20 CAS         1.9730    3.3700    4.4090 c         1 GSN      0.909600
     21 OAU         2.4820    4.5360    4.3120 o         1 GSN     -0.839300
     22 OAT         2.5030    2.5090    5.1770 o         1 GSN     -0.839300
     23 HA         -2.1200   -4.0140   -1.3610 h1        1 GSN      0.041700
     24 HN1        -1.3050   -5.3210    0.0320 hn        1 GSN      0.331800
     25 HN2        -0.7410   -6.0900   -1.1640 hn        1 GSN      0.331800
     26 HB1         0.4960   -3.2420   -0.8630 hc        1 GSN      0.055200
     27 HB2         0.0200   -2.7300   -2.3130 hc        1 GSN      0.055200
     28 HAG1       -1.4210   -2.2170    0.0340 hc        1 GSN      0.066200
     29 HAG2       -1.8050   -1.6450   -1.3830 hc        1 GSN      0.066200
     30 HAJ        -1.5740    0.6640   -0.1030 hn        1 GSN      0.328500
     31 HAK         1.1380    1.3810    0.0690 h1        1 GSN      0.103700
     32 HAL1       -0.2290    2.2820   -1.8260 h1        1 GSN      0.096200
     33 HAL2       -0.7420    3.3290   -0.7230 h1        1 GSN      0.096200
     34 HAQ         1.8700    2.3120    2.1450 hn        1 GSN      0.339500
     35 HAR1        0.1670    2.3850    4.2170 h1        1 GSN      0.037700
     36 HAR2        0.1390    3.8680    3.6020 h1        1 GSN      0.037700
@<TRIPOS>BOND
     1    1    2 1   
     2    2    3 1   
     3    2    4 1   
     4    4    5 1   
     5    4    6 1   
     6    4   23 1   
     7    5   24 1   
     8    5   25 1   
     9    6    7 1   
    10    6   26 1   
    11    6   27 1   
    12    7    8 1   
    13    7   28 1   
    14    7   29 1   
    15    8    9 2   
    16    8   10 1   
    17   10   11 1   
    18   10   30 1   
    19   11   12 1   
    20   11   16 1   
    21   11   31 1   
    22   12   13 1   
    23   12   32 1   
    24   12   33 1   
    25   13   14 1   
    26   14   15 2   
    27   16   17 2   
    28   16   18 1   
    29   18   19 1   
    30   18   34 1   
    31   19   20 1   
    32   19   35 1   
    33   19   36 1   
    34   20   21 1   
    35   20   22 1   
@<TRIPOS>SUBSTRUCTURE
     1 GSN         1 TEMP              0 ****  ****    0 ROOT
