@<TRIPOS>MOLECULE
GSO
   55    55     1     0     0
SMALL
bcc


@<TRIPOS>ATOM
      1 C           4.9060   -1.8990    1.3730 c2        1 GSO      0.315000
      2 OT1         6.0410   -1.3720    1.3770 o         1 GSO     -0.515000
      3 OT2         4.4780   -2.7860    2.1600 o         1 GSO     -0.515000
      4 N           2.9740   -2.4260   -0.1050 nz        1 GSO     -0.054000
      5 CA          3.8600   -1.3110    0.3560 c3        1 GSO     -0.190000
      6 CB          3.0750   -0.1880    1.0410 c3        1 GSO     -0.162000
      7 CB2         6.4220   -0.9590    6.1030 c3        1 GSO     -0.324000
      8 SG2         5.9350   -2.6570    6.0670 ss        1 GSO      0.095000
      9 CG          3.9160    0.5490    2.0690 c3        1 GSO     -0.175000
     10 CD          3.8460   -0.1320    3.4140 c2        1 GSO      0.279000
     11 OE          2.8250   -0.2730    4.0790 o         1 GSO     -0.214000
     12 N2          5.1150   -0.6730    3.9940 ny        1 GSO     -0.103000
     13 CA2         5.4230   -0.0890    5.3400 c3        1 GSO     -0.079000
     14 C2          5.9630    1.3540    5.1940 c2        1 GSO      0.290000
     15 O2          6.0190    1.8950    4.0710 o         1 GSO     -0.365000
     16 N3          6.2700    2.0240    6.3580 ns        1 GSO     -0.317000
     17 CA3         6.9940    3.2670    6.3220 c3        1 GSO     -0.089000
     18 C3          8.4550    3.1290    6.7160 c2        1 GSO      0.269000
     19 O31         9.2650    4.2150    6.6130 oh        1 GSO     -0.259000
     20 O32         9.0030    2.1140    7.1440 o         1 GSO     -0.297000
     21 OF2         7.6260   -1.8990    3.5360 oh        1 GSO     -0.415000
     22 CD2         7.2980   -3.4720    5.2810 c3        1 GSO     -0.279000
     23 CG2        11.2130   -4.7660    2.8800 c2        1 GSO     -0.595000
     24 Cl1        10.0690   -3.7560    3.5220 cl        1 GSO      0.947000
     25 Cl2        10.6660   -6.0940    1.9350 cl        1 GSO      0.815000
     26 CM1         8.4360   -4.1470    3.1870 c2        1 GSO     -0.757000
     27 CM2         8.9400   -6.1500    1.7920 c2        1 GSO     -0.636000
     28 CZ          8.1270   -5.2440    2.3900 c2        1 GSO      0.124000
     29 C22         7.3820   -3.2940    3.7680 c3        1 GSO      0.138000
     30 HN1         2.8390   -3.0630    0.7030 hn        1 GSO      0.255000
     31 HN2         2.0730   -2.0800   -0.4320 hn        1 GSO      0.255000
     32 HA          4.4120   -0.9040   -0.5390 hx        1 GSO      0.160000
     33 HBC1        2.1500   -0.5820    1.5440 hc        1 GSO      0.115500
     34 HBC2        2.7470    0.5540    0.2630 hc        1 GSO      0.115500
     35 HB21        7.4530   -0.8370    5.6790 h1        1 GSO      0.155500
     36 HB22        6.4360   -0.6350    7.1730 h1        1 GSO      0.155500
     37 HGC1        4.9770    0.6700    1.7070 hc        1 GSO      0.165000
     38 HGC2        3.4960    1.5840    2.2230 hc        1 GSO      0.165000
     39 H2          5.9160   -0.5110    3.3450 hn        1 GSO      0.310000
     40 HA2         4.4450   -0.0490    5.9150 hx        1 GSO      0.171000
     41 H3          8.7700    4.9750    6.2730 ho        1 GSO      0.234000
     42 HA31        6.9330    3.7150    5.2870 h1        1 GSO      0.145000
     43 HA32        6.5040    3.9760    7.0530 h1        1 GSO      0.145000
     44 HF2         7.7830   -1.8050    2.5850 ho        1 GSO      0.246000
     45 HD21        8.2540   -3.1510    5.7590 h1        1 GSO      0.134000
     46 HD22        7.1290   -4.5570    5.5010 h1        1 GSO      0.134000
     47 HL1        10.0350   -2.6630    4.2700 ha        1 GSO     -0.194000
     48 HL2        11.0930   -7.1340    1.2380 ha        1 GSO     -0.182000
     49 HM2         8.5800   -6.9810    1.1870 h4        1 GSO      0.165000
     50 HZ          7.0400   -5.4050    2.2180 ha        1 GSO      0.134000
     51 H22         6.3810   -3.5450    3.2990 h1        1 GSO      0.112000
     52 HN3         3.4410   -2.9440   -0.8520 hn        1 GSO      0.255000
     53 H221        5.0400   -1.7230    4.1000 hn        1 GSO      0.310000
     54 H32         6.3840    1.4900    7.1930 hn        1 GSO      0.246000
     55 HG2        12.2870   -4.6160    3.0330 h5        1 GSO      0.160000
@<TRIPOS>BOND
     1    1    2 1   
     2    1    3 1   
     3    1    5 1   
     4    4    5 1   
     5    4   30 1   
     6    4   31 1   
     7    4   52 1   
     8    5    6 1   
     9    5   32 1   
    10    6    9 1   
    11    6   33 1   
    12    6   34 1   
    13    7    8 1   
    14    7   13 1   
    15    7   35 1   
    16    7   36 1   
    17    8   22 1   
    18    9   10 1   
    19    9   37 1   
    20    9   38 1   
    21   10   11 1   
    22   10   12 1   
    23   12   13 1   
    24   12   39 1   
    25   12   53 1   
    26   13   14 1   
    27   13   40 1   
    28   14   15 1   
    29   14   16 1   
    30   16   17 1   
    31   16   54 1   
    32   17   18 1   
    33   17   42 1   
    34   17   43 1   
    35   18   19 1   
    36   18   20 1   
    37   19   41 1   
    38   21   29 1   
    39   21   44 1   
    40   22   29 1   
    41   22   45 1   
    42   22   46 1   
    43   23   24 1   
    44   23   25 1   
    45   23   55 1   
    46   24   26 1   
    47   24   47 1   
    48   25   27 1   
    49   25   48 1   
    50   26   28 1   
    51   26   29 1   
    52   27   28 1   
    53   27   49 1   
    54   28   50 1   
    55   29   51 1   
@<TRIPOS>SUBSTRUCTURE
     1 GSO         1 TEMP              0 ****  ****    0 ROOT
