@<TRIPOS>MOLECULE
GSO
   52    52     1     0     0
SMALL
bcc


@<TRIPOS>ATOM
      1 C           6.4940   -3.3020    0.9490 c2        1 GSO      0.308000
      2 OT1         5.7400   -3.7320    1.8650 o         1 GSO     -0.580500
      3 OT2         7.4220   -3.9780    0.4160 o         1 GSO     -0.580500
      4 N           7.2100   -1.4040   -0.5770 n3        1 GSO     -0.328000
      5 CA          6.2900   -1.8250    0.4720 c3        1 GSO     -0.128000
      6 CB          4.8160   -1.6280    0.1070 c3        1 GSO     -0.141000
      7 CB2        -0.3150   -1.0110    0.4730 c3        1 GSO     -0.286000
      8 SG2        -1.2130   -1.4840   -0.9780 ss        1 GSO      0.033000
      9 CG          4.4790   -0.1640   -0.0740 c3        1 GSO     -0.175000
     10 CD          3.0390    0.0620   -0.4980 c2        1 GSO      0.305000
     11 OE          2.7580    0.4840   -1.6410 o         1 GSO     -0.400000
     12 N2          2.0460   -0.2220    0.4230 n         1 GSO     -0.360000
     13 CA2         0.6680    0.1460    0.2200 c3        1 GSO      0.007000
     14 C2          0.2450    1.3040    1.1730 c2        1 GSO      0.258000
     15 O2          0.7250    1.3910    2.3240 o         1 GSO     -0.397000
     16 N3         -0.6320    2.2370    0.6630 n         1 GSO     -0.323000
     17 CA3        -1.4110    3.0960    1.5230 c3        1 GSO     -0.115000
     18 C3         -2.9370    2.9770    1.3140 c2        1 GSO      0.316000
     19 O31        -3.3780    2.1970    0.4070 o         1 GSO     -0.593500
     20 O32        -3.6960    3.6540    2.0550 o         1 GSO     -0.593500
     21 OF2        -3.3550   -0.5870    1.4620 oh        1 GSO     -0.362000
     22 CD2        -2.7610   -0.6350   -0.8960 c3        1 GSO     -0.314000
     23 CG2        -7.3640    0.9310   -0.0470 c2        1 GSO     -0.894000
     24 CL1        -5.8640    0.6050    0.3670 cl        1 GSO      1.203000
     25 CL2        -8.1260   -0.1720   -1.1430 cl        1 GSO      0.813000
     26 CM1        -5.1240   -0.7550   -0.1800 c2        1 GSO     -0.702000
     27 CM2        -7.0740   -1.4990   -1.5360 c2        1 GSO     -0.584000
     28 CZ         -5.8150   -1.6240   -1.0560 c2        1 GSO      0.051000
     29 C22        -3.7200   -1.1080    0.1950 c3        1 GSO      0.133000
     30 HN1         8.0910   -1.8620   -0.4030 hn        1 GSO      0.126500
     31 HN2         6.8780   -1.7570   -1.4570 hn        1 GSO      0.126500
     32 HA          6.5180   -1.1750    1.3680 h1        1 GSO      0.080000
     33 HBC1        4.5710   -2.1920   -0.8300 hc        1 GSO      0.095500
     34 HBC2        4.2070   -2.0740    0.9390 hc        1 GSO      0.095500
     35 HB21        0.2310   -1.9380    0.7850 h1        1 GSO      0.134500
     36 HB22       -1.0320   -0.7490    1.2910 h1        1 GSO      0.134500
     37 HGC1        4.6780    0.3920    0.8790 hc        1 GSO      0.104500
     38 HGC2        5.1280    0.2840   -0.8730 hc        1 GSO      0.104500
     39 H2          2.3110   -0.4270    1.3600 hn        1 GSO      0.236000
     40 HA2         0.5640    0.4780   -0.8600 h1        1 GSO      0.152000
     41 H3         -1.1150    1.9820   -0.1760 hn        1 GSO      0.224000
     42 HA31       -1.1790    2.8810    2.6020 h1        1 GSO      0.094000
     43 HA32       -1.1150    4.1610    1.3080 h1        1 GSO      0.094000
     44 HF2        -3.2330    0.3750    1.3740 ho        1 GSO      0.238000
     45 HD21       -2.6140    0.4710   -0.7910 h1        1 GSO      0.134000
     46 HD22       -3.2180   -0.8360   -1.8970 h1        1 GSO      0.134000
     47 HL1        -5.1530    1.3030    1.2380 ha        1 GSO     -0.104000
     48 HL2        -9.3170   -0.2480   -1.7390 ha        1 GSO     -0.283000
     49 HM2        -7.5210   -2.2320   -2.2080 h4        1 GSO      0.134000
     50 HZ         -5.2440   -2.5170   -1.3820 ha        1 GSO      0.118000
     51 H22        -3.6310   -2.2260    0.3320 h1        1 GSO      0.103000
     52 HG2        -7.9440    1.7800    0.3080 h5        1 GSO      0.155000
@<TRIPOS>BOND
     1    1    2 1   
     2    1    3 1   
     3    1    5 1   
     4    4    5 1   
     5    4   30 1   
     6    4   31 1   
     7    5    6 1   
     8    5   32 1   
     9    6    9 1   
    10    6   33 1   
    11    6   34 1   
    12    7    8 1   
    13    7   13 1   
    14    7   35 1   
    15    7   36 1   
    16    8   22 1   
    17    9   10 1   
    18    9   37 1   
    19    9   38 1   
    20   10   11 1   
    21   10   12 1   
    22   12   13 1   
    23   12   39 1   
    24   13   14 1   
    25   13   40 1   
    26   14   15 1   
    27   14   16 1   
    28   16   17 1   
    29   16   41 1   
    30   17   18 1   
    31   17   42 1   
    32   17   43 1   
    33   18   19 1   
    34   18   20 1   
    35   21   29 1   
    36   21   44 1   
    37   22   29 1   
    38   22   45 1   
    39   22   46 1   
    40   23   24 1   
    41   23   25 1   
    42   23   52 1   
    43   24   26 1   
    44   24   47 1   
    45   25   27 1   
    46   25   48 1   
    47   26   28 1   
    48   26   29 1   
    49   27   28 1   
    50   27   49 1   
    51   28   50 1   
    52   29   51 1   
@<TRIPOS>SUBSTRUCTURE
     1 GSO         1 TEMP              0 ****  ****    0 ROOT
