@<TRIPOS>MOLECULE
GSO
   52    48     1     0     0
SMALL
bcc


@<TRIPOS>ATOM
      1 C          -5.7660    1.4080   -4.6750 c1        1 GSO      0.308000
      2 OT1        -5.9570    0.5210   -5.5180 os        1 GSO     -0.567000
      3 OT2        -6.6860    1.7340   -3.8900 o         1 GSO     -0.594000
      4 N          -4.5910    3.4470   -5.0420 n3        1 GSO     -0.328000
      5 CA         -4.4280    2.1260   -4.6160 c3        1 GSO     -0.128000
      6 CB         -3.9080    2.1150   -3.1840 c3        1 GSO     -0.140000
      7 CB2         1.1750    0.3350   -0.0200 c3        1 GSO     -0.288000
      8 SG2         0.9350   -1.3770    0.3350 ss        1 GSO      0.030000
      9 CG         -2.4340    1.6720   -3.1750 c3        1 GSO     -0.176000
     10 CD         -1.9850    1.3950   -1.7080 c2        1 GSO      0.304000
     11 OE         -2.8050    1.2120   -0.8620 o         1 GSO     -0.401000
     12 N2         -0.5580    1.2240   -1.3930 n         1 GSO     -0.351000
     13 CA2        -0.1430    1.0360   -0.0410 c3        1 GSO     -0.001000
     14 C2          0.0000    2.4230    0.6530 c2        1 GSO      0.267000
     15 O2          0.5180    3.3770    0.0360 o         1 GSO     -0.376000
     16 N3         -0.4250    2.5980    2.0220 n         1 GSO     -0.314000
     17 CA3        -0.3570    3.8660    2.6170 c3        1 GSO     -0.110000
     18 C3         -1.6100    4.0800    3.5520 c2        1 GSO      0.302000
     19 O31        -1.5450    3.7690    4.7820 o         1 GSO     -0.594500
     20 O32        -2.7020    4.4860    3.0610 o         1 GSO     -0.594500
     21 OF2         1.9050   -4.4270    0.3280 oh        1 GSO     -0.355000
     22 CD2         2.4790   -2.1080    0.8320 c3        1 GSO     -0.316000
     23 CG2         5.5600   -5.1110    2.1090 c1        1 GSO     -0.702000
     24 CL1         4.4360   -4.6390    1.4210 cl        1 GSO      1.037000
     25 CL2         5.6560   -4.9360    3.4960 cl        1 GSO      0.791000
     26 CM1         3.4120   -3.9940    2.1160 c1        1 GSO     -0.745000
     27 CM2         4.6320   -4.2910    4.1940 c1        1 GSO     -0.280000
     28 CZ          3.5110   -3.8190    3.5080 c1        1 GSO     -0.280000
     29 C22         2.2160   -3.5260    1.4040 c3        1 GSO      0.148000
     30 HN1        -5.3240    3.8250   -4.6120 hn        1 GSO      0.126000
     31 HN2        -3.8230    3.9390   -4.8410 hn        1 GSO      0.126000
     32 HA         -3.7930    1.6760   -5.1980 h1        1 GSO      0.080000
     33 HBC1       -3.9790    3.0170   -2.8040 hc        1 GSO      0.096000
     34 HBC2       -4.4340    1.5010   -2.6520 hc        1 GSO      0.096000
     35 HB21        1.7370    0.7300    0.6620 h1        1 GSO      0.143000
     36 HB22        1.5920    0.4260   -0.8620 h1        1 GSO      0.143000
     37 HGC1       -1.8570    2.4110   -3.5730 hc        1 GSO      0.104500
     38 HGC2       -2.3370    0.8830   -3.6900 hc        1 GSO      0.104500
     39 H2          0.0350    1.2170   -2.0360 hn        1 GSO      0.232000
     40 HA2        -0.8000    0.5020    0.4290 h1        1 GSO      0.154000
     41 H3         -0.7470    1.9320    2.4620 hn        1 GSO      0.196000
     42 HA31       -0.3500    4.5670    1.9030 h1        1 GSO      0.097500
     43 HA32        0.4700    3.9330    3.1540 h1        1 GSO      0.097500
     44 HF2         1.0800   -4.7760    0.4550 ho        1 GSO      0.230000
     45 HD21        3.0870   -2.1740    0.0410 h1        1 GSO      0.123000
     46 HD22        2.8940   -1.5580    1.5130 h1        1 GSO      0.123000
     47 HG2         6.2820   -5.6170    1.6110 ha        1 GSO      0.151000
     48 HL1         4.3710   -4.7580    0.4810 ha        1 GSO     -0.041000
     49 HL2         6.4340   -5.2620    3.9700 ha        1 GSO     -0.271000
     50 HM2         4.7010   -4.1640    5.1990 ha        1 GSO      0.124500
     51 HZ          2.7740   -3.3540    4.0110 ha        1 GSO      0.124500
     52 H22         1.4530   -3.4900    2.0370 h1        1 GSO      0.098000
@<TRIPOS>BOND
     1    1    3 1   
     2    1    5 1   
     3    4    5 1   
     4    4   30 1   
     5    4   31 1   
     6    5    6 1   
     7    5   32 1   
     8    6    9 1   
     9    6   33 1   
    10    6   34 1   
    11    7    8 1   
    12    7   13 1   
    13    7   35 1   
    14    7   36 1   
    15    8   22 1   
    16    9   10 1   
    17    9   37 1   
    18    9   38 1   
    19   10   11 1   
    20   10   12 1   
    21   12   13 1   
    22   12   39 1   
    23   13   14 1   
    24   13   40 1   
    25   14   15 1   
    26   14   16 1   
    27   16   17 1   
    28   16   41 1   
    29   17   18 1   
    30   17   42 1   
    31   17   43 1   
    32   18   19 1   
    33   18   20 1   
    34   21   29 1   
    35   21   44 1   
    36   22   29 1   
    37   22   45 1   
    38   22   46 1   
    39   23   25 1   
    40   23   47 1   
    41   24   26 1   
    42   24   48 1   
    43   25   49 1   
    44   26   29 1   
    45   27   28 1   
    46   27   50 1   
    47   28   51 1   
    48   29   52 1   
@<TRIPOS>SUBSTRUCTURE
     1 GSO         1 TEMP              0 ****  ****    0 ROOT
