@<TRIPOS>MOLECULE
GSP
   47    49     1     0     0
SMALL
bcc


@<TRIPOS>ATOM
      1 PG          0.0000    0.0000    0.0000 p5        1 GSP      0.760200
      2 O3B         1.6100    0.0000    0.0000 os        1 GSP     -0.422800
      3 S1G        -0.6210    0.0000    1.7560 s         1 GSP     -0.241000
      4 O2G        -0.5370    1.3140   -0.7590 oh        1 GSP     -0.603400
      5 O3G        -0.5360   -1.3150   -0.7580 oh        1 GSP     -0.603400
      6 PB          2.0760   -1.3340    0.7710 p5        1 GSP      0.943800
      7 O1B         1.5050   -2.6260   -0.0000 o         1 GSP     -0.488000
      8 O2B         1.5510   -1.3130    2.1540 o         1 GSP     -0.488000
      9 PA          4.0780   -2.7500    1.5900 p5        1 GSP      0.960800
     10 O1A         3.4730   -4.0180    0.8050 o         1 GSP     -0.587000
     11 O2A         3.5210   -2.7070    2.9610 o         1 GSP     -0.587000
     12 O3A         3.6840   -1.4000    0.8090 os        1 GSP     -0.471800
     13 O5'         5.6800   -2.8790    1.6660 os        1 GSP     -0.468200
     14 C5'         5.9640   -4.0910    2.3660 c3        1 GSP      0.251400
     15 C4'         7.4790   -4.2770    2.4730 c3        1 GSP      0.152100
     16 O4'         8.0670   -3.1870    3.2180 os        1 GSP     -0.364600
     17 C3'         7.8130   -5.5410    3.2940 c3        1 GSP      0.133100
     18 O3'         8.1010   -6.6400    2.4270 oh        1 GSP     -0.560800
     19 C2'         9.0700   -5.1430    4.1030 c3        1 GSP      0.118100
     20 O2'        10.1720   -5.9870    3.7620 oh        1 GSP     -0.559800
     21 C1'         9.3420   -3.6850    3.6760 c3        1 GSP      0.128800
     22 N9          9.8150   -2.8990    4.8170 na        1 GSP      0.284100
     23 C8          9.0360   -2.2230    5.7110 cc        1 GSP      0.269400
     24 N7          9.7870   -1.6340    6.5950 nd        1 GSP     -0.526000
     25 C5         11.0880   -1.8960    6.3240 cd        1 GSP      0.164800
     26 C6         12.3140   -1.5310    6.9290 c         1 GSP      0.558000
     27 O6         12.3340   -0.8260    7.9230 o         1 GSP     -0.672500
     28 N1         13.4610   -1.9880    6.3820 ns        1 GSP     -0.014400
     29 C2         13.4270   -2.7720    5.2660 cd        1 GSP     -0.210200
     30 N2         14.6090   -3.2170    4.7300 nz        1 GSP      0.293400
     31 N3         12.2960   -3.1190    4.6950 nc        1 GSP     -0.451100
     32 C4         11.1200   -2.7080    5.1850 cc        1 GSP     -0.151200
     33 HOG2       -1.2610    1.6810   -0.2800 ho        1 GSP      0.419500
     34 HOG3       -1.3960   -1.1480   -1.1070 ho        1 GSP      0.419500
     35 H5'1        5.5350   -4.9280    1.8270 h1        1 GSP      0.017200
     36 H5'2        5.5350   -4.0430    3.3590 h1        1 GSP      0.017200
     37 H4'         7.9270   -4.3410    1.4890 h1        1 GSP      0.037700
     38 H3'         6.9950   -5.7830    3.9630 h1        1 GSP      0.025700
     39 HO3'        7.5720   -7.3810    2.6720 ho        1 GSP      0.386000
     40 H2'         8.8640   -5.1920    5.1660 h1        1 GSP      0.014700
     41 HO2'       10.3280   -6.5980    4.4620 ho        1 GSP      0.381000
     42 H1'        10.0650   -3.6600    2.8700 h2        1 GSP      0.053700
     43 H8          7.9530   -2.1840    5.6880 h5        1 GSP      0.053100
     44 HN1        14.3400   -1.7510    6.7970 hn        1 GSP      0.151500
     45 HN21       15.0970   -3.7690    5.4070 hn        1 GSP      0.159133
     46 HN22       14.4200   -3.7730    3.9200 hn        1 GSP      0.159133
     47 H23        15.1740   -2.4320    4.4700 hn        1 GSP      0.159133
@<TRIPOS>BOND
     1    1    2 1   
     2    1    3 2   
     3    1    4 1   
     4    1    5 1   
     5    2    6 1   
     6    4   33 1   
     7    5   34 1   
     8    6    7 1   
     9    6    8 1   
    10    6   12 1   
    11    9   10 1   
    12    9   11 1   
    13    9   12 1   
    14    9   13 1   
    15   13   14 1   
    16   14   15 1   
    17   14   35 1   
    18   14   36 1   
    19   15   16 1   
    20   15   17 1   
    21   15   37 1   
    22   16   21 1   
    23   17   18 1   
    24   17   19 1   
    25   17   38 1   
    26   18   39 1   
    27   19   20 1   
    28   19   21 1   
    29   19   40 1   
    30   20   41 1   
    31   21   22 1   
    32   21   42 1   
    33   22   23 1   
    34   22   32 1   
    35   23   24 2   
    36   23   43 1   
    37   24   25 1   
    38   25   26 1   
    39   25   32 2   
    40   26   27 2   
    41   26   28 1   
    42   28   29 1   
    43   28   44 1   
    44   29   30 1   
    45   29   31 2   
    46   30   45 1   
    47   30   46 1   
    48   30   47 1   
    49   31   32 1   
@<TRIPOS>SUBSTRUCTURE
     1 GSP         1 TEMP              0 ****  ****    0 ROOT
