@<TRIPOS>MOLECULE
GSQ
   53    48     1     0     0
SMALL
bcc


@<TRIPOS>ATOM
      1 CL          6.3170    2.8130   -4.3360 cl        1 GSQ     -0.014000
      2 C13         4.9250    3.3560   -3.4370 c2        1 GSQ     -0.098000
      3 C14         5.0380    4.3330   -2.4570 c2        1 GSQ     -0.082000
      4 C11         3.9170    4.7340   -1.7440 c1        1 GSQ     -0.143000
      5 C6          2.6670    4.1520   -2.0150 c1        1 GSQ     -0.043000
      6 N1          1.4200    4.3280   -1.4420 n1        1 GSQ     -0.142000
      7 C5          2.5550    3.1870   -2.9830 c1        1 GSQ     -0.043000
      8 C10         3.6910    2.7810   -3.7040 c1        1 GSQ     -0.055000
      9 C2          1.2440    2.7650   -3.0120 c1        1 GSQ     -0.031000
     10 C1          0.5470    3.4750   -2.0550 c1        1 GSQ     -0.783000
     11 S4         -1.1950    3.4170   -1.7310 ss        1 GSQ      2.876000
     12 O8         -1.6580    4.6460   -1.1480 o         1 GSQ     -0.924000
     13 O9         -1.9520    3.3860   -2.9520 o         1 GSQ     -0.924000
     14 N7         -1.5530    2.1310   -0.7740 n2        1 GSQ     -0.869000
     15 C12        -2.4590    1.1660   -1.2140 c3        1 GSQ      0.022000
     16 C15        -2.9350    0.5520   -0.2230 c2        1 GSQ      0.287000
     17 O19        -3.7670    0.9820    0.5510 o         1 GSQ     -0.340000
     18 C16        -1.6040   -0.0980   -2.0480 c3        1 GSQ     -0.191000
     19 C20        -1.0650   -0.7930   -1.1900 c3        1 GSQ     -0.034000
     20 N18        -1.9240   -0.6520    0.0590 n         1 GSQ     -0.333000
     21 C21        -2.0280   -1.6000    1.1110 c3        1 GSQ      0.038000
     22 C23        -3.1710   -2.5480    0.8250 c3        1 GSQ     -0.222000
     23 C22        -0.7380   -2.3820    1.2140 c2        1 GSQ      0.278000
     24 O25         0.0950   -2.2960    0.3340 o         1 GSQ     -0.376000
     25 N24        -0.5420   -3.2850    2.2890 n         1 GSQ     -0.316000
     26 C26         0.6000   -4.2360    2.5690 c3        1 GSQ     -0.067500
     27 C28         1.3060   -3.9190    3.8690 c3        1 GSQ     -0.036500
     28 O30         0.5650   -3.1710    4.6270 os        1 GSQ     -0.269000
     29 C29        -0.7190   -3.2560    4.7950 c3        1 GSQ     -0.036500
     30 C27        -1.4140   -3.5770    3.4900 c3        1 GSQ     -0.067500
     31 H14         5.9120    4.7110   -2.2440 ha        1 GSQ      0.151000
     32 H10         3.6080    2.1100   -4.4080 ha        1 GSQ      0.154000
     33 H11         3.9970    5.4210   -1.0550 ha        1 GSQ      0.146000
     34 H1          1.2170    4.9120   -0.7710 DU        1 GSQ      0.218000
     35 H2          0.8740    2.0840   -3.6040 DU        1 GSQ      0.218000
     36 H7         -1.1860    2.0660    0.0580 hn        1 GSQ      0.250000
     37 H12        -3.0760    1.7150   -1.7410 h1        1 GSQ      0.152000
     38 H161       -2.2330   -0.6400   -2.5710 hc        1 GSQ      0.106500
     39 H162       -0.9250    0.2900   -2.6390 hc        1 GSQ      0.106500
     40 H201       -0.1570   -0.4680   -1.0140 h1        1 GSQ      0.104500
     41 H202       -1.0400   -1.7290   -1.4800 h1        1 GSQ      0.104500
     42 H21        -2.1940   -1.1340    1.9550 h1        1 GSQ      0.133000
     43 H231       -3.8910   -2.0630    0.3690 hc        1 GSQ      0.095333
     44 H232       -3.5090   -2.9160    1.6690 hc        1 GSQ      0.095333
     45 H233       -2.8550   -3.2780    0.2530 hc        1 GSQ      0.095333
     46 H261        1.2460   -4.1800    1.8360 h1        1 GSQ      0.107000
     47 H262        0.2490   -5.1480    2.6130 h1        1 GSQ      0.107000
     48 H271       -1.6540   -4.5250    3.4830 h1        1 GSQ      0.107000
     49 H272       -2.2300   -3.0430    3.4260 h1        1 GSQ      0.107000
     50 H281        2.1440   -3.4500    3.6750 h1        1 GSQ      0.095250
     51 H282        1.5060   -4.7550    4.3390 h1        1 GSQ      0.095250
     52 H291       -0.9120   -3.9640    5.4450 h1        1 GSQ      0.095250
     53 H292       -1.0560   -2.4030    5.1380 h1        1 GSQ      0.095250
@<TRIPOS>BOND
     1    1    2 1   
     2    2    3 1   
     3    2    8 1   
     4    3    4 1   
     5    3   31 1   
     6    4   33 1   
     7    5    7 1   
     8    6   10 1   
     9    8   32 1   
    10    9   10 1   
    11   11   12 1   
    12   11   13 1   
    13   14   15 1   
    14   14   36 1   
    15   15   16 1   
    16   15   18 1   
    17   15   37 1   
    18   16   17 1   
    19   16   20 1   
    20   18   19 1   
    21   18   38 1   
    22   18   39 1   
    23   19   20 1   
    24   19   40 1   
    25   19   41 1   
    26   20   21 1   
    27   21   22 1   
    28   21   23 1   
    29   21   42 1   
    30   22   43 1   
    31   22   44 1   
    32   22   45 1   
    33   23   24 1   
    34   23   25 1   
    35   25   26 1   
    36   25   30 1   
    37   26   27 1   
    38   26   46 1   
    39   26   47 1   
    40   27   28 1   
    41   27   50 1   
    42   27   51 1   
    43   28   29 1   
    44   29   30 1   
    45   29   52 1   
    46   29   53 1   
    47   30   48 1   
    48   30   49 1   
@<TRIPOS>SUBSTRUCTURE
     1 GSQ         1 TEMP              0 ****  ****    0 ROOT
