@<TRIPOS>MOLECULE
GSQ
   53    56     1     0     0
SMALL
bcc


@<TRIPOS>ATOM
      1 CL         -7.7150   -0.0300    1.4300 cl        1 GSQ     -0.096400
      2 C13        -6.6110   -1.2800    1.0880 ca        1 GSQ     -0.021600
      3 C14        -6.1740   -1.4440   -0.2520 ca        1 GSQ     -0.084000
      4 C11        -5.2830   -2.4360   -0.5980 ca        1 GSQ     -0.141000
      5 C6         -4.8130   -3.2910    0.4250 ca        1 GSQ     -0.008200
      6 N1         -3.9550   -4.3760    0.3740 na        1 GSQ     -0.105400
      7 C5         -5.2540   -3.1180    1.7920 ca        1 GSQ     -0.134800
      8 C10        -6.1660   -2.1010    2.1090 ca        1 GSQ     -0.052000
      9 C2         -4.5880   -4.1280    2.5590 cc        1 GSQ     -0.021200
     10 C1         -3.7860   -4.8770    1.6770 cd        1 GSQ     -0.379200
     11 S4         -2.8810   -6.2170    2.1240 sy        1 GSQ      1.534800
     12 O8         -2.5220   -6.0450    3.4710 o         1 GSQ     -0.644300
     13 O9         -3.5510   -7.4060    1.7990 o         1 GSQ     -0.644300
     14 N7         -1.5770   -6.1250    1.1530 n3        1 GSQ     -0.904100
     15 C12        -0.6600   -5.0370    1.0820 c3        1 GSQ      0.183500
     16 C15        -0.4870   -4.4970   -0.3700 c         1 GSQ      0.682500
     17 O19        -1.4150   -4.2630   -1.1650 o         1 GSQ     -0.665500
     18 C16         0.7900   -5.3450    1.5350 c3        1 GSQ     -0.111400
     19 C20         1.7090   -4.7420    0.4560 c3        1 GSQ      0.080000
     20 N18         0.8550   -4.2980   -0.6330 n         1 GSQ     -0.462800
     21 C21         1.3900   -3.8790   -1.9000 c3        1 GSQ      0.060700
     22 C23         2.5090   -2.8410   -1.7810 c3        1 GSQ     -0.105100
     23 C22         1.9820   -5.0880   -2.6770 c         1 GSQ      0.638100
     24 O25         3.1000   -5.5320   -2.3410 o         1 GSQ     -0.614100
     25 N24         1.2860   -5.6580   -3.7220 n         1 GSQ     -0.465800
     26 C26         1.9480   -6.6150   -4.5860 c3        1 GSQ      0.051500
     27 C28         1.0250   -7.7480   -5.0500 c3        1 GSQ      0.114400
     28 O30        -0.1960   -7.2420   -5.5770 os        1 GSQ     -0.408600
     29 C29        -0.8930   -6.4450   -4.6300 c3        1 GSQ      0.114400
     30 C27        -0.0470   -5.2690   -4.1160 c3        1 GSQ      0.051500
     31 H14        -6.5600   -0.7610   -1.0250 ha        1 GSQ      0.149000
     32 H10        -6.5100   -1.9720    3.1460 ha        1 GSQ      0.154000
     33 H11        -4.9450   -2.5650   -1.6350 ha        1 GSQ      0.147000
     34 H1         -3.3640   -4.5960   -0.3950 hn        1 GSQ      0.330700
     35 H2         -4.6810   -4.2940    3.6330 ha        1 GSQ      0.176000
     36 H7         -1.3520   -6.8820    0.5470 hn        1 GSQ      0.453800
     37 H12        -1.0680   -4.1800    1.6990 h1        1 GSQ      0.095700
     38 H161        0.9740   -6.4430    1.6260 hc        1 GSQ      0.074200
     39 H162        0.9880   -4.8780    2.5290 hc        1 GSQ      0.074200
     40 H201        2.2790   -3.8620    0.8630 h1        1 GSQ      0.069200
     41 H202        2.4520   -5.4970    0.0740 h1        1 GSQ      0.069200
     42 H21         0.5410   -3.4040   -2.4800 h1        1 GSQ      0.090700
     43 H231        3.4000   -3.2770   -1.2670 hc        1 GSQ      0.057700
     44 H232        2.8110   -2.5250   -2.8080 hc        1 GSQ      0.057700
     45 H233        2.1560   -1.9480   -1.2140 hc        1 GSQ      0.057700
     46 H261        2.8290   -7.0620   -4.0450 h1        1 GSQ      0.066200
     47 H262        2.3300   -6.0670   -5.4960 h1        1 GSQ      0.066200
     48 H271        0.0260   -4.4950   -4.9340 h1        1 GSQ      0.066200
     49 H272       -0.6030   -4.8210   -3.2430 h1        1 GSQ      0.066200
     50 H281        1.4950   -8.2960   -5.9090 h1        1 GSQ      0.058950
     51 H282        0.8080   -8.4590   -4.2100 h1        1 GSQ      0.058950
     52 H291       -1.2320   -7.0880   -3.7750 h1        1 GSQ      0.058950
     53 H292       -1.7820   -6.0530   -5.1920 h1        1 GSQ      0.058950
@<TRIPOS>BOND
     1    1    2 1   
     2    2    3 ar  
     3    2    8 ar  
     4    3    4 ar  
     5    3   31 1   
     6    4    5 ar  
     7    4   33 1   
     8    5    6 1   
     9    5    7 ar  
    10    6   10 1   
    11    6   34 1   
    12    7    8 ar  
    13    7    9 1   
    14    8   32 1   
    15    9   10 2   
    16    9   35 1   
    17   10   11 1   
    18   11   12 2   
    19   11   13 2   
    20   11   14 1   
    21   14   15 1   
    22   14   36 1   
    23   15   16 1   
    24   15   18 1   
    25   15   37 1   
    26   16   17 2   
    27   16   20 1   
    28   18   19 1   
    29   18   38 1   
    30   18   39 1   
    31   19   20 1   
    32   19   40 1   
    33   19   41 1   
    34   20   21 1   
    35   21   22 1   
    36   21   23 1   
    37   21   42 1   
    38   22   43 1   
    39   22   44 1   
    40   22   45 1   
    41   23   24 2   
    42   23   25 1   
    43   25   26 1   
    44   25   30 1   
    45   26   27 1   
    46   26   46 1   
    47   26   47 1   
    48   27   28 1   
    49   27   50 1   
    50   27   51 1   
    51   28   29 1   
    52   29   30 1   
    53   29   52 1   
    54   29   53 1   
    55   30   48 1   
    56   30   49 1   
@<TRIPOS>SUBSTRUCTURE
     1 GSQ         1 TEMP              0 ****  ****    0 ROOT
