@<TRIPOS>MOLECULE
GSQ
   54    56     1     0     0
SMALL
bcc


@<TRIPOS>ATOM
      1 Cl         -0.1800    0.9050   -3.0240 cl        1 GSQ     -0.034400
      2 C13         1.3270    0.5770   -2.3290 ca        1 GSQ     -0.010600
      3 C14         1.3540    0.0600   -0.9940 ca        1 GSQ     -0.026000
      4 C11         2.5310   -0.2320   -0.3540 ca        1 GSQ     -0.164000
      5 C6          3.7440   -0.0040   -1.0580 ca        1 GSQ      0.060800
      6 N1          5.0450   -0.1710   -0.6660 na        1 GSQ     -0.076400
      7 C5          3.7220    0.5180   -2.4190 ca        1 GSQ     -0.142800
      8 C10         2.4830    0.8080   -3.0380 ca        1 GSQ     -0.051000
      9 C2          5.0610    0.6270   -2.8330 cc        1 GSQ      0.060800
     10 C1          5.9010    0.1910   -1.7450 cd        1 GSQ     -0.619400
     11 S4          7.4560    0.2320   -1.7290 s4        1 GSQ      1.666100
     12 O8          8.0430    0.7300   -2.8570 o         1 GSQ     -0.439900
     13 O9          8.0810    0.1920   -0.5210 o         1 GSQ     -0.439900
     14 N7          7.9280   -1.9100   -2.2840 n8        1 GSQ     -1.004800
     15 C12         6.8870   -2.9290   -2.1360 c3        1 GSQ      0.056500
     16 C15         6.7820   -3.3390   -0.6360 c         1 GSQ      0.692500
     17 O19         6.3390   -2.5830    0.2390 o         1 GSQ     -0.627500
     18 C16         7.1740   -4.2650   -2.8520 c3        1 GSQ     -0.113400
     19 C20         7.6100   -5.2390   -1.7420 c3        1 GSQ      0.051000
     20 N18         7.2080   -4.6620   -0.4570 n         1 GSQ     -0.394800
     21 C21         8.0110   -4.9630    0.7200 c3        1 GSQ      0.032700
     22 C23         8.3520   -6.4470    0.8240 c3        1 GSQ     -0.105100
     23 C22         9.3240   -4.1270    0.7520 c         1 GSQ      0.642100
     24 O25         9.6730   -3.4910   -0.2760 o         1 GSQ     -0.687100
     25 N24        10.0990   -4.0940    1.8820 n         1 GSQ     -0.440800
     26 C26        11.3740   -3.3950    1.8800 c3        1 GSQ      0.049000
     27 C28        11.5420   -2.4550    3.0810 c3        1 GSQ      0.108400
     28 O30        11.2560   -3.1210    4.3060 os        1 GSQ     -0.395600
     29 C29         9.9460   -3.6670    4.3270 c3        1 GSQ      0.108400
     30 C27         9.7180   -4.6470    3.1630 c3        1 GSQ      0.049000
     31 H14         0.3910   -0.1030   -0.4750 ha        1 GSQ      0.176000
     32 H10         2.4680    1.2110   -4.0630 ha        1 GSQ      0.173000
     33 H11         2.5470   -0.6270    0.6730 ha        1 GSQ      0.170000
     34 H1          5.3650   -0.6500    0.1490 hn        1 GSQ      0.354700
     35 H2          5.4300    0.9980   -3.7930 ha        1 GSQ      0.192000
     36 H7          8.2300   -1.8800   -3.2490 hn        1 GSQ      0.428300
     37 H12         5.9100   -2.4900   -2.4820 h1        1 GSQ      0.103700
     38 H161        7.9680   -4.1830   -3.6320 hc        1 GSQ      0.082200
     39 H162        6.2390   -4.6290   -3.3460 hc        1 GSQ      0.082200
     40 H201        7.0960   -6.2320   -1.8510 h1        1 GSQ      0.080700
     41 H202        8.7240   -5.3980   -1.7800 h1        1 GSQ      0.080700
     42 H21         7.3720   -4.6520    1.6030 h1        1 GSQ      0.102700
     43 H231        7.4240   -7.0660    0.7540 hc        1 GSQ      0.064367
     44 H232        9.0520   -6.7590    0.0110 hc        1 GSQ      0.064367
     45 H233        8.8380   -6.6510    1.8080 hc        1 GSQ      0.064367
     46 H261       11.4820   -2.7990    0.9310 h1        1 GSQ      0.070200
     47 H262       12.1890   -4.1750    1.9100 h1        1 GSQ      0.070200
     48 H271       10.3430   -5.5700    3.3440 h1        1 GSQ      0.070200
     49 H272        8.6340   -4.9430    3.1700 h1        1 GSQ      0.070200
     50 H281       10.8860   -1.5520    2.9780 h1        1 GSQ      0.066200
     51 H282       12.6160   -2.1460    3.1750 h1        1 GSQ      0.066200
     52 H291        9.1880   -2.8400    4.3020 h1        1 GSQ      0.066200
     53 H292        9.8860   -4.2180    5.3030 h1        1 GSQ      0.066200
     54 H72         8.7320   -2.1620   -1.7130 hn        1 GSQ      0.428300
@<TRIPOS>BOND
     1    1    2 1   
     2    2    3 ar  
     3    2    8 ar  
     4    3    4 ar  
     5    3   31 1   
     6    4    5 ar  
     7    4   33 1   
     8    5    6 1   
     9    5    7 ar  
    10    6   10 1   
    11    6   34 1   
    12    7    8 ar  
    13    7    9 1   
    14    8   32 1   
    15    9   10 2   
    16    9   35 1   
    17   10   11 1   
    18   11   12 1   
    19   11   13 1   
    20   14   15 1   
    21   14   36 1   
    22   14   54 1   
    23   15   16 1   
    24   15   18 1   
    25   15   37 1   
    26   16   17 2   
    27   16   20 1   
    28   18   19 1   
    29   18   38 1   
    30   18   39 1   
    31   19   20 1   
    32   19   40 1   
    33   19   41 1   
    34   20   21 1   
    35   21   22 1   
    36   21   23 1   
    37   21   42 1   
    38   22   43 1   
    39   22   44 1   
    40   22   45 1   
    41   23   24 2   
    42   23   25 1   
    43   25   26 1   
    44   25   30 1   
    45   26   27 1   
    46   26   46 1   
    47   26   47 1   
    48   27   28 1   
    49   27   50 1   
    50   27   51 1   
    51   28   29 1   
    52   29   30 1   
    53   29   52 1   
    54   29   53 1   
    55   30   48 1   
    56   30   49 1   
@<TRIPOS>SUBSTRUCTURE
     1 GSQ         1 TEMP              0 ****  ****    0 ROOT
