@<TRIPOS>MOLECULE
GSQ
   54    56     1     0     0
SMALL
bcc


@<TRIPOS>ATOM
      1 CL         -0.0950    1.1680   -2.9190 cl        1 GSQ     -0.034400
      2 C13         1.4060    0.7850   -2.2390 ca        1 GSQ     -0.010600
      3 C14         1.4250    0.2430   -0.9130 ca        1 GSQ     -0.026000
      4 C11         2.5960   -0.0930   -0.2850 ca        1 GSQ     -0.164000
      5 C6          3.8120    0.1140   -0.9920 ca        1 GSQ      0.060800
      6 N1          5.1100   -0.0960   -0.6110 na        1 GSQ     -0.076400
      7 C5          3.7980    0.6610   -2.3440 ca        1 GSQ     -0.141800
      8 C10         2.5640    0.9960   -2.9500 ca        1 GSQ     -0.051000
      9 C2          5.1370    0.7400   -2.7630 cc        1 GSQ      0.060800
     10 C1          5.9700    0.2610   -1.6870 cd        1 GSQ     -0.619400
     11 S4          7.5260    0.2580   -1.6790 s4        1 GSQ      1.666100
     12 O8          8.1210    0.7590   -2.8020 o         1 GSQ     -0.439900
     13 O9          8.1550    0.1790   -0.4760 o         1 GSQ     -0.439900
     14 N7          7.9350   -1.8860   -2.2750 n3        1 GSQ     -1.004800
     15 C12         6.8660   -2.8780   -2.1380 c3        1 GSQ      0.056500
     16 C15         6.7580   -3.3110   -0.6450 c         1 GSQ      0.692500
     17 O19         6.3410   -2.5580    0.2460 o         1 GSQ     -0.627500
     18 C16         7.1110   -4.2090   -2.8780 c3        1 GSQ     -0.113400
     19 C20         7.5260   -5.2140   -1.7880 c3        1 GSQ      0.051000
     20 N18         7.1480   -4.6490   -0.4910 n         1 GSQ     -0.394800
     21 C21         7.9500   -4.9920    0.6750 c3        1 GSQ      0.032700
     22 C23         8.2480   -6.4870    0.7510 c3        1 GSQ     -0.105100
     23 C22         9.2860   -4.1950    0.7130 c         1 GSQ      0.642100
     24 O25         9.6460   -3.5510   -0.3060 o         1 GSQ     -0.687100
     25 N24        10.0690   -4.2040    1.8370 n         1 GSQ     -0.440800
     26 C26        11.3630   -3.5420    1.8390 c3        1 GSQ      0.049000
     27 C28        11.5650   -2.6280    3.0540 c3        1 GSQ      0.108400
     28 O30        11.2680   -3.3060    4.2700 os        1 GSQ     -0.395600
     29 C29         9.9430   -3.8150    4.2910 c3        1 GSQ      0.108400
     30 C27         9.6800   -4.7680    3.1120 c3        1 GSQ      0.049000
     31 H14         0.4610    0.0980   -0.3920 ha        1 GSQ      0.176000
     32 H10         2.5550    1.4180   -3.9680 ha        1 GSQ      0.173000
     33 H11         2.6070   -0.5070    0.7340 ha        1 GSQ      0.170000
     34 H1          5.4210   -0.5990    0.1950 hn        1 GSQ      0.354700
     35 H2          5.5110    1.1180   -3.7180 ha        1 GSQ      0.192000
     36 H7          8.7340   -2.1700   -1.7130 hn        1 GSQ      0.428300
     37 H12         5.9000   -2.4060   -2.4700 h1        1 GSQ      0.103700
     38 H161        6.1630   -4.5370   -3.3730 hc        1 GSQ      0.082200
     39 H162        7.9020   -4.1360   -3.6630 hc        1 GSQ      0.082200
     40 H201        6.9840   -6.1900   -1.9120 h1        1 GSQ      0.080700
     41 H202        8.6350   -5.4030   -1.8360 h1        1 GSQ      0.080700
     42 H21         7.3240   -4.6790    1.5670 h1        1 GSQ      0.102700
     43 H231        8.7350   -6.7220    1.7290 hc        1 GSQ      0.064367
     44 H232        7.3030   -7.0780    0.6770 hc        1 GSQ      0.064367
     45 H233        8.9350   -6.8040   -0.0710 hc        1 GSQ      0.064367
     46 H261       12.1560   -4.3450    1.8510 h1        1 GSQ      0.070200
     47 H262       11.4830   -2.9330    0.8990 h1        1 GSQ      0.070200
     48 H271        8.5880   -5.0330    3.1210 h1        1 GSQ      0.070200
     49 H272       10.2800   -5.7110    3.2730 h1        1 GSQ      0.070200
     50 H281       12.6490   -2.3500    3.1470 h1        1 GSQ      0.066200
     51 H282       10.9350   -1.7040    2.9720 h1        1 GSQ      0.066200
     52 H291        9.2100   -2.9660    4.2850 h1        1 GSQ      0.066200
     53 H292        9.8740   -4.3810    5.2580 h1        1 GSQ      0.066200
     54 H72         8.2310   -1.8480   -3.2410 hn        1 GSQ      0.428300
@<TRIPOS>BOND
     1    1    2 1   
     2    2    3 ar  
     3    2    8 ar  
     4    3    4 ar  
     5    3   31 1   
     6    4    5 ar  
     7    4   33 1   
     8    5    6 1   
     9    5    7 ar  
    10    6   10 1   
    11    6   34 1   
    12    7    8 ar  
    13    7    9 1   
    14    8   32 1   
    15    9   10 2   
    16    9   35 1   
    17   10   11 1   
    18   11   12 1   
    19   11   13 1   
    20   14   15 1   
    21   14   36 1   
    22   14   54 1   
    23   15   16 1   
    24   15   18 1   
    25   15   37 1   
    26   16   17 2   
    27   16   20 1   
    28   18   19 1   
    29   18   38 1   
    30   18   39 1   
    31   19   20 1   
    32   19   40 1   
    33   19   41 1   
    34   20   21 1   
    35   21   22 1   
    36   21   23 1   
    37   21   42 1   
    38   22   43 1   
    39   22   44 1   
    40   22   45 1   
    41   23   24 2   
    42   23   25 1   
    43   25   26 1   
    44   25   30 1   
    45   26   27 1   
    46   26   46 1   
    47   26   47 1   
    48   27   28 1   
    49   27   50 1   
    50   27   51 1   
    51   28   29 1   
    52   29   30 1   
    53   29   52 1   
    54   29   53 1   
    55   30   48 1   
    56   30   49 1   
@<TRIPOS>SUBSTRUCTURE
     1 GSQ         1 TEMP              0 ****  ****    0 ROOT
