@<TRIPOS>MOLECULE
GSQ
   54    57     1     0     0
SMALL
bcc


@<TRIPOS>ATOM
      1 CL          1.1020    2.7360    1.2680 cl        1 GSQ     -0.036400
      2 C13         2.4630    2.1610    0.4420 ca        1 GSQ     -0.012600
      3 C14         3.7030    2.8420    0.6260 ca        1 GSQ     -0.030000
      4 C11         4.8540    2.4340   -0.0070 ca        1 GSQ     -0.160000
      5 C6          4.7760    1.3060   -0.8590 ca        1 GSQ      0.043800
      6 N1          5.7640    0.6490   -1.5710 na        1 GSQ     -0.106400
      7 C5          3.5150    0.6160   -1.0560 ca        1 GSQ     -0.146800
      8 C10         2.3580    1.0610   -0.3850 ca        1 GSQ     -0.044000
      9 C2          3.7690   -0.4420   -1.9630 cc        1 GSQ      0.078800
     10 C1          5.1520   -0.4040   -2.3120 cd        1 GSQ     -0.573200
     11 S4          5.9120   -1.3550   -3.3360 sy        1 GSQ      1.495800
     12 O8          5.0730   -2.1110   -4.1330 o         1 GSQ     -0.580300
     13 O9          7.0950   -0.8220   -3.8200 o         1 GSQ     -0.580300
     14 N7          6.5540   -2.6090   -2.0880 n4        1 GSQ     -0.699900
     15 C12         6.8100   -3.9510   -2.6740 c3        1 GSQ      0.023500
     16 C15         7.0680   -4.9470   -1.5010 c         1 GSQ      0.673500
     17 O19         6.1780   -5.2780   -0.7150 o         1 GSQ     -0.555500
     18 C16         8.0940   -4.0310   -3.5160 c3        1 GSQ     -0.115400
     19 C20         9.1260   -4.7440   -2.6210 c3        1 GSQ      0.050000
     20 N18         8.4090   -5.3730   -1.5110 n         1 GSQ     -0.391800
     21 C21         9.0760   -5.4550   -0.2170 c3        1 GSQ      0.031700
     22 C23        10.5340   -5.8910   -0.3410 c3        1 GSQ     -0.106100
     23 C22         8.9980   -4.1110    0.5640 c         1 GSQ      0.648100
     24 O25         8.5880   -3.0760   -0.0280 o         1 GSQ     -0.719100
     25 N24         9.3720   -4.0480    1.8790 n         1 GSQ     -0.434800
     26 C26         9.4140   -2.7720    2.5750 c3        1 GSQ      0.047500
     27 C28         8.7250   -2.8150    3.9450 c3        1 GSQ      0.108400
     28 O30         9.1900   -3.9080    4.7260 os        1 GSQ     -0.393600
     29 C29         8.9930   -5.1540    4.0760 c3        1 GSQ      0.108400
     30 C27         9.6880   -5.1960    2.7040 c3        1 GSQ      0.047500
     31 H14         3.7280    3.7220    1.2940 ha        1 GSQ      0.174000
     32 H10         1.4010    0.5320   -0.5290 ha        1 GSQ      0.173000
     33 H11         5.8060    2.9650    0.1390 ha        1 GSQ      0.166000
     34 H1          6.6090    1.0780   -1.8720 hn        1 GSQ      0.321700
     35 H2          3.0430   -1.1690   -2.3400 ha        1 GSQ      0.191000
     36 H7          5.8970   -2.7300   -1.3130 hn        1 GSQ      0.472800
     37 H12         5.8980   -4.2670   -3.2600 hx        1 GSQ      0.144700
     38 H161        7.8860   -4.6390   -4.4340 hc        1 GSQ      0.096700
     39 H162        8.4800   -3.0330   -3.8440 hc        1 GSQ      0.096700
     40 H201        9.6570   -5.5530   -3.1920 h1        1 GSQ      0.080700
     41 H202        9.8870   -4.0030   -2.2470 h1        1 GSQ      0.080700
     42 H21         8.4910   -6.2330    0.3640 h1        1 GSQ      0.108700
     43 H231       10.6130   -6.8120   -0.9700 hc        1 GSQ      0.065700
     44 H232       10.9430   -6.1230    0.6720 hc        1 GSQ      0.065700
     45 H233       11.1600   -5.0880   -0.8000 hc        1 GSQ      0.065700
     46 H261       10.4990   -2.5020    2.7220 h1        1 GSQ      0.070450
     47 H262        8.9280   -1.9760    1.9450 h1        1 GSQ      0.070450
     48 H271        9.3860   -6.1520    2.1960 h1        1 GSQ      0.070450
     49 H272       10.8050   -5.2100    2.8670 h1        1 GSQ      0.070450
     50 H281        9.0040   -1.9050    4.5400 h1        1 GSQ      0.067700
     51 H282        7.6100   -2.8760    3.8320 h1        1 GSQ      0.067700
     52 H291        9.4650   -5.9070    4.7610 h1        1 GSQ      0.067700
     53 H292        7.8950   -5.3600    3.9700 h1        1 GSQ      0.067700
     54 H72         7.4340   -2.2820   -1.6660 hn        1 GSQ      0.472800
@<TRIPOS>BOND
     1    1    2 1   
     2    2    3 ar  
     3    2    8 ar  
     4    3    4 ar  
     5    3   31 1   
     6    4    5 ar  
     7    4   33 1   
     8    5    6 1   
     9    5    7 ar  
    10    6   10 1   
    11    6   34 1   
    12    7    8 ar  
    13    7    9 1   
    14    8   32 1   
    15    9   10 2   
    16    9   35 1   
    17   10   11 1   
    18   11   12 2   
    19   11   13 2   
    20   11   14 1   
    21   14   15 1   
    22   14   36 1   
    23   14   54 1   
    24   15   16 1   
    25   15   18 1   
    26   15   37 1   
    27   16   17 2   
    28   16   20 1   
    29   18   19 1   
    30   18   38 1   
    31   18   39 1   
    32   19   20 1   
    33   19   40 1   
    34   19   41 1   
    35   20   21 1   
    36   21   22 1   
    37   21   23 1   
    38   21   42 1   
    39   22   43 1   
    40   22   44 1   
    41   22   45 1   
    42   23   24 2   
    43   23   25 1   
    44   25   26 1   
    45   25   30 1   
    46   26   27 1   
    47   26   46 1   
    48   26   47 1   
    49   27   28 1   
    50   27   50 1   
    51   27   51 1   
    52   28   29 1   
    53   29   30 1   
    54   29   52 1   
    55   29   53 1   
    56   30   48 1   
    57   30   49 1   
@<TRIPOS>SUBSTRUCTURE
     1 GSQ         1 TEMP              0 ****  ****    0 ROOT
