@<TRIPOS>MOLECULE
GSR
   52    49     1     0     0
SMALL
bcc


@<TRIPOS>ATOM
      1 P          -2.2400   -3.3840    6.8410 p3        1 GSR      2.524000
      2 OP1        -1.0630   -2.8670    7.6330 o         1 GSR     -1.260500
      3 OP2        -3.5180   -2.8100    7.4060 os        1 GSR     -1.226000
      4 OP3        -2.2830   -4.8900    6.9290 o         1 GSR     -1.260500
      5 O5'        -2.0900   -2.9470    5.3290 os        1 GSR     -0.714000
      6 C5'        -0.9530   -3.3760    4.6160 c3        1 GSR      0.079000
      7 C4'        -1.1680   -3.1430    3.1340 c3        1 GSR     -0.058000
      8 O4'        -0.7240   -2.0060    2.8030 os        1 GSR     -0.289000
      9 C3'        -0.3160   -4.2400    2.2620 c3        1 GSR      0.048000
     10 O3'        -1.0920   -5.5150    2.1430 oh        1 GSR     -0.401000
     11 C2'        -0.1560   -3.7450    1.1610 c3        1 GSR     -0.209000
     12 C1'        -0.1990   -2.1900    1.4020 c3        1 GSR      0.160000
     13 N9          1.0020   -1.6830    1.2970 n3        1 GSR     -0.136000
     14 C8          2.1330   -1.9950    1.9780 c1        1 GSR     -0.031000
     15 N7          3.1310   -1.1940    1.5260 n2        1 GSR     -0.105000
     16 C5          2.6190   -0.3880    0.5670 c1        1 GSR     -0.210000
     17 C6          3.2460    0.6710   -0.3020 c1        1 GSR      0.387000
     18 O6          4.4210    0.9500   -0.1700 o         1 GSR     -0.362000
     19 N1          2.4650    1.3570   -1.2400 n3        1 GSR     -0.324000
     20 C2          1.0810    1.0530   -1.3710 c2        1 GSR      0.141000
     21 N2          0.2990    1.7200   -2.3490 n3        1 GSR     -0.246000
     22 N3          0.4830    0.0390   -0.5380 n1        1 GSR     -0.203000
     23 C4          1.2980   -0.6910    0.4250 c1        1 GSR     -0.013000
     24 CA          0.8350    2.8340   -3.0480 c3        1 GSR     -0.021000
     25 CB          1.3970    2.3730   -4.3740 c3        1 GSR     -0.045000
     26 OB          0.3370    2.0760   -5.2560 oh        1 GSR     -0.342000
     27 CJ         -0.2580    3.8500   -3.2890 c2        1 GSR     -0.064000
     28 CO         -1.5050    3.4360   -3.7280 c2        1 GSR     -0.110000
     29 CO'        -0.0080    5.1980   -3.0820 c1        1 GSR     -0.116000
     30 CM         -2.5030    4.3690   -3.9610 c1        1 GSR     -0.137000
     31 CM'        -1.0060    6.1310   -3.3150 c1        1 GSR     -0.137500
     32 CP         -2.2540    5.7160   -3.7540 c1        1 GSR     -0.137500
     33 H5'        -0.8060   -4.3300    4.7790 h1        1 GSR      0.035000
     34 H5''       -0.1700   -2.8690    4.9150 h1        1 GSR      0.035000
     35 H4'        -2.1200   -3.2080    2.9180 h1        1 GSR      0.123000
     36 H3'         0.5490   -4.4090    2.6850 h1        1 GSR      0.148000
     37 HO3'       -0.5310   -6.2040    2.1410 ho        1 GSR      0.301000
     38 H2'        -0.8790   -4.0160    0.5580 hc        1 GSR      0.092000
     39 H2''        0.7130   -4.0090    0.7920 hc        1 GSR      0.092000
     40 H1'        -0.8010   -1.7670    0.7590 h2        1 GSR      0.102000
     41 H8          2.2150   -2.6780    2.6720 DU        1 GSR      0.257000
     42 H1          2.8390    2.0120   -1.7520 hn        1 GSR      0.243000
     43 H2         -0.5400    1.4200   -2.5440 hn        1 GSR      0.191000
     44 HA          1.5460    3.2410   -2.5160 h1        1 GSR      0.110000
     45 HB1         1.9420    1.5710   -4.2370 h1        1 GSR      0.098000
     46 HB2         1.9510    3.0840   -4.7580 h1        1 GSR      0.098000
     47 HB          0.6590    1.9490   -6.0750 ho        1 GSR      0.227000
     48 HO         -1.6780    2.4870   -3.8820 ha        1 GSR      0.159000
     49 HO'         0.8700    5.4900   -2.7730 ha        1 GSR      0.132000
     50 HM         -3.3810    4.0770   -4.2700 ha        1 GSR      0.127000
     51 HM'        -0.8310    7.0800   -3.1690 ha        1 GSR      0.122000
     52 HP         -2.9560    6.3730   -3.9180 ha        1 GSR      0.122000
@<TRIPOS>BOND
     1    1    2 1   
     2    1    4 1   
     3    1    5 1   
     4    5    6 1   
     5    6    7 1   
     6    6   33 1   
     7    6   34 1   
     8    7    8 1   
     9    7    9 1   
    10    7   35 1   
    11    8   12 1   
    12    9   10 1   
    13    9   11 1   
    14    9   36 1   
    15   10   37 1   
    16   11   12 1   
    17   11   38 1   
    18   11   39 1   
    19   12   13 1   
    20   12   40 1   
    21   13   14 1   
    22   13   23 1   
    23   14   15 1   
    24   15   16 1   
    25   16   23 1   
    26   17   18 1   
    27   17   19 1   
    28   19   20 1   
    29   19   42 1   
    30   20   21 1   
    31   20   22 1   
    32   21   24 1   
    33   21   43 1   
    34   24   25 1   
    35   24   27 1   
    36   24   44 1   
    37   25   26 1   
    38   25   45 1   
    39   25   46 1   
    40   26   47 1   
    41   27   28 1   
    42   27   29 1   
    43   28   30 1   
    44   28   48 1   
    45   29   49 1   
    46   30   50 1   
    47   31   32 1   
    48   31   51 1   
    49   32   52 1   
@<TRIPOS>SUBSTRUCTURE
     1 GSR         1 TEMP              0 ****  ****    0 ROOT
