@<TRIPOS>MOLECULE
GSR
   52    55     1     0     0
SMALL
bcc


@<TRIPOS>ATOM
      1 P           0.5050   -0.7030   -6.7070 p5        1 GSR      1.331900
      2 OP1        -0.4400   -1.8520   -6.5100 o         1 GSR     -0.929500
      3 OP2         0.7160   -0.1770   -8.0920 o         1 GSR     -0.929500
      4 OP3         1.7140   -0.7370   -5.7920 o         1 GSR     -0.929500
      5 O5'        -0.3580    0.5890   -5.9020 os        1 GSR     -0.552200
      6 C5'        -0.6910    0.3010   -4.6100 c3        1 GSR      0.229400
      7 C4'         0.2860    0.9970   -3.6310 c3        1 GSR      0.053100
      8 O4'        -0.4410    1.4720   -2.4630 os        1 GSR     -0.432600
      9 C3'         1.4280    0.0870   -3.1360 c3        1 GSR      0.159100
     10 O3'         2.6820    0.5580   -3.5750 oh        1 GSR     -0.673800
     11 C2'         1.3850    0.1750   -1.6030 c3        1 GSR     -0.130400
     12 C1'         0.0510    0.8770   -1.2780 c3        1 GSR      0.251800
     13 N9         -0.9730   -0.0170   -0.7230 na        1 GSR     -0.180900
     14 C8         -1.9520   -0.7500   -1.4200 cc        1 GSR      0.457400
     15 N7         -2.7860   -1.4390   -0.6040 nd        1 GSR     -0.631000
     16 C5         -2.3420   -1.1530    0.6840 cd        1 GSR      0.207800
     17 C6         -2.8320   -1.5930    1.9730 c         1 GSR      0.640000
     18 O6         -3.7910   -2.3420    2.2290 o         1 GSR     -0.637500
     19 N1         -2.0950   -1.0880    3.0760 n         1 GSR     -0.484400
     20 C2         -1.0060   -0.2140    2.9210 cd        1 GSR      0.587800
     21 N2         -0.4030    0.2430    4.1650 nh        1 GSR     -0.761200
     22 N3         -0.5250    0.2110    1.7450 nc        1 GSR     -0.630100
     23 C4         -1.2050   -0.2580    0.6310 cc        1 GSR      0.036800
     24 CA          0.7540   -0.5630    4.5580 c3        1 GSR      0.183800
     25 CB          2.0130   -0.3850    3.6710 c3        1 GSR      0.105400
     26 OB          2.2590    0.9720    3.3660 oh        1 GSR     -0.614800
     27 CJ          1.0990   -0.2850    6.0020 ca        1 GSR     -0.071300
     28 CO          0.7670   -1.2190    6.9880 ca        1 GSR     -0.113000
     29 CO'         1.7450    0.9020    6.3620 ca        1 GSR     -0.113000
     30 CM          1.0900   -0.9710    8.3220 ca        1 GSR     -0.138500
     31 CM'         2.0630    1.1470    7.6960 ca        1 GSR     -0.138500
     32 CP          1.7370    0.2120    8.6780 ca        1 GSR     -0.135000
     33 H5'        -0.6870   -0.8120   -4.4270 h1        1 GSR     -0.004300
     34 H5''       -1.7240    0.7050   -4.3810 h1        1 GSR     -0.004300
     35 H4'         0.6990    1.9250   -4.1110 h1        1 GSR      0.083700
     36 H3'         1.2780   -0.9700   -3.4950 h1        1 GSR      0.108700
     37 HO3'        2.7440    0.2790   -4.5190 ho        1 GSR      0.502000
     38 H2'         2.2270    0.8060   -1.2270 hc        1 GSR      0.052700
     39 H2''        1.4690   -0.8360   -1.1430 hc        1 GSR      0.052700
     40 H1'         0.1780    1.7090   -0.5240 h2        1 GSR      0.062700
     41 H8         -1.9840   -0.7310   -2.5270 h5        1 GSR      0.120100
     42 H1         -2.4050   -1.3270    3.9920 hn        1 GSR      0.329500
     43 H2         -0.1330    1.2100    4.0840 hn        1 GSR      0.395800
     44 HA          0.4510   -1.6510    4.4700 h1        1 GSR      0.070700
     45 HB1         1.9020   -0.9950    2.7360 h1        1 GSR      0.058700
     46 HB2         2.9160   -0.7300    4.2410 h1        1 GSR      0.058700
     47 HB          1.8050    1.1760    2.5380 ho        1 GSR      0.428000
     48 HO          0.2490   -2.1500    6.7130 ha        1 GSR      0.145500
     49 HO'         2.0120    1.6310    5.5780 ha        1 GSR      0.145500
     50 HM          0.8290   -1.7100    9.0940 ha        1 GSR      0.125000
     51 HM'         2.5730    2.0820    7.9740 ha        1 GSR      0.125000
     52 HP          1.9880    0.4060    9.7300 ha        1 GSR      0.121000
@<TRIPOS>BOND
     1    1    2 1   
     2    1    3 1   
     3    1    4 1   
     4    1    5 1   
     5    5    6 1   
     6    6    7 1   
     7    6   33 1   
     8    6   34 1   
     9    7    8 1   
    10    7    9 1   
    11    7   35 1   
    12    8   12 1   
    13    9   10 1   
    14    9   11 1   
    15    9   36 1   
    16   10   37 1   
    17   11   12 1   
    18   11   38 1   
    19   11   39 1   
    20   12   13 1   
    21   12   40 1   
    22   13   14 1   
    23   13   23 1   
    24   14   15 2   
    25   14   41 1   
    26   15   16 1   
    27   16   17 1   
    28   16   23 2   
    29   17   18 2   
    30   17   19 1   
    31   19   20 1   
    32   19   42 1   
    33   20   21 1   
    34   20   22 2   
    35   21   24 1   
    36   21   43 1   
    37   22   23 1   
    38   24   25 1   
    39   24   27 1   
    40   24   44 1   
    41   25   26 1   
    42   25   45 1   
    43   25   46 1   
    44   26   47 1   
    45   27   28 ar  
    46   27   29 ar  
    47   28   30 ar  
    48   28   48 1   
    49   29   31 ar  
    50   29   49 1   
    51   30   32 ar  
    52   30   50 1   
    53   31   32 ar  
    54   31   51 1   
    55   32   52 1   
@<TRIPOS>SUBSTRUCTURE
     1 GSR         1 TEMP              0 ****  ****    0 ROOT
