@<TRIPOS>MOLECULE
GSS
   52    55     1     0     0
SMALL
bcc


@<TRIPOS>ATOM
      1 P           0.4990    1.5500   -6.7860 p5        1 GSS      1.331900
      2 OP1         1.8420    0.8900   -6.6730 o         1 GSS     -0.929500
      3 OP2        -0.1560    1.6170   -8.1290 o         1 GSS     -0.929500
      4 OP3         0.3240    2.7470   -5.8730 o         1 GSS     -0.929500
      5 O5'        -0.5040    0.4280   -5.8930 os        1 GSS     -0.552200
      6 C5'        -0.0560    0.1840   -4.6270 c3        1 GSS      0.228400
      7 C4'        -0.8780    0.9940   -3.5940 c3        1 GSS      0.053100
      8 O4'        -1.0980    0.1940   -2.3990 os        1 GSS     -0.432600
      9 C3'        -0.2080    2.3130   -3.1610 c3        1 GSS      0.158100
     10 O3'        -0.9770    3.4280   -3.5520 oh        1 GSS     -0.672800
     11 C2'        -0.1660    2.2650   -1.6250 c3        1 GSS     -0.130400
     12 C1'        -0.5390    0.8140   -1.2580 c3        1 GSS      0.251800
     13 N9          0.5930    0.0140   -0.7740 na        1 GSS     -0.180900
     14 C8          1.5530   -0.6750   -1.5400 cc        1 GSS      0.457400
     15 N7          2.4390   -1.3700   -0.7860 nd        1 GSS     -0.630000
     16 C5          2.0480   -1.1390    0.5290 cd        1 GSS      0.207800
     17 C6          2.6080   -1.6070    1.7790 c         1 GSS      0.640000
     18 O6          3.5920   -2.3450    1.9650 o         1 GSS     -0.637500
     19 N1          1.9140   -1.1560    2.9320 n         1 GSS     -0.484400
     20 C2          0.7940   -0.3090    2.8560 cd        1 GSS      0.587800
     21 N2          0.2380    0.0900    4.1410 nh        1 GSS     -0.761200
     22 N3          0.2460    0.1360    1.7180 nc        1 GSS     -0.631100
     23 C4          0.8870   -0.2750    0.5580 cc        1 GSS      0.037800
     24 CA         -0.8870   -0.7510    4.5520 c3        1 GSS      0.184800
     25 CB         -2.1830   -0.5740    3.7190 c3        1 GSS      0.106400
     26 OB         -2.4780    0.7850    3.4720 oh        1 GSS     -0.613800
     27 CJ         -1.1830   -0.5230    6.0150 ca        1 GSS     -0.072300
     28 CO         -0.7990   -1.4810    6.9590 ca        1 GSS     -0.112500
     29 CO'        -1.8340    0.6410    6.4360 ca        1 GSS     -0.112500
     30 CM         -1.0750   -1.2810    8.3110 ca        1 GSS     -0.138000
     31 CM'        -2.1060    0.8390    7.7890 ca        1 GSS     -0.138000
     32 CP         -1.7280   -0.1210    8.7280 ca        1 GSS     -0.135000
     33 H5'         1.0390    0.4390   -4.5280 h1        1 GSS     -0.004300
     34 H5''       -0.2010   -0.9090   -4.3730 h1        1 GSS     -0.004300
     35 H4'        -1.9050    1.1890   -4.0050 h1        1 GSS      0.083700
     36 H3'         0.8250    2.3980   -3.6000 h1        1 GSS      0.108700
     37 HO3'       -0.7920    3.5410   -4.5140 ho        1 GSS      0.502000
     38 H2'        -0.9330    2.9550   -1.1940 hc        1 GSS      0.054700
     39 H2''        0.8350    2.5680   -1.2430 hc        1 GSS      0.054700
     40 H1'        -1.3240    0.7680   -0.4470 h2        1 GSS      0.061700
     41 H8          1.5330   -0.6230   -2.6460 h5        1 GSS      0.121100
     42 H1          2.2770   -1.4080    3.8240 hn        1 GSS      0.329500
     43 H2         -0.0480    1.0550    4.1080 hn        1 GSS      0.396800
     44 HA         -0.5650   -1.8290    4.4190 h1        1 GSS      0.069700
     45 HB1        -3.0550   -0.9630    4.3100 h1        1 GSS      0.057700
     46 HB2        -2.0920   -1.1470    2.7590 h1        1 GSS      0.057700
     47 HB         -2.0380    1.0390    2.6500 ho        1 GSS      0.428000
     48 HO         -0.2750   -2.3930    6.6360 ha        1 GSS      0.145500
     49 HO'        -2.1420    1.3890    5.6860 ha        1 GSS      0.145500
     50 HM         -0.7730   -2.0380    9.0490 ha        1 GSS      0.125000
     51 HM'        -2.6190    1.7560    8.1140 ha        1 GSS      0.125000
     52 HP         -1.9420    0.0370    9.7940 ha        1 GSS      0.121000
@<TRIPOS>BOND
     1    1    2 1   
     2    1    3 1   
     3    1    4 1   
     4    1    5 1   
     5    5    6 1   
     6    6    7 1   
     7    6   33 1   
     8    6   34 1   
     9    7    8 1   
    10    7    9 1   
    11    7   35 1   
    12    8   12 1   
    13    9   10 1   
    14    9   11 1   
    15    9   36 1   
    16   10   37 1   
    17   11   12 1   
    18   11   38 1   
    19   11   39 1   
    20   12   13 1   
    21   12   40 1   
    22   13   14 1   
    23   13   23 1   
    24   14   15 2   
    25   14   41 1   
    26   15   16 1   
    27   16   17 1   
    28   16   23 2   
    29   17   18 2   
    30   17   19 1   
    31   19   20 1   
    32   19   42 1   
    33   20   21 1   
    34   20   22 2   
    35   21   24 1   
    36   21   43 1   
    37   22   23 1   
    38   24   25 1   
    39   24   27 1   
    40   24   44 1   
    41   25   26 1   
    42   25   45 1   
    43   25   46 1   
    44   26   47 1   
    45   27   28 ar  
    46   27   29 ar  
    47   28   30 ar  
    48   28   48 1   
    49   29   31 ar  
    50   29   49 1   
    51   30   32 ar  
    52   30   50 1   
    53   31   32 ar  
    54   31   51 1   
    55   32   52 1   
@<TRIPOS>SUBSTRUCTURE
     1 GSS         1 TEMP              0 ****  ****    0 ROOT
