@<TRIPOS>MOLECULE
GST
   36    32     1     0     0
SMALL
bcc


@<TRIPOS>ATOM
      1 PA          0.3920   -5.1920    6.0430 p3        1 GST      2.593000
      2 O1A         1.8370   -5.6170    5.9450 os        1 GST     -1.196000
      3 O2A         0.0360   -4.9440    7.4890 o         1 GST     -1.198000
      4 O3A        -0.4920   -6.2830    5.4870 o         1 GST     -1.198000
      5 O1B         0.1750   -3.8650    5.2120 os        1 GST     -1.200000
      6 PB         -0.0530   -3.8380    3.6480 p5        1 GST      1.954000
      7 O2B         1.0590   -4.5980    2.9640 o         1 GST     -0.876500
      8 O3B        -1.3780   -4.4840    3.3210 o         1 GST     -0.876500
      9 S1         -0.0580   -1.8770    2.9850 ss        1 GST     -0.857000
     10 C1         -0.3340   -1.8460    1.2340 c3        1 GST     -0.076000
     11 C2         -0.5660   -0.4210    0.7850 c2        1 GST     -0.079000
     12 C3         -0.9750   -0.1690   -0.4740 c1        1 GST     -0.208000
     13 C10        -1.2000   -1.3120   -1.4390 c2        1 GST     -0.201000
     14 C4         -1.2070    1.2570   -0.9230 c3        1 GST     -0.093000
     15 C5          0.0280    1.7720   -1.6290 c3        1 GST     -0.108000
     16 C6         -0.2820    3.1000   -2.2830 c2        1 GST     -0.223000
     17 C7          0.6950    3.7890   -2.9050 c1        1 GST     -0.054000
     18 C9          2.1020    3.2330   -2.9500 c2        1 GST     -0.201000
     19 C8          0.3860    5.1180   -3.5590 c3        1 GST     -0.182000
     20 H11        -1.1190   -2.3890    1.0180 h1        1 GST      0.049500
     21 H12         0.4500   -2.2090    0.7740 h1        1 GST      0.049500
     22 H2         -0.4210    0.3170    1.4080 ha        1 GST      0.114000
     23 H101       -0.3610   -1.8020   -1.5660 ha        1 GST      0.086333
     24 H102       -1.8810   -1.9160   -1.0760 ha        1 GST      0.086333
     25 H103       -1.5050   -0.9570   -2.3010 ha        1 GST      0.086333
     26 H41        -1.9690    1.2860   -1.5360 hc        1 GST      0.058000
     27 H42        -1.3950    1.8180   -0.1440 hc        1 GST      0.058000
     28 H51         0.7500    1.8880   -0.9800 hc        1 GST      0.067000
     29 H52         0.3040    1.1290   -2.3120 hc        1 GST      0.067000
     30 H6         -1.1890    3.4590   -2.2540 ha        1 GST      0.090000
     31 H91         2.6800    3.8490   -3.4470 ha        1 GST      0.086333
     32 H92         2.0940    2.3600   -3.3960 ha        1 GST      0.086333
     33 H93         2.4420    3.1310   -2.0360 ha        1 GST      0.086333
     34 H81         0.8610    5.1790   -4.4140 hc        1 GST      0.070667
     35 H82         0.6750    5.8460   -2.9710 hc        1 GST      0.070667
     36 H83        -0.5790    5.1880   -3.7160 hc        1 GST      0.070667
@<TRIPOS>BOND
     1    1    3 1   
     2    1    4 1   
     3    1    5 1   
     4    5    6 1   
     5    6    7 1   
     6    6    8 1   
     7    6    9 1   
     8    9   10 1   
     9   10   11 1   
    10   10   20 1   
    11   10   21 1   
    12   11   12 1   
    13   11   22 1   
    14   12   14 1   
    15   13   23 1   
    16   13   24 1   
    17   13   25 1   
    18   14   15 1   
    19   14   26 1   
    20   14   27 1   
    21   15   16 1   
    22   15   28 1   
    23   15   29 1   
    24   16   17 1   
    25   16   30 1   
    26   17   19 1   
    27   18   31 1   
    28   18   32 1   
    29   18   33 1   
    30   19   34 1   
    31   19   35 1   
    32   19   36 1   
@<TRIPOS>SUBSTRUCTURE
     1 GST         1 TEMP              0 ****  ****    0 ROOT
