@<TRIPOS>MOLECULE
GST
   36    35     1     0     0
SMALL
bcc


@<TRIPOS>ATOM
      1 PA       1764.0340 -209.5870 -809.3110 p5        1 GST      1.486800
      2 O1A      1762.7630 -209.8580 -810.0270 o         1 GST     -0.876500
      3 O2A      1763.8490 -209.3820 -807.6820 os        1 GST     -0.732800
      4 O3A      1765.2150 -210.4060 -809.6790 o         1 GST     -0.876500
      5 O1B      1764.3680 -207.9790 -809.1350 os        1 GST     -0.732800
      6 PB       1764.1830 -207.7740 -807.5060 p5        1 GST      1.486800
      7 O2B      1763.0010 -206.9560 -807.1380 o         1 GST     -0.876500
      8 O3B      1765.4530 -207.5030 -806.7900 o         1 GST     -0.876500
      9 S1       -507.2940   60.0130  233.6000 s         1 GST     -0.941300
     10 C1       -506.2440   58.6590  233.2240 c3        1 GST      0.088100
     11 C2       -504.9760   59.1570  232.6570 c2        1 GST     -0.087200
     12 C3       -504.6820   59.2790  231.3500 c2        1 GST     -0.205400
     13 C10      -503.3800   59.8250  230.8950 c3        1 GST     -0.028900
     14 C4       -505.6420   58.9320  230.2640 c3        1 GST     -0.004200
     15 C5       -506.7630   59.9580  230.1850 c3        1 GST     -0.094200
     16 C6       -507.9040   59.4550  229.3910 c2        1 GST     -0.163200
     17 C7       -509.1930   59.5100  229.7640 c2        1 GST     -0.122400
     18 C9       -509.6620   60.0930  231.0430 c3        1 GST     -0.076900
     19 C8       -510.2640   58.9730  228.8850 c3        1 GST     -0.076900
     20 H11      -506.7650   57.9710  232.5120 h1        1 GST      0.011700
     21 H12      -506.0340   58.0790  234.1590 h1        1 GST      0.011700
     22 H2       -504.2360   59.4850  233.4090 ha        1 GST      0.099000
     23 H101     -502.7240   60.1010  231.7570 hc        1 GST      0.015367
     24 H102     -502.8380   59.0730  230.2680 hc        1 GST      0.015367
     25 H103     -503.5430   60.7410  230.2720 hc        1 GST      0.015367
     26 H41      -506.0840   57.9180  230.4620 hc        1 GST      0.017200
     27 H42      -505.1100   58.8710  229.2780 hc        1 GST      0.017200
     28 H51      -506.3730   60.8990  229.7110 hc        1 GST      0.088200
     29 H52      -507.0770   60.2220  231.2500 hc        1 GST      0.088200
     30 H6       -507.6330   59.0020  228.4220 ha        1 GST      0.083000
     31 H91      -508.9310   59.9070  231.8960 hc        1 GST      0.041533
     32 H92      -509.7740   61.2010  230.9340 hc        1 GST      0.041533
     33 H93      -510.6550   59.6690  231.3300 hc        1 GST      0.041533
     34 H81      -511.0390   59.7580  228.7000 hc        1 GST      0.041533
     35 H82      -509.8650   58.6330  227.8980 hc        1 GST      0.041533
     36 H83      -510.7640   58.1030  229.3810 hc        1 GST      0.041533
@<TRIPOS>BOND
     1    1    2 1   
     2    1    3 1   
     3    1    4 1   
     4    1    5 1   
     5    3    6 1   
     6    5    6 1   
     7    6    7 1   
     8    6    8 1   
     9    9   10 1   
    10   10   11 1   
    11   10   20 1   
    12   10   21 1   
    13   11   12 2   
    14   11   22 1   
    15   12   13 1   
    16   12   14 1   
    17   13   23 1   
    18   13   24 1   
    19   13   25 1   
    20   14   15 1   
    21   14   26 1   
    22   14   27 1   
    23   15   16 1   
    24   15   28 1   
    25   15   29 1   
    26   16   17 2   
    27   16   30 1   
    28   17   18 1   
    29   17   19 1   
    30   18   31 1   
    31   18   32 1   
    32   18   33 1   
    33   19   34 1   
    34   19   35 1   
    35   19   36 1   
@<TRIPOS>SUBSTRUCTURE
     1 GST         1 TEMP              0 ****  ****    0 ROOT
