@<TRIPOS>MOLECULE
GSU
   52    47     1     0     0
SMALL
bcc


@<TRIPOS>ATOM
      1 C2         -7.8720   -0.4950   -0.2060 c1        1 GSU      0.004000
      2 S           2.3320    0.0220    0.2800 ss        1 GSU      2.820000
      3 N           6.0210   -0.3640   -3.2690 n3        1 GSU     -0.333000
      4 CA          5.8080   -0.5700   -1.8700 c3        1 GSU     -0.057000
      5 CB          6.8700    0.1010   -1.1090 c3        1 GSU     -0.169000
      6 CG          8.1000   -0.8530   -0.9710 c3        1 GSU     -0.219000
      7 CD          9.0570   -0.2760   -0.0020 c2        1 GSU      0.314000
      8 OE1         9.9010    0.5440   -0.3860 o         1 GSU     -0.588000
      9 OE2         9.1210   -0.7290    1.1390 o         1 GSU     -0.588000
     10 C           4.4270    0.0220   -1.4620 c2        1 GSU      0.359000
     11 O           4.0830    1.0720   -1.8910 o         1 GSU     -0.374000
     12 N10         3.5190   -0.7520   -0.5860 n2        1 GSU     -0.887000
     13 O1S         2.8650    0.5840    1.5310 o         1 GSU     -0.951500
     14 O2S         1.8720    1.2410   -0.4060 o         1 GSU     -0.951500
     15 O5'         1.1810   -0.9240    0.5460 o         1 GSU     -0.706000
     16 C5'         0.0370   -0.3560    1.1650 c3        1 GSU      0.004000
     17 C4'        -1.1540   -0.5090    0.2610 c3        1 GSU     -0.029000
     18 O4'        -2.2120   -0.8160    0.9660 os        1 GSU     -0.256000
     19 C1'        -3.4510   -0.1110    0.2440 c3        1 GSU      0.122000
     20 N9         -4.5090    0.0920    1.1800 n3        1 GSU     -0.198000
     21 C4         -5.8380   -0.0600    0.9170 c1        1 GSU      0.024500
     22 N3         -6.5110   -0.3290   -0.2300 n1        1 GSU     -0.161500
     23 N1         -8.5520   -0.3900    0.9730 n1        1 GSU     -0.270000
     24 C6         -7.8930   -0.1240    2.1050 c1        1 GSU      0.205000
     25 N6         -8.8620    0.0290    3.0850 n3        1 GSU     -0.334000
     26 C5         -6.5090    0.0450    2.0820 c1        1 GSU     -0.221000
     27 N7         -5.5940    0.2640    3.0790 n1        1 GSU     -0.161500
     28 C8         -4.3650    0.2920    2.5200 c1        1 GSU      0.024500
     29 C2'        -3.0020    1.0730   -0.2060 c3        1 GSU      0.011000
     30 O2'        -3.6640    1.4270   -1.4770 oh        1 GSU     -0.307000
     31 C3'        -1.5010    0.8690   -0.4280 c3        1 GSU     -0.030000
     32 O3'        -1.2230    0.8130   -1.7620 oh        1 GSU     -0.332000
     33 HC2        -8.3660   -0.5940   -1.0460 ha        1 GSU      0.177000
     34 H           6.4450   -1.0930   -3.6250 hn        1 GSU      0.145000
     35 H2          5.2090   -0.2440   -3.6880 hn        1 GSU      0.145000
     36 HA          5.8220   -1.5150   -1.6770 h1        1 GSU      0.171000
     37 HB2         6.5330    0.3330   -0.2110 hc        1 GSU      0.079000
     38 HB3         7.1440    0.9240   -1.5830 hc        1 GSU      0.079000
     39 HG2         7.7950   -1.7490   -0.6460 hc        1 GSU      0.079000
     40 HG3         8.5260   -0.9480   -1.8230 hc        1 GSU      0.079000
     41 H10         3.5770   -1.6530   -0.5580 hn        1 GSU      0.326000
     42 H5'1        0.1950    0.5850    1.3350 h1        1 GSU      0.141500
     43 H5'2       -0.1350   -0.8080    1.9970 h1        1 GSU      0.141500
     44 H4'        -0.9800   -1.2070   -0.4290 h1        1 GSU      0.118000
     45 H1'        -3.7680   -0.6680   -0.5160 h2        1 GSU      0.161000
     46 HN61       -9.7540   -0.1240    2.8840 hn        1 GSU      0.220500
     47 HN62       -8.6210    0.2760    3.9260 hn        1 GSU      0.220500
     48 H8         -3.5090    0.4750    2.9960 DU        1 GSU      0.246000
     49 H2'        -3.1480    1.7380    0.4320 h1        1 GSU      0.141000
     50 HO2'       -3.6570    2.3150   -1.5770 ho        1 GSU      0.220000
     51 H3'        -0.9920    1.6010   -0.0030 h1        1 GSU      0.120000
     52 HO3'       -0.7980    1.5270   -1.9990 ho        1 GSU      0.227000
@<TRIPOS>BOND
     1    1   23 1   
     2    1   33 1   
     3    2   13 1   
     4    2   14 1   
     5    3    4 1   
     6    3   34 1   
     7    3   35 1   
     8    4    5 1   
     9    4   10 1   
    10    4   36 1   
    11    5    6 1   
    12    5   37 1   
    13    5   38 1   
    14    6    7 1   
    15    6   39 1   
    16    6   40 1   
    17    7    8 1   
    18    7    9 1   
    19   10   11 1   
    20   10   12 1   
    21   12   41 1   
    22   15   16 1   
    23   16   17 1   
    24   16   42 1   
    25   16   43 1   
    26   17   18 1   
    27   17   31 1   
    28   17   44 1   
    29   18   19 1   
    30   19   20 1   
    31   19   29 1   
    32   19   45 1   
    33   20   21 1   
    34   20   28 1   
    35   21   22 1   
    36   24   25 1   
    37   24   26 1   
    38   25   46 1   
    39   25   47 1   
    40   27   28 1   
    41   29   30 1   
    42   29   31 1   
    43   29   49 1   
    44   30   50 1   
    45   31   32 1   
    46   31   51 1   
    47   32   52 1   
@<TRIPOS>SUBSTRUCTURE
     1 GSU         1 TEMP              0 ****  ****    0 ROOT
