@<TRIPOS>MOLECULE
GSU
   52    54     1     0     0
SMALL
bcc


@<TRIPOS>ATOM
      1 C2          5.6650    1.3380    1.6940 ca        1 GSU      0.667900
      2 S          -1.9530   -1.0260   -2.4590 s6        1 GSU      1.711100
      3 N          -4.9170    3.0000   -1.0390 n3        1 GSU     -0.887800
      4 CA         -3.9220    2.0400   -0.6140 c3        1 GSU      0.099500
      5 CB         -4.2870    1.3310    0.7070 c3        1 GSU     -0.053400
      6 CG         -3.2650    1.5930    1.7940 c3        1 GSU     -0.187400
      7 CD         -1.9380    0.9010    1.4970 c         1 GSU      0.899600
      8 OE1        -1.6800   -0.2150    2.0320 o         1 GSU     -0.859800
      9 OE2        -1.1240    1.4520    0.6840 o         1 GSU     -0.859800
     10 C          -3.6590    0.9450   -1.6800 c         1 GSU      0.662100
     11 O          -4.5010    0.6480   -2.5490 o         1 GSU     -0.623100
     12 N10        -2.4330    0.2910   -1.6420 n         1 GSU     -0.720300
     13 O1S        -2.7590   -2.1320   -2.2410 o         1 GSU     -0.655300
     14 O2S        -1.5140   -0.7580   -3.7460 o         1 GSU     -0.655300
     15 O5'        -0.5110   -1.4060   -1.6770 os        1 GSU     -0.561500
     16 C4'         0.4900   -2.5560    0.1890 c3        1 GSU      0.096100
     17 O4'         1.7980   -2.4250   -0.3920 os        1 GSU     -0.399600
     18 C1'         2.6730   -1.7360    0.5000 c3        1 GSU      0.216800
     19 N9          2.9950   -0.4260   -0.0230 na        1 GSU     -0.278000
     20 C4          4.0010    0.4130    0.4720 ca        1 GSU      0.439800
     21 N3          4.8410    0.2760    1.5430 nb        1 GSU     -0.742000
     22 N1          5.7700    2.4800    0.9610 nb        1 GSU     -0.796000
     23 C6          4.9410    2.6140   -0.1250 ca        1 GSU      0.727200
     24 N6          5.0430    3.7080   -0.9690 nh        1 GSU     -0.936500
     25 C5          4.0030    1.5730   -0.4160 ca        1 GSU     -0.202200
     26 N7          3.0210    1.4180   -1.4070 nc        1 GSU     -0.564100
     27 C8          2.4420    0.2350   -1.1460 cd        1 GSU      0.459700
     28 C2'         1.9950   -1.7200    1.9130 c3        1 GSU      0.077100
     29 O2'         2.8030   -2.4480    2.8130 oh        1 GSU     -0.596800
     30 C3'         0.6550   -2.4680    1.7250 c3        1 GSU      0.113100
     31 O3'         0.6380   -3.7420    2.3210 oh        1 GSU     -0.576800
     32 HC2         6.3630    1.2790    2.5560 h5        1 GSU      0.039100
     33 HA         -2.9510    2.6100   -0.4530 h1        1 GSU      0.122700
     34 HB2        -5.2920    1.6780    1.0660 hc        1 GSU      0.044700
     35 HB3        -4.3660    0.2250    0.5360 hc        1 GSU      0.044700
     36 HG2        -3.0870    2.6930    1.8980 hc        1 GSU      0.045200
     37 HG3        -3.6640    1.2050    2.7660 hc        1 GSU      0.045200
     38 H10        -1.8020    0.7010   -0.9540 hn        1 GSU      0.401500
     39 H4'         0.1330   -3.5640   -0.1510 h1        1 GSU      0.093700
     40 H1'         3.6300   -2.3410    0.5290 h2        1 GSU      0.088700
     41 HN61        4.2630    3.8660   -1.5650 hn        1 GSU      0.425300
     42 HN62        5.5120    4.5130   -0.6280 hn        1 GSU      0.425300
     43 H8          1.6070   -0.2280   -1.7030 h5        1 GSU      0.112800
     44 H2'         1.8070   -0.6790    2.2850 h1        1 GSU      0.096700
     45 HO2'        3.5360   -1.8660    3.0550 ho        1 GSU      0.421000
     46 H3'        -0.2020   -1.9000    2.2000 h1        1 GSU      0.166700
     47 HO3'        1.4780   -4.1730    2.1160 ho        1 GSU      0.403000
     48 H          -4.6460    3.4090   -1.9130 hn        1 GSU      0.349800
     49 C5'        -0.4500   -1.4460   -0.2670 c3        1 GSU      0.123400
     50 H2         -5.8070    2.5540   -1.1600 hn        1 GSU      0.349800
     51 H5'1       -0.0900   -0.4400    0.1020 h1        1 GSU      0.095700
     52 H5'2       -1.4690   -1.6480    0.1720 h1        1 GSU      0.095700
@<TRIPOS>BOND
     1    1   21 ar  
     2    1   22 ar  
     3    1   32 1   
     4    2   12 1   
     5    2   13 2   
     6    2   14 2   
     7    2   15 1   
     8    3    4 1   
     9    3   48 1   
    10    3   50 1   
    11    4    5 1   
    12    4   10 1   
    13    4   33 1   
    14    5    6 1   
    15    5   34 1   
    16    5   35 1   
    17    6    7 1   
    18    6   36 1   
    19    6   37 1   
    20    7    8 1   
    21    7    9 1   
    22   10   11 2   
    23   10   12 1   
    24   12   38 1   
    25   15   49 1   
    26   16   17 1   
    27   16   30 1   
    28   16   39 1   
    29   16   49 1   
    30   17   18 1   
    31   18   19 1   
    32   18   28 1   
    33   18   40 1   
    34   19   20 1   
    35   19   27 1   
    36   20   21 ar  
    37   20   25 ar  
    38   22   23 ar  
    39   23   24 1   
    40   23   25 ar  
    41   24   41 1   
    42   24   42 1   
    43   25   26 1   
    44   26   27 2   
    45   27   43 1   
    46   28   29 1   
    47   28   30 1   
    48   28   44 1   
    49   29   45 1   
    50   30   31 1   
    51   30   46 1   
    52   31   47 1   
    53   49   51 1   
    54   49   52 1   
@<TRIPOS>SUBSTRUCTURE
     1 GSU         1 TEMP              0 ****  ****    0 ROOT
