@<TRIPOS>MOLECULE
GSV
   58    61     1     0     0
SMALL
bcc


@<TRIPOS>ATOM
      1 C35         0.3930    0.1660   -1.0100 c3        1 GSV     -0.362300
      2 S32         1.8810   -0.2040   -0.2980 sy        1 GSV      1.393300
      3 O37         1.7060   -0.3500    1.0860 o         1 GSV     -0.656300
      4 O36         2.8400    0.7250   -0.7200 o         1 GSV     -0.656300
      5 C29         2.1840   -1.7030   -1.0180 ca        1 GSV     -0.356500
      6 C31         3.2080   -1.7410   -1.9790 ca        1 GSV     -0.031000
      7 C34         3.5500   -2.9180   -2.6390 ca        1 GSV     -0.137000
      8 C33         2.8610   -4.0950   -2.3500 ca        1 GSV     -0.063000
      9 C30         1.8420   -4.0830   -1.3990 ca        1 GSV     -0.143000
     10 C28         1.5070   -2.9010   -0.7280 cp        1 GSV      0.055000
     11 C27         0.4310   -2.9800    0.2720 cp        1 GSV     -0.037000
     12 C26         0.7170   -2.8400    1.6320 ca        1 GSV     -0.092000
     13 C22        -0.3110   -2.9660    2.5830 ca        1 GSV      0.128900
     14 F          -0.0130   -2.8350    3.8980 f         1 GSV     -0.133900
     15 C24        -0.8800   -3.2550   -0.1380 ca        1 GSV     -0.122000
     16 C21        -1.9090   -3.3670    0.7900 ca        1 GSV     -0.092000
     17 C15        -1.6490   -3.2180    2.1660 ca        1 GSV     -0.016400
     18 N2         -2.7020   -3.3020    3.1090 n         1 GSV     -0.344000
     19 C50        -3.3050   -4.4620    3.5260 c         1 GSV      0.696500
     20 O3         -3.1530   -5.6240    3.1180 o         1 GSV     -0.632500
     21 C14        -3.0680   -2.1520    3.9290 c3        1 GSV      0.084000
     22 C13        -3.9890   -2.6700    5.0550 c3        1 GSV     -0.110400
     23 C12        -4.3080   -4.1290    4.6790 c3        1 GSV      0.013500
     24 N1         -4.1990   -5.1170    5.7740 n4        1 GSV     -0.683900
     25 S1         -5.4210   -6.6190    5.6450 s6        1 GSV      1.405900
     26 O2         -5.7260   -6.7430    6.9840 o         1 GSV     -0.557800
     27 O1         -6.3620   -6.1670    4.7500 o         1 GSV     -0.557800
     28 C6         -4.3680   -7.7470    5.0820 c3        1 GSV     -0.436600
     29 C5         -5.0910   -9.0490    4.7020 c3        1 GSV      0.049900
     30 C4         -4.1470  -10.0400    4.1720 cc        1 GSV     -0.186400
     31 S2         -3.8050  -11.4860    4.9410 ss        1 GSV      0.096200
     32 C3         -3.4590   -9.9280    2.9730 cd        1 GSV     -0.120000
     33 C2         -2.6430  -11.0660    2.7230 cd        1 GSV     -0.150000
     34 C1         -2.7480  -12.0000    3.7430 cc        1 GSV     -0.014700
     35 CL         -1.9460  -13.4600    3.7970 cl        1 GSV      0.007600
     36 H351       -0.0910    1.0410   -0.5060 h1        1 GSV      0.117367
     37 H352       -0.3440   -0.6730   -0.9610 h1        1 GSV      0.117367
     38 H353        0.4860    0.4460   -2.0890 h1        1 GSV      0.117367
     39 H31         3.7610   -0.8100   -2.2120 ha        1 GSV      0.176000
     40 H34         4.3610   -2.9160   -3.3840 ha        1 GSV      0.155000
     41 H33         3.1210   -5.0320   -2.8670 ha        1 GSV      0.149000
     42 H30         1.2990   -5.0130   -1.1670 ha        1 GSV      0.144000
     43 H26         1.7360   -2.5900    1.9750 ha        1 GSV      0.194000
     44 H24        -1.1010   -3.3810   -1.2110 ha        1 GSV      0.158000
     45 H21        -2.9320   -3.5790    0.4410 ha        1 GSV      0.155000
     46 H141       -2.1410   -1.6720    4.3520 h1        1 GSV      0.092200
     47 H142       -3.6060   -1.3980    3.2910 h1        1 GSV      0.092200
     48 H12        -5.3590   -4.1900    4.2550 hx        1 GSV      0.150700
     49 H131       -3.4700   -2.5830    6.0420 hc        1 GSV      0.087700
     50 H132       -4.9270   -2.0640    5.1020 hc        1 GSV      0.087700
     51 H1         -3.2380   -5.4560    5.8110 hn        1 GSV      0.451300
     52 H6C1       -3.7950   -7.4420    4.1460 h1        1 GSV      0.186700
     53 H6C2       -3.5560   -8.0340    5.8110 h1        1 GSV      0.186700
     54 H5C1       -5.6120   -9.4580    5.6120 hc        1 GSV      0.075200
     55 H5C2       -5.8690   -8.8180    3.9210 hc        1 GSV      0.075200
     56 H3         -3.5260   -9.0800    2.2860 ha        1 GSV      0.161000
     57 H2         -2.0200  -11.1800    1.8310 ha        1 GSV      0.179000
     58 H121       -4.3830   -4.6420    6.6600 hn        1 GSV      0.451300
@<TRIPOS>BOND
     1    1    2 1   
     2    1   36 1   
     3    1   37 1   
     4    1   38 1   
     5    2    3 2   
     6    2    4 2   
     7    2    5 1   
     8    5    6 ar  
     9    5   10 ar  
    10    6    7 ar  
    11    6   39 1   
    12    7    8 ar  
    13    7   40 1   
    14    8    9 ar  
    15    8   41 1   
    16    9   10 ar  
    17    9   42 1   
    18   10   11 1   
    19   11   12 ar  
    20   11   15 ar  
    21   12   13 ar  
    22   12   43 1   
    23   13   14 1   
    24   13   17 ar  
    25   15   16 ar  
    26   15   44 1   
    27   16   17 ar  
    28   16   45 1   
    29   17   18 1   
    30   18   19 1   
    31   18   21 1   
    32   19   20 2   
    33   19   23 1   
    34   21   22 1   
    35   21   46 1   
    36   21   47 1   
    37   22   23 1   
    38   22   49 1   
    39   22   50 1   
    40   23   24 1   
    41   23   48 1   
    42   24   25 1   
    43   24   51 1   
    44   24   58 1   
    45   25   26 2   
    46   25   27 2   
    47   25   28 1   
    48   28   29 1   
    49   28   52 1   
    50   28   53 1   
    51   29   30 1   
    52   29   54 1   
    53   29   55 1   
    54   30   31 1   
    55   30   32 2   
    56   31   34 1   
    57   32   33 1   
    58   32   56 1   
    59   33   34 2   
    60   33   57 1   
    61   34   35 1   
@<TRIPOS>SUBSTRUCTURE
     1 GSV         1 TEMP              0 ****  ****    0 ROOT
