@<TRIPOS>MOLECULE
GSV
   58    61     1     0     0
SMALL
bcc


@<TRIPOS>ATOM
      1 C35         0.3410    0.1840   -1.0220 c3        1 GSV     -0.362300
      2 S32         1.8370   -0.1840   -0.3260 sy        1 GSV      1.393300
      3 O37         1.6760   -0.3370    1.0600 o         1 GSV     -0.656300
      4 O36         2.7910    0.7480   -0.7540 o         1 GSV     -0.656300
      5 C29         2.1370   -1.6800   -1.0540 ca        1 GSV     -0.356500
      6 C31         3.1510   -1.7140   -2.0250 ca        1 GSV     -0.031000
      7 C34         3.4900   -2.8870   -2.6920 ca        1 GSV     -0.137000
      8 C33         2.8060   -4.0660   -2.4010 ca        1 GSV     -0.063000
      9 C30         1.7960   -4.0610   -1.4410 ca        1 GSV     -0.143000
     10 C28         1.4650   -2.8810   -0.7620 cp        1 GSV      0.055000
     11 C27         0.3990   -2.9660    0.2480 cp        1 GSV     -0.037000
     12 C26         0.6970   -2.8290    1.6060 ca        1 GSV     -0.092000
     13 C22        -0.3210   -2.9610    2.5660 ca        1 GSV      0.128900
     14 F          -0.0110   -2.8340    3.8790 f         1 GSV     -0.134900
     15 C24        -0.9160   -3.2440   -0.1510 ca        1 GSV     -0.122000
     16 C21        -1.9350   -3.3620    0.7870 ca        1 GSV     -0.092000
     17 C15        -1.6620   -3.2170    2.1610 ca        1 GSV     -0.016400
     18 N2         -2.7070   -3.3070    3.1140 n         1 GSV     -0.344000
     19 C50        -3.2970   -4.4710    3.5370 c         1 GSV      0.696500
     20 O3         -3.1410   -5.6320    3.1280 o         1 GSV     -0.632500
     21 C14        -3.0700   -2.1600    3.9390 c3        1 GSV      0.084000
     22 C13        -3.9750   -2.6840    5.0740 c3        1 GSV     -0.110400
     23 C12        -4.2890   -4.1450    4.7010 c3        1 GSV      0.013500
     24 N1         -4.1600   -5.1330    5.7950 n4        1 GSV     -0.683900
     25 S1         -5.3730   -6.6430    5.6790 s6        1 GSV      1.405900
     26 O2         -5.6630   -6.7690    7.0210 o         1 GSV     -0.557800
     27 O1         -6.3270   -6.1980    4.7950 o         1 GSV     -0.557800
     28 C6         -4.3180   -7.7630    5.1050 c3        1 GSV     -0.436600
     29 C5         -5.0350   -9.0720    4.7350 c3        1 GSV      0.049900
     30 C4         -4.0900  -10.0560    4.1960 cc        1 GSV     -0.186400
     31 S2         -3.7280  -11.4980    4.9630 ss        1 GSV      0.096200
     32 C3         -3.4150   -9.9410    2.9890 cd        1 GSV     -0.120000
     33 C2         -2.5940  -11.0730    2.7310 cd        1 GSV     -0.150000
     34 C1         -2.6800  -12.0060    3.7530 cc        1 GSV     -0.014700
     35 CL         -1.8660  -13.4590    3.8010 cl        1 GSV      0.007600
     36 H351        0.4240    0.4680   -2.1010 h1        1 GSV      0.117367
     37 H352       -0.3930   -0.6570   -0.9690 h1        1 GSV      0.117367
     38 H353       -0.1400    1.0560   -0.5100 h1        1 GSV      0.117367
     39 H31         3.7010   -0.7800   -2.2590 ha        1 GSV      0.176000
     40 H34         4.2930   -2.8810   -3.4450 ha        1 GSV      0.155000
     41 H33         3.0630   -5.0010   -2.9240 ha        1 GSV      0.149000
     42 H30         1.2570   -4.9920   -1.2070 ha        1 GSV      0.144000
     43 H26         1.7190   -2.5780    1.9400 ha        1 GSV      0.194000
     44 H24        -1.1460   -3.3670   -1.2220 ha        1 GSV      0.158000
     45 H21        -2.9610   -3.5760    0.4470 ha        1 GSV      0.155000
     46 H141       -3.6190   -1.4090    3.3070 h1        1 GSV      0.092200
     47 H142       -2.1420   -1.6740    4.3510 h1        1 GSV      0.092200
     48 H12        -5.3440   -4.2130    4.2900 hx        1 GSV      0.150700
     49 H131       -3.4460   -2.5930    6.0560 hc        1 GSV      0.087700
     50 H132       -4.9170   -2.0840    5.1310 hc        1 GSV      0.087700
     51 H1         -3.1970   -5.4650    5.8220 hn        1 GSV      0.451300
     52 H6C1       -3.7580   -7.4550    4.1620 h1        1 GSV      0.186700
     53 H6C2       -3.4960   -8.0440    5.8260 h1        1 GSV      0.186700
     54 H5C1       -5.5430   -9.4840    5.6510 hc        1 GSV      0.075200
     55 H5C2       -5.8230   -8.8470    3.9620 hc        1 GSV      0.075200
     56 H3         -3.4960   -9.0940    2.3020 ha        1 GSV      0.161000
     57 H2         -1.9800  -11.1830    1.8330 ha        1 GSV      0.179000
     58 H121       -4.3380   -4.6590    6.6840 hn        1 GSV      0.451300
@<TRIPOS>BOND
     1    1    2 1   
     2    1   36 1   
     3    1   37 1   
     4    1   38 1   
     5    2    3 2   
     6    2    4 2   
     7    2    5 1   
     8    5    6 ar  
     9    5   10 ar  
    10    6    7 ar  
    11    6   39 1   
    12    7    8 ar  
    13    7   40 1   
    14    8    9 ar  
    15    8   41 1   
    16    9   10 ar  
    17    9   42 1   
    18   10   11 1   
    19   11   12 ar  
    20   11   15 ar  
    21   12   13 ar  
    22   12   43 1   
    23   13   14 1   
    24   13   17 ar  
    25   15   16 ar  
    26   15   44 1   
    27   16   17 ar  
    28   16   45 1   
    29   17   18 1   
    30   18   19 1   
    31   18   21 1   
    32   19   20 2   
    33   19   23 1   
    34   21   22 1   
    35   21   46 1   
    36   21   47 1   
    37   22   23 1   
    38   22   49 1   
    39   22   50 1   
    40   23   24 1   
    41   23   48 1   
    42   24   25 1   
    43   24   51 1   
    44   24   58 1   
    45   25   26 2   
    46   25   27 2   
    47   25   28 1   
    48   28   29 1   
    49   28   52 1   
    50   28   53 1   
    51   29   30 1   
    52   29   54 1   
    53   29   55 1   
    54   30   31 1   
    55   30   32 2   
    56   31   34 1   
    57   32   33 1   
    58   32   56 1   
    59   33   34 2   
    60   33   57 1   
    61   34   35 1   
@<TRIPOS>SUBSTRUCTURE
     1 GSV         1 TEMP              0 ****  ****    0 ROOT
