@<TRIPOS>MOLECULE
GSV
   58    61     1     0     0
SMALL
bcc


@<TRIPOS>ATOM
      1 C35         0.3570    0.1810   -1.0140 c3        1 GSV     -0.362300
      2 S32         1.8500   -0.1870   -0.3140 sy        1 GSV      1.393300
      3 O37         1.6850   -0.3380    1.0720 o         1 GSV     -0.656300
      4 O36         2.8050    0.7450   -0.7390 o         1 GSV     -0.656300
      5 C29         2.1530   -1.6830   -1.0400 ca        1 GSV     -0.356500
      6 C31         3.1700   -1.7170   -2.0070 ca        1 GSV     -0.031000
      7 C34         3.5110   -2.8910   -2.6730 ca        1 GSV     -0.137000
      8 C33         2.8270   -4.0700   -2.3830 ca        1 GSV     -0.063000
      9 C30         1.8140   -4.0640   -1.4260 ca        1 GSV     -0.143000
     10 C28         1.4800   -2.8840   -0.7490 cp        1 GSV      0.055000
     11 C27         0.4110   -2.9690    0.2580 cp        1 GSV     -0.037000
     12 C26         0.7050   -2.8310    1.6170 ca        1 GSV     -0.092000
     13 C22        -0.3160   -2.9620    2.5740 ca        1 GSV      0.128900
     14 F          -0.0090   -2.8340    3.8870 f         1 GSV     -0.133900
     15 C24        -0.9020   -3.2460   -0.1450 ca        1 GSV     -0.122000
     16 C21        -1.9240   -3.3640    0.7900 ca        1 GSV     -0.092000
     17 C15        -1.6550   -3.2180    2.1640 ca        1 GSV     -0.016400
     18 N2         -2.7030   -3.3070    3.1140 n         1 GSV     -0.344000
     19 C50        -3.2980   -4.4700    3.5340 c         1 GSV      0.696500
     20 O3         -3.1430   -5.6310    3.1230 o         1 GSV     -0.632500
     21 C14        -3.0670   -2.1600    3.9390 c3        1 GSV      0.084000
     22 C13        -3.9780   -2.6830    5.0710 c3        1 GSV     -0.110400
     23 C12        -4.2940   -4.1430    4.6940 c3        1 GSV      0.013500
     24 N1         -4.1730   -5.1320    5.7880 ny        1 GSV     -0.683900
     25 S1         -5.3900   -6.6380    5.6650 s6        1 GSV      1.405900
     26 O2         -5.6850   -6.7650    7.0060 o         1 GSV     -0.557800
     27 O1         -6.3380   -6.1890    4.7770 o         1 GSV     -0.557800
     28 C6         -4.3360   -7.7610    5.0930 c3        1 GSV     -0.436600
     29 C5         -5.0560   -9.0660    4.7170 c3        1 GSV      0.049900
     30 C4         -4.1120  -10.0520    4.1790 cc        1 GSV     -0.186400
     31 S2         -3.7600  -11.4980    4.9440 ss        1 GSV      0.096200
     32 C3         -3.4310   -9.9360    2.9770 cd        1 GSV     -0.120000
     33 C2         -2.6120  -11.0710    2.7200 cd        1 GSV     -0.150000
     34 C1         -2.7080  -12.0070    3.7390 cc        1 GSV     -0.014700
     35 Cl         -1.9000  -13.4630    3.7870 cl        1 GSV      0.007600
     36 H351       -0.3780   -0.6600   -0.9630 h1        1 GSV      0.117367
     37 H352       -0.1260    1.0530   -0.5040 h1        1 GSV      0.117367
     38 H353        0.4420    0.4640   -2.0930 h1        1 GSV      0.117367
     39 H31         3.7200   -0.7830   -2.2410 ha        1 GSV      0.176000
     40 H34         4.3160   -2.8850   -3.4240 ha        1 GSV      0.155000
     41 H33         3.0850   -5.0050   -2.9050 ha        1 GSV      0.149000
     42 H30         1.2740   -4.9950   -1.1930 ha        1 GSV      0.144000
     43 H26         1.7260   -2.5800    1.9540 ha        1 GSV      0.194000
     44 H24        -1.1290   -3.3700   -1.2160 ha        1 GSV      0.158000
     45 H21        -2.9490   -3.5780    0.4470 ha        1 GSV      0.155000
     46 H141       -2.1390   -1.6770    4.3560 h1        1 GSV      0.092200
     47 H142       -3.6120   -1.4070    3.3050 h1        1 GSV      0.092200
     48 H12        -5.3470   -4.2070    4.2790 hx        1 GSV      0.150700
     49 H131       -4.9180   -2.0810    5.1250 hc        1 GSV      0.087700
     50 H132       -3.4520   -2.5950    6.0540 hc        1 GSV      0.087700
     51 H1         -4.3520   -4.6590    6.6760 hn        1 GSV      0.451300
     52 H6C1       -3.7710   -7.4520    4.1540 h1        1 GSV      0.186700
     53 H6C2       -3.5180   -8.0460    5.8170 h1        1 GSV      0.186700
     54 H5C1       -5.5700   -9.4780    5.6290 hc        1 GSV      0.075200
     55 H5C2       -5.8400   -8.8360    3.9400 hc        1 GSV      0.075200
     56 H3         -3.5060   -9.0880    2.2910 ha        1 GSV      0.161000
     57 H2         -1.9950  -11.1810    1.8240 ha        1 GSV      0.179000
     58 H121       -3.2100   -5.4670    5.8180 hn        1 GSV      0.451300
@<TRIPOS>BOND
     1    1    2 1   
     2    1   36 1   
     3    1   37 1   
     4    1   38 1   
     5    2    3 2   
     6    2    4 2   
     7    2    5 1   
     8    5    6 ar  
     9    5   10 ar  
    10    6    7 ar  
    11    6   39 1   
    12    7    8 ar  
    13    7   40 1   
    14    8    9 ar  
    15    8   41 1   
    16    9   10 ar  
    17    9   42 1   
    18   10   11 1   
    19   11   12 ar  
    20   11   15 ar  
    21   12   13 ar  
    22   12   43 1   
    23   13   14 1   
    24   13   17 ar  
    25   15   16 ar  
    26   15   44 1   
    27   16   17 ar  
    28   16   45 1   
    29   17   18 1   
    30   18   19 1   
    31   18   21 1   
    32   19   20 2   
    33   19   23 1   
    34   21   22 1   
    35   21   46 1   
    36   21   47 1   
    37   22   23 1   
    38   22   49 1   
    39   22   50 1   
    40   23   24 1   
    41   23   48 1   
    42   24   25 1   
    43   24   51 1   
    44   24   58 1   
    45   25   26 2   
    46   25   27 2   
    47   25   28 1   
    48   28   29 1   
    49   28   52 1   
    50   28   53 1   
    51   29   30 1   
    52   29   54 1   
    53   29   55 1   
    54   30   31 1   
    55   30   32 2   
    56   31   34 1   
    57   32   33 1   
    58   32   56 1   
    59   33   34 2   
    60   33   57 1   
    61   34   35 1   
@<TRIPOS>SUBSTRUCTURE
     1 GSV         1 TEMP              0 ****  ****    0 ROOT
