@<TRIPOS>MOLECULE
GSV
   57    49     1     0     0
SMALL
bcc


@<TRIPOS>ATOM
      1 C35        -1.4550    1.9360   -6.4640 c3        1 GSV     -0.941000
      2 S32        -0.7540    0.6610   -5.4410 s4        1 GSV      2.066800
      3 O37        -0.8620    0.9970   -4.0280 o         1 GSV     -0.537900
      4 O36         0.6200    0.5950   -5.5930 o         1 GSV     -0.537900
      5 C29        -1.5300   -0.9220   -5.7980 c1        1 GSV     -0.349500
      6 C31        -2.1730   -1.1240   -7.0120 c1        1 GSV     -0.090500
      7 C34        -2.7010   -2.3650   -7.3160 c1        1 GSV     -0.110500
      8 C33        -2.5900   -3.4150   -6.4030 c1        1 GSV     -0.110500
      9 C30        -1.9500   -3.2160   -5.1940 c1        1 GSV     -0.090500
     10 C28        -1.4200   -1.9720   -4.8880 c1        1 GSV     -0.349500
     11 C27        -0.7750   -1.7720   -3.6660 c1        1 GSV     -0.098000
     12 C26         0.5730   -2.0790   -3.5380 c1        1 GSV     -0.102000
     13 C22         1.1680   -2.0580   -2.3050 c1        1 GSV      0.037000
     14 F           2.4410   -2.2870   -2.1980 f         1 GSV     -0.112000
     15 C24        -1.5090   -1.4490   -2.5590 c1        1 GSV     -0.092000
     16 C21        -0.9080   -1.4270   -1.3120 c1        1 GSV     -0.139000
     17 C15         0.4320   -1.7330   -1.1890 c2        1 GSV      0.078000
     18 N2          1.0480   -1.8430    0.1550 n         1 GSV     -0.277000
     19 C50         1.9150   -0.8100    0.8200 c2        1 GSV      0.286000
     20 O3          2.3630    0.2140    0.2900 o         1 GSV     -0.336000
     21 C14         1.1660   -3.0290    0.9190 c3        1 GSV     -0.032000
     22 C13         1.5500   -2.6160    2.3280 c3        1 GSV     -0.184000
     23 C12         1.8910   -1.1020    2.2810 c3        1 GSV      0.021000
     24 N1          0.9650   -0.2500    3.0440 n3        1 GSV     -0.870000
     25 S1          1.3840    0.2780    4.5880 s4        1 GSV      2.029800
     26 O2          2.8010    0.2410    4.7790 o         1 GSV     -0.536900
     27 O1          0.9340   -0.6600    5.6070 o         1 GSV     -0.536900
     28 C6          0.7270    1.9160    4.8830 c2        1 GSV     -0.878000
     29 C5          0.5630    2.1510    6.4370 c3        1 GSV     -0.059000
     30 C4          0.5510    3.6400    6.7240 c2        1 GSV     -0.376000
     31 S2          0.3440    4.7660    5.6870 ss        1 GSV      0.608000
     32 C3          0.6350    4.2570    8.0480 c1        1 GSV     -0.150000
     33 C2          0.4780    5.8380    7.8770 c1        1 GSV     -0.148000
     34 C1          0.3050    6.1290    6.4680 c1        1 GSV     -0.386000
     35 CL         -0.0830    7.7020    5.7760 cl        1 GSV      0.045000
     36 H351       -1.2870    1.7340   -7.3760 h1        1 GSV      0.155000
     37 H352       -1.0460    2.8000   -6.2390 h1        1 GSV      0.155000
     38 H353       -2.4280    1.9860   -6.3110 h1        1 GSV      0.155000
     39 H31        -2.2510   -0.4090   -7.6340 ha        1 GSV      0.141000
     40 H34        -3.1320   -2.5010   -8.1310 ha        1 GSV      0.141500
     41 H33        -2.9840   -4.3360   -6.6310 ha        1 GSV      0.141500
     42 H30        -1.8740   -3.9450   -4.5600 ha        1 GSV      0.141000
     43 H26         1.0650   -2.4350   -4.3080 ha        1 GSV      0.155000
     44 H24        -2.4090   -1.2480   -2.6430 ha        1 GSV      0.173000
     45 H21        -1.4330   -1.1950   -0.5190 ha        1 GSV      0.181000
     46 H141        0.2840   -3.5220    0.9280 h1        1 GSV      0.107500
     47 H142        1.8750   -3.6120    0.5330 h1        1 GSV      0.107500
     48 H12         2.7440   -0.9040    2.7100 h1        1 GSV      0.154000
     49 H131        2.3550   -3.1420    2.6300 hc        1 GSV      0.111000
     50 H132        0.7980   -2.7720    2.9410 hc        1 GSV      0.111000
     51 H1          0.1260   -0.0230    2.6790 hn        1 GSV      0.247000
     52 H6C1        1.3010    2.5380    4.5390 ha        1 GSV      0.172000
     53 H6C2       -0.1550    2.0020    4.4430 ha        1 GSV      0.172000
     54 H5C1        1.2920    1.7420    6.9010 hc        1 GSV      0.108500
     55 H5C2       -0.2490    1.7700    6.7310 hc        1 GSV      0.108500
     56 H3          0.7650    3.7760    8.9060 DU        1 GSV      0.160000
     57 H2          0.4960    6.5040    8.6080 DU        1 GSV      0.160000
@<TRIPOS>BOND
     1    1    2 1   
     2    1   36 1   
     3    1   37 1   
     4    1   38 1   
     5    2    3 1   
     6    2    4 1   
     7    5    6 1   
     8    5   10 1   
     9    6   39 1   
    10    7    8 1   
    11    7   40 1   
    12    8   41 1   
    13    9   10 1   
    14    9   42 1   
    15   11   15 1   
    16   12   13 1   
    17   12   43 1   
    18   13   17 1   
    19   15   44 1   
    20   16   17 1   
    21   16   45 1   
    22   17   18 1   
    23   18   19 1   
    24   18   21 1   
    25   19   20 1   
    26   19   23 1   
    27   21   22 1   
    28   21   46 1   
    29   21   47 1   
    30   22   23 1   
    31   22   49 1   
    32   22   50 1   
    33   23   24 1   
    34   23   48 1   
    35   24   25 1   
    36   24   51 1   
    37   25   26 1   
    38   25   27 1   
    39   28   29 1   
    40   28   52 1   
    41   28   53 1   
    42   29   30 1   
    43   29   54 1   
    44   29   55 1   
    45   30   31 1   
    46   30   32 1   
    47   31   34 1   
    48   32   33 1   
    49   33   34 1   
@<TRIPOS>SUBSTRUCTURE
     1 GSV         1 TEMP              0 ****  ****    0 ROOT
