@<TRIPOS>MOLECULE
GSV
   57    60     1     0     0
SMALL
bcc


@<TRIPOS>ATOM
      1 C35         5.8580    0.3790   17.5660 c3        1 GSV     -0.363300
      2 S32         6.3380    0.7190   15.9810 sy        1 GSV      1.391300
      3 O37         5.7680    1.9290   15.5610 o         1 GSV     -0.659800
      4 O36         6.0660   -0.4030   15.1780 o         1 GSV     -0.659800
      5 C29         8.0070    0.8740   16.1810 ca        1 GSV     -0.361500
      6 C31         8.8040   -0.0730   15.5140 ca        1 GSV     -0.036000
      7 C34        10.1920   -0.0430   15.5850 ca        1 GSV     -0.150000
      8 C33        10.8220    0.9470   16.3400 ca        1 GSV     -0.067000
      9 C30        10.0550    1.8930   17.0120 ca        1 GSV     -0.148000
     10 C28         8.6540    1.8690   16.9340 cp        1 GSV      0.086000
     11 C27         7.9330    2.9080   17.6810 cp        1 GSV     -0.099000
     12 C26         7.1950    3.8930   17.0260 ca        1 GSV     -0.097000
     13 C22         6.5810    4.9270   17.7540 ca        1 GSV      0.086900
     14 F           5.8920    5.8680   17.0620 f         1 GSV     -0.136900
     15 C24         8.0510    2.9580   19.0770 ca        1 GSV     -0.105000
     16 C21         7.4310    3.9590   19.8100 ca        1 GSV     -0.144000
     17 C15         6.6790    4.9770   19.1770 ca        1 GSV      0.056600
     18 N2          6.0690    5.9930   19.9300 n         1 GSV     -0.374000
     19 C50         6.3930    6.3480   21.2390 c         1 GSV      0.677500
     20 O3          7.3650    5.9470   21.8940 o         1 GSV     -0.618500
     21 C14         4.8650    6.6750   19.4710 c3        1 GSV      0.082000
     22 C13         4.3100    7.4930   20.6500 c3        1 GSV     -0.106400
     23 C12         5.3390    7.3550   21.7940 c3        1 GSV      0.170500
     24 N1          5.9340    8.5750   22.2360 n3        1 GSV     -0.899100
     25 S1          6.1910    8.9550   23.7970 s6        1 GSV      1.460900
     26 O2          6.2190   10.3590   23.9100 o         1 GSV     -0.646300
     27 O1          5.2820    8.2560   24.6150 o         1 GSV     -0.646300
     28 C6          7.7740    8.3610   24.0850 c3        1 GSV     -0.342600
     29 C5          8.1200    8.4310   25.5590 c3        1 GSV      0.021900
     30 C4          9.4670    7.9210   25.8580 cc        1 GSV     -0.108400
     31 S2         10.3540    6.9420   24.8230 ss        1 GSV      0.062200
     32 C3         10.1570    8.1700   27.0310 cd        1 GSV     -0.154000
     33 C2         11.4310    7.5280   27.0490 cd        1 GSV     -0.143000
     34 C1         11.6540    6.8190   25.8830 cc        1 GSV     -0.042700
     35 CL         13.0330    5.9390   25.5360 cl        1 GSV     -0.036400
     36 H351        6.3350    1.0410   18.3310 h1        1 GSV      0.118033
     37 H352        4.7530    0.5070   17.6890 h1        1 GSV      0.118033
     38 H353        6.0870   -0.6730   17.8670 h1        1 GSV      0.118033
     39 H31         8.3100   -0.8620   14.9140 ha        1 GSV      0.170000
     40 H34        10.7880   -0.7960   15.0480 ha        1 GSV      0.146000
     41 H33        11.9200    0.9800   16.4040 ha        1 GSV      0.141000
     42 H30        10.5470    2.6770   17.6100 ha        1 GSV      0.147000
     43 H26         7.0610    3.8670   15.9290 ha        1 GSV      0.187000
     44 H24         8.6430    2.1920   19.6020 ha        1 GSV      0.146000
     45 H21         7.5470    3.9620   20.9080 ha        1 GSV      0.172000
     46 H141        5.1260    7.3570   18.6140 h1        1 GSV      0.069700
     47 H142        4.1130    5.9240   19.1050 h1        1 GSV      0.069700
     48 H12         4.8500    6.8490   22.6830 h1        1 GSV      0.112700
     49 H131        4.1510    8.5540   20.3400 hc        1 GSV      0.074200
     50 H132        3.3250    7.0820   20.9820 hc        1 GSV      0.074200
     51 H1          6.1800    9.1980   21.5040 hn        1 GSV      0.454800
     52 H6C1        7.8950    7.2950   23.7350 h1        1 GSV      0.129200
     53 H6C2        8.5400    8.9490   23.5120 h1        1 GSV      0.129200
     54 H5C1        8.0450    9.5010   25.9060 hc        1 GSV      0.074700
     55 H5C2        7.3630    7.8340   26.1450 hc        1 GSV      0.074700
     56 H3          9.7870    8.7830   27.8550 ha        1 GSV      0.158000
     57 H2         12.1280    7.6000   27.8860 ha        1 GSV      0.163000
@<TRIPOS>BOND
     1    1    2 1   
     2    1   36 1   
     3    1   37 1   
     4    1   38 1   
     5    2    3 2   
     6    2    4 2   
     7    2    5 1   
     8    5    6 ar  
     9    5   10 ar  
    10    6    7 ar  
    11    6   39 1   
    12    7    8 ar  
    13    7   40 1   
    14    8    9 ar  
    15    8   41 1   
    16    9   10 ar  
    17    9   42 1   
    18   10   11 1   
    19   11   12 ar  
    20   11   15 ar  
    21   12   13 ar  
    22   12   43 1   
    23   13   14 1   
    24   13   17 ar  
    25   15   16 ar  
    26   15   44 1   
    27   16   17 ar  
    28   16   45 1   
    29   17   18 1   
    30   18   19 1   
    31   18   21 1   
    32   19   20 2   
    33   19   23 1   
    34   21   22 1   
    35   21   46 1   
    36   21   47 1   
    37   22   23 1   
    38   22   49 1   
    39   22   50 1   
    40   23   24 1   
    41   23   48 1   
    42   24   25 1   
    43   24   51 1   
    44   25   26 2   
    45   25   27 2   
    46   25   28 1   
    47   28   29 1   
    48   28   52 1   
    49   28   53 1   
    50   29   30 1   
    51   29   54 1   
    52   29   55 1   
    53   30   31 1   
    54   30   32 2   
    55   31   34 1   
    56   32   33 1   
    57   32   56 1   
    58   33   34 2   
    59   33   57 1   
    60   34   35 1   
@<TRIPOS>SUBSTRUCTURE
     1 GSV         1 TEMP              0 ****  ****    0 ROOT
