@<TRIPOS>MOLECULE
GSW
   38    37     1     0     0
SMALL
bcc


@<TRIPOS>ATOM
      1 O12         5.1650    1.5310    1.4690 o         1 GSW     -0.821800
      2 C1          4.2940    1.4810    2.3760 c         1 GSW      0.938600
      3 O11         4.5800    1.2470    3.5880 o         1 GSW     -0.821800
      4 CA1         2.8130    1.7880    1.9960 c3        1 GSW      0.014500
      5 N1          2.8200    2.6160    0.7440 nz        1 GSW     -0.835600
      6 CB1         2.0550    2.5150    3.1110 c3        1 GSW     -0.093400
      7 CG1         2.0110    1.7100    4.4000 c3        1 GSW     -0.135400
      8 CD1         2.5160    2.5270    5.5610 c         1 GSW      0.564100
      9 OE1         1.8600    3.2960    6.2480 o         1 GSW     -0.420100
     10 N2          3.9700    2.3750    5.9640 ny        1 GSW     -0.684800
     11 CA2         4.8390    3.4000    5.2920 c3        1 GSW      0.080500
     12 CB2         5.2700    4.5580    6.2140 c3        1 GSW     -0.080300
     13 SG2         4.6520    4.4980    7.8560 sh        1 GSW     -0.280900
     14 C2          6.1170    2.7450    4.7390 c         1 GSW      0.572100
     15 O2          6.7340    1.8640    5.3270 o         1 GSW     -0.437100
     16 N3          6.6690    3.2380    3.4480 ny        1 GSW     -0.640800
     17 CA3         6.5870    4.7100    3.2520 c3        1 GSW     -0.050200
     18 C3          5.1250    5.1740    2.9510 c         1 GSW      0.921600
     19 O31         4.7480    6.2360    3.4820 o         1 GSW     -0.805300
     20 O32         4.4060    4.3740    2.2750 o         1 GSW     -0.805300
     21 HA1         2.3100    0.8050    1.7600 hx        1 GSW      0.105700
     22 H1N1        3.0210    3.6020    0.9880 hn        1 GSW      0.473800
     23 H1N2        3.5990    2.2790    0.1520 hn        1 GSW      0.473800
     24 HB11        0.9980    2.7060    2.7790 hc        1 GSW      0.087200
     25 HB12        2.5340    3.5220    3.2760 hc        1 GSW      0.087200
     26 HG11        2.5870    0.7480    4.2980 hc        1 GSW      0.122200
     27 HG12        0.9430    1.4470    4.6490 hc        1 GSW      0.122200
     28 H2          4.0560    2.5130    7.0010 hn        1 GSW      0.491300
     29 HA2         4.2250    3.8130    4.4250 hx        1 GSW      0.170700
     30 HB21        6.3860    4.5480    6.3400 h1        1 GSW      0.138200
     31 HB22        5.0080    5.5190    5.6840 h1        1 GSW      0.138200
     32 H3          6.1190    2.7940    2.6680 hn        1 GSW      0.495300
     33 HA31        7.2240    4.9750    2.3630 hx        1 GSW      0.106700
     34 HA32        6.9780    5.2380    4.1620 hx        1 GSW      0.106700
     35 HS1         3.5380    5.2150    7.7210 hs        1 GSW      0.239800
     36 H13         1.9350    2.5460    0.2500 hn        1 GSW      0.473800
     37 H22         4.2930    1.4300    5.6910 hn        1 GSW      0.491300
     38 H32         7.6410    2.9130    3.3690 hn        1 GSW      0.495300
@<TRIPOS>BOND
     1    1    2 1   
     2    2    3 1   
     3    2    4 1   
     4    4    5 1   
     5    4    6 1   
     6    4   21 1   
     7    5   22 1   
     8    5   23 1   
     9    5   36 1   
    10    6    7 1   
    11    6   24 1   
    12    6   25 1   
    13    7    8 1   
    14    7   26 1   
    15    7   27 1   
    16    8    9 2   
    17    8   10 1   
    18   10   11 1   
    19   10   28 1   
    20   10   37 1   
    21   11   12 1   
    22   11   14 1   
    23   11   29 1   
    24   12   13 1   
    25   12   30 1   
    26   12   31 1   
    27   13   35 1   
    28   14   15 2   
    29   14   16 1   
    30   16   17 1   
    31   16   32 1   
    32   16   38 1   
    33   17   18 1   
    34   17   33 1   
    35   17   34 1   
    36   18   19 1   
    37   18   20 1   
@<TRIPOS>SUBSTRUCTURE
     1 GSW         1 TEMP              0 ****  ****    0 ROOT
