@<TRIPOS>MOLECULE
GSW
   38    37     1     0     0
SMALL
bcc


@<TRIPOS>ATOM
      1 O12         1.8060    2.6570    0.3290 o         1 GSW     -0.778800
      2 C1          2.3160    2.2970    1.4060 c         1 GSW      0.952600
      3 O11         2.8160    3.0000    2.3210 o         1 GSW     -0.778800
      4 CA1         2.3510    0.7240    1.6890 c3        1 GSW     -0.079500
      5 N1          1.4390    0.0410    0.7250 n4        1 GSW     -0.825600
      6 CB1         2.0040    0.4630    3.1520 c3        1 GSW     -0.076400
      7 CG1         3.2350    0.4130    4.0360 c3        1 GSW     -0.148400
      8 CD1         4.1360    1.6150    3.8900 c         1 GSW      0.586100
      9 OE1         5.1140    1.6770    3.1600 o         1 GSW     -0.429100
     10 N2          3.8240    2.7800    4.7880 n4        1 GSW     -0.666800
     11 CA2         4.5540    4.0400    4.4250 c3        1 GSW      0.046500
     12 CB2         3.7300    5.2900    4.7540 c3        1 GSW     -0.040300
     13 SG2         1.9920    5.0670    4.5660 sh        1 GSW     -0.333900
     14 C2          5.8930    4.1300    5.1950 c         1 GSW      0.651100
     15 O2          6.0890    3.3900    6.1810 o         1 GSW     -0.602100
     16 N3          6.8280    5.0090    4.7030 n         1 GSW     -0.500900
     17 CA3         7.9680    5.3910    5.4940 c3        1 GSW     -0.022000
     18 C3          7.7810    6.7080    6.2300 c         1 GSW      0.598100
     19 O31         6.7940    7.4400    6.1730 o         1 GSW     -0.489000
     20 O32         8.7800    7.1560    7.0340 oh        1 GSW     -0.546100
     21 HA1         3.4030    0.3860    1.4630 hx        1 GSW      0.111700
     22 H1N1        0.5150   -0.0960    1.1370 hn        1 GSW      0.460467
     23 H1N2        1.8170   -0.8560    0.4250 hn        1 GSW      0.460467
     24 HB11        1.4660   -0.5150    3.2850 hc        1 GSW      0.075700
     25 HB12        1.3170    1.2790    3.5090 hc        1 GSW      0.075700
     26 HG11        2.9090    0.2860    5.1050 hc        1 GSW      0.101200
     27 HG12        3.8640   -0.4830    3.7670 hc        1 GSW      0.101200
     28 H2          2.7950    3.0040    4.6880 hn        1 GSW      0.484300
     29 HA2         4.7330    3.9940    3.3020 hx        1 GSW      0.165700
     30 HB21        3.8690    5.5900    5.8270 h1        1 GSW      0.120200
     31 HB22        4.1110    6.1290    4.1190 h1        1 GSW      0.120200
     32 H3          6.5350    5.6710    4.0170 hn        1 GSW      0.332500
     33 HA31        8.1930    4.5810    6.2490 h1        1 GSW      0.108200
     34 HA32        8.8530    5.4980    4.8000 h1        1 GSW      0.108200
     35 HS1         1.9020    4.9960    3.2290 hs        1 GSW      0.273800
     36 H13         1.3420    0.6810   -0.0950 hn        1 GSW      0.460467
     37 H22         4.0500    2.5260    5.7600 hn        1 GSW      0.484300
     38 H32         9.5200    6.5310    7.0350 ho        1 GSW      0.436000
@<TRIPOS>BOND
     1    1    2 1   
     2    2    3 1   
     3    2    4 1   
     4    4    5 1   
     5    4    6 1   
     6    4   21 1   
     7    5   22 1   
     8    5   23 1   
     9    5   36 1   
    10    6    7 1   
    11    6   24 1   
    12    6   25 1   
    13    7    8 1   
    14    7   26 1   
    15    7   27 1   
    16    8    9 2   
    17    8   10 1   
    18   10   11 1   
    19   10   28 1   
    20   10   37 1   
    21   11   12 1   
    22   11   14 1   
    23   11   29 1   
    24   12   13 1   
    25   12   30 1   
    26   12   31 1   
    27   13   35 1   
    28   14   15 2   
    29   14   16 1   
    30   16   17 1   
    31   16   32 1   
    32   17   18 1   
    33   17   33 1   
    34   17   34 1   
    35   18   19 2   
    36   18   20 1   
    37   20   38 1   
@<TRIPOS>SUBSTRUCTURE
     1 GSW         1 TEMP              0 ****  ****    0 ROOT
