@<TRIPOS>MOLECULE
GSW
   38    37     1     0     0
SMALL
bcc


@<TRIPOS>ATOM
      1 O12        -0.1890    1.0420    3.1280 o         1 GSW     -0.766800
      2 C1          0.9920    1.4280    3.2090 c         1 GSW      0.953600
      3 O11         1.4710    2.4340    3.7820 o         1 GSW     -0.766800
      4 CA1         2.0720    0.5020    2.4450 c3        1 GSW     -0.091500
      5 N1          1.4610   -0.8430    2.2360 n4        1 GSW     -0.824600
      6 CB1         3.3880    0.4720    3.2110 c3        1 GSW     -0.089400
      7 CG1         4.5060    1.2230    2.5180 c3        1 GSW     -0.159400
      8 CD1         4.2130    2.6520    2.1510 c         1 GSW      0.562100
      9 OE1         4.3410    3.1430    1.0360 o         1 GSW     -0.434100
     10 N2          3.7560    3.5620    3.2480 n4        1 GSW     -0.671800
     11 CA2         4.6650    4.7230    3.4930 c3        1 GSW      0.049500
     12 CB2         3.9300    5.8700    4.1990 c3        1 GSW     -0.062300
     13 SG2         2.3060    6.0960    3.5480 sh        1 GSW     -0.292900
     14 C2          5.8840    4.2930    4.3460 c         1 GSW      0.647100
     15 O2          6.0210    3.0990    4.6800 o         1 GSW     -0.599100
     16 N3          6.8150    5.2680    4.6410 n         1 GSW     -0.493900
     17 CA3         7.6820    5.1020    5.7800 c3        1 GSW     -0.027000
     18 C3          7.0270    5.5070    7.0930 c         1 GSW      0.599100
     19 O31         5.8560    5.8660    7.2300 o         1 GSW     -0.501000
     20 O32         7.7570    5.4800    8.2350 oh        1 GSW     -0.540100
     21 HA1         2.2090    0.9640    1.4270 hx        1 GSW      0.094700
     22 H1N1        0.4270   -0.6940    2.1970 hn        1 GSW      0.459467
     23 H1N2        1.7860   -1.2760    1.3740 hn        1 GSW      0.459467
     24 HB11        3.7600   -0.5780    3.3710 hc        1 GSW      0.086200
     25 HB12        3.2090    0.9030    4.2370 hc        1 GSW      0.086200
     26 HG11        4.7940    0.6990    1.5640 hc        1 GSW      0.118200
     27 HG12        5.4110    1.2320    3.1970 hc        1 GSW      0.118200
     28 H2          3.6390    3.0090    4.1130 hn        1 GSW      0.504800
     29 HA2         5.0290    5.0790    2.4790 hx        1 GSW      0.139700
     30 HB21        3.9290    5.7190    5.3090 h1        1 GSW      0.121700
     31 HB22        4.4930    6.8190    3.9920 h1        1 GSW      0.121700
     32 H3          8.6620    5.1860    8.0530 ho        1 GSW      0.439000
     33 HA31        7.9970    4.0200    5.8570 h1        1 GSW      0.111700
     34 HA32        8.5990    5.7390    5.6160 h1        1 GSW      0.111700
     35 HS1         1.5740    5.7580    4.6070 hs        1 GSW      0.249800
     36 H13         1.6650   -1.4550    3.0270 hn        1 GSW      0.459467
     37 H22         2.7920    3.9440    3.0100 hn        1 GSW      0.504800
     38 H32         6.5680    6.2130    4.4340 hn        1 GSW      0.324500
@<TRIPOS>BOND
     1    1    2 1   
     2    2    3 1   
     3    2    4 1   
     4    4    5 1   
     5    4    6 1   
     6    4   21 1   
     7    5   22 1   
     8    5   23 1   
     9    5   36 1   
    10    6    7 1   
    11    6   24 1   
    12    6   25 1   
    13    7    8 1   
    14    7   26 1   
    15    7   27 1   
    16    8    9 2   
    17    8   10 1   
    18   10   11 1   
    19   10   28 1   
    20   10   37 1   
    21   11   12 1   
    22   11   14 1   
    23   11   29 1   
    24   12   13 1   
    25   12   30 1   
    26   12   31 1   
    27   13   35 1   
    28   14   15 2   
    29   14   16 1   
    30   16   17 1   
    31   16   38 1   
    32   17   18 1   
    33   17   33 1   
    34   17   34 1   
    35   18   19 2   
    36   18   20 1   
    37   20   32 1   
@<TRIPOS>SUBSTRUCTURE
     1 GSW         1 TEMP              0 ****  ****    0 ROOT
