@<TRIPOS>MOLECULE
GSW
   35    34     1     0     0
SMALL
bcc


@<TRIPOS>ATOM
      1 O12        -6.3030   -0.0530   -1.8910 o         1 GSW     -0.845300
      2 C1         -5.6200   -0.2980   -0.8550 c         1 GSW      0.888600
      3 O11        -5.7550   -1.3320   -0.1440 o         1 GSW     -0.845300
      4 CA1        -4.5700    0.7680   -0.3970 c3        1 GSW      0.019500
      5 N1         -4.4520    1.9150   -1.2890 n3        1 GSW     -0.895800
      6 CB1        -3.2350    0.0680   -0.1320 c3        1 GSW     -0.062400
      7 CG1        -2.2840    0.9670    0.6300 c3        1 GSW     -0.144400
      8 CD1        -0.9880    0.2770    1.0060 c         1 GSW      0.659100
      9 OE1        -0.7010    0.0270    2.1980 o         1 GSW     -0.648100
     10 N2         -0.1250   -0.0820   -0.0130 n         1 GSW     -0.563900
     11 CA2         1.2280   -0.5160    0.2250 c3        1 GSW      0.026700
     12 CB2         1.4430   -2.0110   -0.0380 c3        1 GSW      0.008700
     13 SG2         0.8120   -3.0800    1.2270 sh        1 GSW     -0.440900
     14 C2          2.2310    0.2400   -0.7000 c         1 GSW      0.623100
     15 O2          1.8590    0.6490   -1.8250 o         1 GSW     -0.656100
     16 N3          3.4840    0.4480   -0.2080 n         1 GSW     -0.514900
     17 CA3         4.5560    0.9840   -1.0070 c3        1 GSW     -0.049000
     18 C3          5.9730    0.6200   -0.4740 c         1 GSW      0.907600
     19 O31         6.9450    1.1000   -1.1190 o         1 GSW     -0.840300
     20 O32         6.0780   -0.1160    0.5480 o         1 GSW     -0.840300
     21 HA1        -4.9530    1.1730    0.5870 h1        1 GSW      0.040700
     22 H1N1       -3.9260    1.6390   -2.1000 hn        1 GSW      0.331800
     23 H1N2       -5.3800    2.1340   -1.6170 hn        1 GSW      0.331800
     24 HB11       -3.4590   -0.8570    0.4640 hc        1 GSW      0.056200
     25 HB12       -2.7700   -0.2560   -1.0990 hc        1 GSW      0.056200
     26 HG11       -2.0500    1.8830    0.0270 hc        1 GSW      0.067700
     27 HG12       -2.7710    1.3000    1.5850 hc        1 GSW      0.067700
     28 H2         -0.3380    0.1910   -0.9480 hn        1 GSW      0.332500
     29 HA2         1.4780   -0.3070    1.3110 h1        1 GSW      0.099700
     30 HB21        0.9990   -2.3010   -1.0210 h1        1 GSW      0.081700
     31 HB22        2.5420   -2.2250   -0.0720 h1        1 GSW      0.081700
     32 H3          3.7780   -0.0220    0.6240 hn        1 GSW      0.333500
     33 HA31        4.4690    0.6160   -2.0660 h1        1 GSW      0.039700
     34 HA32        4.4650    2.1050   -1.0270 h1        1 GSW      0.039700
     35 HS1        -0.2200   -2.3570    1.6600 hs        1 GSW      0.251800
@<TRIPOS>BOND
     1    1    2 1   
     2    2    3 1   
     3    2    4 1   
     4    4    5 1   
     5    4    6 1   
     6    4   21 1   
     7    5   22 1   
     8    5   23 1   
     9    6    7 1   
    10    6   24 1   
    11    6   25 1   
    12    7    8 1   
    13    7   26 1   
    14    7   27 1   
    15    8    9 2   
    16    8   10 1   
    17   10   11 1   
    18   10   28 1   
    19   11   12 1   
    20   11   14 1   
    21   11   29 1   
    22   12   13 1   
    23   12   30 1   
    24   12   31 1   
    25   13   35 1   
    26   14   15 2   
    27   14   16 1   
    28   16   17 1   
    29   16   32 1   
    30   17   18 1   
    31   17   33 1   
    32   17   34 1   
    33   18   19 1   
    34   18   20 1   
@<TRIPOS>SUBSTRUCTURE
     1 GSW         1 TEMP              0 ****  ****    0 ROOT
