@<TRIPOS>MOLECULE
GSW
   35    33     1     0     0
SMALL
bcc


@<TRIPOS>ATOM
      1 O12        -3.0950    4.7060   -2.5570 o         1 GSW     -0.569000
      2 C1         -1.8430    4.6300   -2.4030 c1        1 GSW      0.308000
      3 O11        -1.0700    4.8670   -3.3780 os        1 GSW     -0.591000
      4 CA1        -1.2600    4.3400   -1.0160 c3        1 GSW     -0.128000
      5 N1         -0.4450    5.4150   -0.6150 n3        1 GSW     -0.328000
      6 CB1        -0.4370    3.0780   -1.0670 c3        1 GSW     -0.141000
      7 CG1        -1.0090    2.0560   -0.0700 c3        1 GSW     -0.173000
      8 CD1        -0.0910    0.8070   -0.0220 c2        1 GSW      0.303000
      9 OE1         0.9930    0.8290   -0.5720 o         1 GSW     -0.409000
     10 N2         -0.5130   -0.3850    0.7180 n         1 GSW     -0.373000
     11 CA2         0.4260   -1.3820    1.0430 c3        1 GSW      0.000000
     12 CB2         0.4280   -1.6020    2.5430 c3        1 GSW     -0.252000
     13 SG2         2.0330   -1.1760    3.2060 sh        1 GSW     -0.087000
     14 C2          0.0490   -2.6860    0.3350 c2        1 GSW      0.267000
     15 O2         -1.1120   -2.9050    0.0410 o         1 GSW     -0.417000
     16 N3          1.0840   -3.6380   -0.0340 n         1 GSW     -0.324000
     17 CA3         0.7200   -4.9520   -0.5250 c3        1 GSW     -0.115000
     18 C3          1.9880   -5.7700   -0.7800 c2        1 GSW      0.327000
     19 O31         2.4240   -6.5510    0.1080 o         1 GSW     -0.575000
     20 O32         2.5860   -5.6820   -1.8950 o         1 GSW     -0.575000
     21 HA1        -1.9810    4.2290   -0.3810 h1        1 GSW      0.080000
     22 H1N1       -0.5970    6.1310   -1.1580 hn        1 GSW      0.127000
     23 H1N2       -0.6420    5.6400    0.2490 hn        1 GSW      0.127000
     24 HB11       -0.4660    2.7060   -1.9650 hc        1 GSW      0.095500
     25 HB12        0.4920    3.2840   -0.8270 hc        1 GSW      0.095500
     26 HG11       -1.9120    1.7890   -0.3580 hc        1 GSW      0.107000
     27 HG12       -1.0570    2.4640    0.8270 hc        1 GSW      0.107000
     28 H2         -1.3890   -0.5020    0.9290 hn        1 GSW      0.246000
     29 HA2         1.3200   -1.0970    0.7530 h1        1 GSW      0.139000
     30 HB21        0.2340   -2.5460    2.7370 h1        1 GSW      0.121000
     31 HB22       -0.2570   -1.0370    2.9570 h1        1 GSW      0.121000
     32 H3          1.9660   -3.4060    0.0380 hn        1 GSW      0.247000
     33 HA31        0.1660   -5.4060    0.1410 h1        1 GSW      0.079000
     34 HA32        0.2160   -4.8600   -1.3620 h1        1 GSW      0.079000
     35 HS1         2.0500   -1.3890    4.3600 hs        1 GSW      0.080000
@<TRIPOS>BOND
     1    1    2 1   
     2    2    4 1   
     3    4    5 1   
     4    4    6 1   
     5    4   21 1   
     6    5   22 1   
     7    5   23 1   
     8    6    7 1   
     9    6   24 1   
    10    6   25 1   
    11    7    8 1   
    12    7   26 1   
    13    7   27 1   
    14    8    9 1   
    15    8   10 1   
    16   10   11 1   
    17   10   28 1   
    18   11   12 1   
    19   11   14 1   
    20   11   29 1   
    21   12   13 1   
    22   12   30 1   
    23   12   31 1   
    24   13   35 1   
    25   14   15 1   
    26   14   16 1   
    27   16   17 1   
    28   16   32 1   
    29   17   18 1   
    30   17   33 1   
    31   17   34 1   
    32   18   19 1   
    33   18   20 1   
@<TRIPOS>SUBSTRUCTURE
     1 GSW         1 TEMP              0 ****  ****    0 ROOT
