@<TRIPOS>MOLECULE
GSX
   53    56     1     0     0
SMALL
bcc


@<TRIPOS>ATOM
      1 CL1        -9.9230   -1.5190   -2.3940 cl        1 GSX     -0.025400
      2 C1         -8.5250   -2.3560   -2.0260 cc        1 GSX     -0.038700
      3 C2         -7.7780   -3.0950   -2.9300 cd        1 GSX     -0.146000
      4 C3         -6.6440   -3.6860   -2.3070 cd        1 GSX     -0.140000
      5 C4         -6.5730   -3.3750   -0.9550 cc        1 GSX     -0.059100
      6 C9         -5.5670   -3.8060   -0.0410 cc        1 GSX     -0.038100
      7 C8         -5.1580   -3.1080    1.1070 cd        1 GSX     -0.186000
      8 C7         -4.1490   -3.8070    1.7900 cd        1 GSX     -0.025000
      9 C6         -3.8120   -5.0190    1.1550 cc        1 GSX     -0.521600
     10 S1         -2.6660   -6.0080    1.8290 sy        1 GSX      1.560200
     11 O2         -2.2850   -5.4710    3.0760 o         1 GSX     -0.656300
     12 O1         -3.1250   -7.3420    1.8230 o         1 GSX     -0.656300
     13 N1         -1.4120   -5.9400    0.7920 n3        1 GSX     -0.897100
     14 C12        -0.5230   -4.8340    0.6460 c3        1 GSX      0.179500
     15 C13         0.9210   -5.0710    1.1520 c3        1 GSX     -0.106400
     16 C14         1.8450   -4.5620    0.0340 c3        1 GSX      0.069000
     17 C15        -0.3400   -4.3870   -0.8340 c         1 GSX      0.681500
     18 O3         -1.2710   -4.1740   -1.6180 o         1 GSX     -0.605500
     19 N2          1.0260   -4.3360   -1.1510 n         1 GSX     -0.441800
     20 C16         1.5880   -3.5240   -2.2050 c3        1 GSX      0.060700
     21 C17         0.7300   -3.4760   -3.4690 c3        1 GSX     -0.102100
     22 C18         1.8670   -2.0610   -1.7670 c         1 GSX      0.629100
     23 O4          1.2660   -1.5590   -0.7950 o         1 GSX     -0.608100
     24 N3          2.8080   -1.3050   -2.4470 n         1 GSX     -0.473800
     25 C19         3.5000   -1.7270   -3.6400 c3        1 GSX      0.057500
     26 C20         4.9530   -1.2260   -3.6880 c3        1 GSX      0.112900
     27 O5          5.0410    0.1710   -3.4410 os        1 GSX     -0.408600
     28 C22         4.4570    0.5350   -2.1950 c3        1 GSX      0.112900
     29 C23         2.9910    0.0920   -2.1030 c3        1 GSX      0.057500
     30 S3         -4.7300   -5.2170   -0.1970 ss        1 GSX      0.320200
     31 S6         -7.8550   -2.3940   -0.4890 ss        1 GSX      0.094200
     32 H2         -8.0150   -3.2170   -3.9890 ha        1 GSX      0.167000
     33 H3         -5.9170   -4.2980   -2.8470 ha        1 GSX      0.162000
     34 H8         -5.5610   -2.1430    1.4240 ha        1 GSX      0.164000
     35 H7         -3.6760   -3.4600    2.7170 ha        1 GSX      0.181000
     36 H1         -1.2050   -6.7060    0.1950 hn        1 GSX      0.450800
     37 H12        -0.9610   -3.9440    1.1920 h1        1 GSX      0.096700
     38 H131        1.1210   -6.1510    1.3560 hc        1 GSX      0.070700
     39 H132        1.0960   -4.5010    2.0960 hc        1 GSX      0.070700
     40 H141        2.3580   -3.6100    0.3510 h1        1 GSX      0.054700
     41 H142        2.6320   -5.3250   -0.2170 h1        1 GSX      0.054700
     42 H16         2.5800   -4.0170   -2.4470 h1        1 GSX      0.066700
     43 H171       -0.2120   -2.9010   -3.2870 hc        1 GSX      0.060700
     44 H172        1.3070   -2.9850   -4.2880 hc        1 GSX      0.060700
     45 H173        0.4500   -4.5080   -3.7890 hc        1 GSX      0.060700
     46 H191        2.9550   -1.3220   -4.5430 h1        1 GSX      0.060950
     47 H192        3.5210   -2.8480   -3.7170 h1        1 GSX      0.060950
     48 H231        2.6190    0.2720   -1.0550 h1        1 GSX      0.060950
     49 H232        2.3780    0.7220   -2.8100 h1        1 GSX      0.060950
     50 H201        5.5870   -1.7800   -2.9460 h1        1 GSX      0.057700
     51 H202        5.3650   -1.3550   -4.7230 h1        1 GSX      0.057700
     52 H221        4.5190    1.6540   -2.1740 h1        1 GSX      0.057700
     53 H222        5.0600    0.0980   -1.3560 h1        1 GSX      0.057700
@<TRIPOS>BOND
     1    1    2 1   
     2    2    3 2   
     3    2   31 1   
     4    3    4 1   
     5    3   32 1   
     6    4    5 2   
     7    4   33 1   
     8    5    6 1   
     9    5   31 1   
    10    6    7 2   
    11    6   30 1   
    12    7    8 1   
    13    7   34 1   
    14    8    9 2   
    15    8   35 1   
    16    9   10 1   
    17    9   30 1   
    18   10   11 2   
    19   10   12 2   
    20   10   13 1   
    21   13   14 1   
    22   13   36 1   
    23   14   15 1   
    24   14   17 1   
    25   14   37 1   
    26   15   16 1   
    27   15   38 1   
    28   15   39 1   
    29   16   19 1   
    30   16   40 1   
    31   16   41 1   
    32   17   18 2   
    33   17   19 1   
    34   19   20 1   
    35   20   21 1   
    36   20   22 1   
    37   20   42 1   
    38   21   43 1   
    39   21   44 1   
    40   21   45 1   
    41   22   23 2   
    42   22   24 1   
    43   24   25 1   
    44   24   29 1   
    45   25   26 1   
    46   25   46 1   
    47   25   47 1   
    48   26   27 1   
    49   26   50 1   
    50   26   51 1   
    51   27   28 1   
    52   28   29 1   
    53   28   52 1   
    54   28   53 1   
    55   29   48 1   
    56   29   49 1   
@<TRIPOS>SUBSTRUCTURE
     1 GSX         1 TEMP              0 ****  ****    0 ROOT
