@<TRIPOS>MOLECULE
GSX
   54    56     1     0     0
SMALL
bcc


@<TRIPOS>ATOM
      1 Cl1         0.6090   -2.6830    0.0870 cl        1 GSX      0.026600
      2 C1          2.0680   -1.8840    0.0420 cc        1 GSX     -0.009700
      3 C2          2.6410   -1.2220    1.1290 cd        1 GSX     -0.154000
      4 C3          3.8780   -0.6380    0.7840 cd        1 GSX     -0.089000
      5 C4          4.2120   -0.8710   -0.5580 cc        1 GSX     -0.155100
      6 C9          5.3830   -0.4200   -1.2090 cc        1 GSX      0.038900
      7 C8          5.6920   -0.7060   -2.5810 cd        1 GSX     -0.182000
      8 C7          6.8860   -0.1380   -2.9540 cd        1 GSX     -0.004000
      9 C6          7.5220    0.6030   -1.8800 cc        1 GSX     -0.784600
     10 S1          8.8220    1.3430   -2.1400 s4        1 GSX      1.734300
     11 O2          9.2990    1.3490   -3.4170 o         1 GSX     -0.450900
     12 O1          9.2770    2.2350   -1.2230 o         1 GSX     -0.450900
     13 N1         10.5770   -0.2030   -1.5630 n8        1 GSX     -0.984800
     14 C12        10.2570   -1.4950   -0.9780 c3        1 GSX      0.055500
     15 C13        11.3910   -2.5410   -0.9440 c3        1 GSX     -0.114400
     16 C14        11.3360   -3.1590    0.4660 c3        1 GSX      0.068000
     17 C15         9.8010   -1.3770    0.5050 c         1 GSX      0.706500
     18 O3          8.9890   -0.5210    0.8850 o         1 GSX     -0.633500
     19 N2         10.4870   -2.3020    1.2910 n         1 GSX     -0.415800
     20 C16         9.9290   -2.8680    2.5040 c3        1 GSX      0.048700
     21 C17         9.5380   -1.8100    3.5340 c3        1 GSX     -0.106100
     22 C18         8.6840   -3.7550    2.2230 c         1 GSX      0.632100
     23 O4          8.0260   -3.5840    1.1710 o         1 GSX     -0.637100
     24 N3          8.3180   -4.7340    3.1180 n         1 GSX     -0.456800
     25 C19         8.9210   -4.9300    4.4160 c3        1 GSX      0.053000
     26 C20         8.9890   -6.4120    4.8220 c3        1 GSX      0.112400
     27 O5          7.7320   -7.0550    4.6700 os        1 GSX     -0.397600
     28 C22         7.2420   -6.9660    3.3370 c3        1 GSX      0.112400
     29 C23         7.1100   -5.5070    2.8820 c3        1 GSX      0.053000
     30 S3          6.5470    0.4730   -0.5250 ss        1 GSX      0.484200
     31 S6          3.0210   -1.7790   -1.3190 ss        1 GSX      0.174200
     32 H2          2.1920   -1.1590    2.1250 ha        1 GSX      0.187000
     33 H3          4.4960   -0.0770    1.4920 ha        1 GSX      0.166000
     34 H8          5.0460   -1.3030   -3.2340 ha        1 GSX      0.189000
     35 H7          7.3320   -0.2080   -3.9560 ha        1 GSX      0.191000
     36 H1         11.0810   -0.3400   -2.4260 hn        1 GSX      0.403800
     37 H12         9.3800   -1.9220   -1.5500 h1        1 GSX      0.104700
     38 H131       12.3930   -2.0800   -1.1230 hc        1 GSX      0.076200
     39 H132       11.2260   -3.3270   -1.7200 hc        1 GSX      0.076200
     40 H141       10.9260   -4.2050    0.4190 h1        1 GSX      0.071200
     41 H142       12.3590   -3.1940    0.9290 h1        1 GSX      0.071200
     42 H16        10.7540   -3.5150    2.9330 h1        1 GSX      0.083700
     43 H171        9.1860   -2.3170    4.4650 hc        1 GSX      0.065033
     44 H172        8.7210   -1.1550    3.1440 hc        1 GSX      0.065033
     45 H173       10.4180   -1.1690    3.7860 hc        1 GSX      0.065033
     46 H191        8.3070   -4.3780    5.1870 h1        1 GSX      0.062700
     47 H192        9.9660   -4.5180    4.4390 h1        1 GSX      0.062700
     48 H231        6.8620   -5.4870    1.7840 h1        1 GSX      0.062700
     49 H232        6.2610   -5.0250    3.4480 h1        1 GSX      0.062700
     50 H201        9.7670   -6.9520    4.2210 h1        1 GSX      0.065200
     51 H202        9.2180   -6.4950    5.9170 h1        1 GSX      0.065200
     52 H221        6.2290   -7.4460    3.3780 h1        1 GSX      0.065200
     53 H222        7.9150   -7.5410    2.6470 h1        1 GSX      0.065200
     54 H121       11.1570    0.3310   -0.9340 hn        1 GSX      0.403800
@<TRIPOS>BOND
     1    1    2 1   
     2    2    3 2   
     3    2   31 1   
     4    3    4 1   
     5    3   32 1   
     6    4    5 2   
     7    4   33 1   
     8    5    6 1   
     9    5   31 1   
    10    6    7 2   
    11    6   30 1   
    12    7    8 1   
    13    7   34 1   
    14    8    9 2   
    15    8   35 1   
    16    9   10 1   
    17    9   30 1   
    18   10   11 1   
    19   10   12 1   
    20   13   14 1   
    21   13   36 1   
    22   13   54 1   
    23   14   15 1   
    24   14   17 1   
    25   14   37 1   
    26   15   16 1   
    27   15   38 1   
    28   15   39 1   
    29   16   19 1   
    30   16   40 1   
    31   16   41 1   
    32   17   18 2   
    33   17   19 1   
    34   19   20 1   
    35   20   21 1   
    36   20   22 1   
    37   20   42 1   
    38   21   43 1   
    39   21   44 1   
    40   21   45 1   
    41   22   23 2   
    42   22   24 1   
    43   24   25 1   
    44   24   29 1   
    45   25   26 1   
    46   25   46 1   
    47   25   47 1   
    48   26   27 1   
    49   26   50 1   
    50   26   51 1   
    51   27   28 1   
    52   28   29 1   
    53   28   52 1   
    54   28   53 1   
    55   29   48 1   
    56   29   49 1   
@<TRIPOS>SUBSTRUCTURE
     1 GSX         1 TEMP              0 ****  ****    0 ROOT
