@<TRIPOS>MOLECULE
GSX
   54    56     1     0     0
SMALL
bcc


@<TRIPOS>ATOM
      1 CL1         0.6150   -2.6340    0.0790 cl        1 GSX      0.026600
      2 C1          2.0790   -1.8430    0.0390 cc        1 GSX     -0.009700
      3 C2          2.6540   -1.1880    1.1290 cd        1 GSX     -0.154000
      4 C3          3.8960   -0.6110    0.7880 cd        1 GSX     -0.089000
      5 C4          4.2290   -0.8410   -0.5550 cc        1 GSX     -0.155100
      6 C9          5.4050   -0.3950   -1.2030 cc        1 GSX      0.038900
      7 C8          5.7150   -0.6780   -2.5750 cd        1 GSX     -0.182000
      8 C7          6.9120   -0.1160   -2.9440 cd        1 GSX     -0.004000
      9 C6          7.5510    0.6180   -1.8670 cc        1 GSX     -0.784600
     10 S1          8.8550    1.3500   -2.1220 s4        1 GSX      1.734300
     11 O2          9.3350    1.3580   -3.3980 o         1 GSX     -0.450900
     12 O1          9.3150    2.2370   -1.2000 o         1 GSX     -0.450900
     13 N1         10.6000   -0.2080   -1.5460 n3        1 GSX     -0.984800
     14 C12        10.2710   -1.5010   -0.9680 c3        1 GSX      0.055500
     15 C13        11.3990   -2.5530   -0.9340 c3        1 GSX     -0.114400
     16 C14        11.3360   -3.1760    0.4730 c3        1 GSX      0.068000
     17 C15         9.8110   -1.3860    0.5140 c         1 GSX      0.706500
     18 O3          9.0040   -0.5260    0.8950 o         1 GSX     -0.632500
     19 N2         10.4890   -2.3180    1.2990 n         1 GSX     -0.415800
     20 C16         9.9220   -2.8870    2.5060 c3        1 GSX      0.048700
     21 C17         9.5350   -1.8310    3.5410 c3        1 GSX     -0.106100
     22 C18         8.6720   -3.7630    2.2160 c         1 GSX      0.632100
     23 O4          8.0190   -3.5820    1.1630 o         1 GSX     -0.637100
     24 N3          8.2950   -4.7450    3.1040 n         1 GSX     -0.456800
     25 C19         8.8910   -4.9510    4.4040 c3        1 GSX      0.053000
     26 C20         8.9460   -6.4360    4.8030 c3        1 GSX      0.112400
     27 O5          7.6860   -7.0690    4.6420 os        1 GSX     -0.397600
     28 C22         7.2020   -6.9690    3.3080 c3        1 GSX      0.112400
     29 C23         7.0820   -5.5070    2.8600 c3        1 GSX      0.053000
     30 S3          6.5720    0.4890   -0.5130 ss        1 GSX      0.484200
     31 S6          3.0350   -1.7390   -1.3210 ss        1 GSX      0.174200
     32 H2          2.2040   -1.1260    2.1250 ha        1 GSX      0.187000
     33 H3          4.5150   -0.0560    1.4980 ha        1 GSX      0.166000
     34 H8          5.0660   -1.2690   -3.2310 ha        1 GSX      0.189000
     35 H7          7.3590   -0.1850   -3.9450 ha        1 GSX      0.191000
     36 H1         11.1820    0.3210   -0.9140 hn        1 GSX      0.403800
     37 H12         9.3940   -1.9200   -1.5440 h1        1 GSX      0.104700
     38 H131       12.4050   -2.0960   -1.1070 hc        1 GSX      0.076200
     39 H132       11.2330   -3.3340   -1.7150 hc        1 GSX      0.076200
     40 H141       12.3570   -3.2200    0.9400 h1        1 GSX      0.071200
     41 H142       10.9190   -4.2200    0.4200 h1        1 GSX      0.071200
     42 H16        10.7410   -3.5420    2.9350 h1        1 GSX      0.083700
     43 H171       10.4190   -1.1990    3.8000 hc        1 GSX      0.065033
     44 H172        8.7250   -1.1680    3.1510 hc        1 GSX      0.065033
     45 H173        9.1760   -2.3410    4.4670 hc        1 GSX      0.065033
     46 H191        8.2780   -4.3980    5.1760 h1        1 GSX      0.062700
     47 H192        9.9400   -4.5470    4.4340 h1        1 GSX      0.062700
     48 H231        6.2350   -5.0210    3.4240 h1        1 GSX      0.062700
     49 H232        6.8390   -5.4800    1.7600 h1        1 GSX      0.062700
     50 H201        9.1700   -6.5260    5.8980 h1        1 GSX      0.065200
     51 H202        9.7240   -6.9780    4.2020 h1        1 GSX      0.065200
     52 H221        6.1850   -7.4420    3.3420 h1        1 GSX      0.065200
     53 H222        7.8730   -7.5450    2.6180 h1        1 GSX      0.065200
     54 H121       11.1060   -0.3440   -2.4090 hn        1 GSX      0.403800
@<TRIPOS>BOND
     1    1    2 1   
     2    2    3 2   
     3    2   31 1   
     4    3    4 1   
     5    3   32 1   
     6    4    5 2   
     7    4   33 1   
     8    5    6 1   
     9    5   31 1   
    10    6    7 2   
    11    6   30 1   
    12    7    8 1   
    13    7   34 1   
    14    8    9 2   
    15    8   35 1   
    16    9   10 1   
    17    9   30 1   
    18   10   11 1   
    19   10   12 1   
    20   13   14 1   
    21   13   36 1   
    22   13   54 1   
    23   14   15 1   
    24   14   17 1   
    25   14   37 1   
    26   15   16 1   
    27   15   38 1   
    28   15   39 1   
    29   16   19 1   
    30   16   40 1   
    31   16   41 1   
    32   17   18 2   
    33   17   19 1   
    34   19   20 1   
    35   20   21 1   
    36   20   22 1   
    37   20   42 1   
    38   21   43 1   
    39   21   44 1   
    40   21   45 1   
    41   22   23 2   
    42   22   24 1   
    43   24   25 1   
    44   24   29 1   
    45   25   26 1   
    46   25   46 1   
    47   25   47 1   
    48   26   27 1   
    49   26   50 1   
    50   26   51 1   
    51   27   28 1   
    52   28   29 1   
    53   28   52 1   
    54   28   53 1   
    55   29   48 1   
    56   29   49 1   
@<TRIPOS>SUBSTRUCTURE
     1 GSX         1 TEMP              0 ****  ****    0 ROOT
