@<TRIPOS>MOLECULE
GSX
   54    56     1     0     0
SMALL
bcc


@<TRIPOS>ATOM
      1 CL1         0.6080   -2.6750    0.0640 cl        1 GSX      0.026600
      2 C1          2.0670   -1.8750    0.0310 cc        1 GSX     -0.009700
      3 C2          2.6390   -1.2270    1.1260 cd        1 GSX     -0.154000
      4 C3          3.8780   -0.6390    0.7900 cd        1 GSX     -0.089000
      5 C4          4.2130   -0.8570   -0.5540 cc        1 GSX     -0.155100
      6 C9          5.3860   -0.3990   -1.1990 cc        1 GSX      0.038900
      7 C8          5.6970   -0.6700   -2.5730 cd        1 GSX     -0.182000
      8 C7          6.8910   -0.0980   -2.9370 cd        1 GSX     -0.004000
      9 C6          7.5260    0.6310   -1.8550 cc        1 GSX     -0.784600
     10 S1          8.8260    1.3730   -2.1040 s4        1 GSX      1.734300
     11 O2          9.3050    1.3920   -3.3800 o         1 GSX     -0.450900
     12 O1          9.2800    2.2560   -1.1770 o         1 GSX     -0.450900
     13 N1         10.5810   -0.1780   -1.5400 n3        1 GSX     -0.984800
     14 C12        10.2600   -1.4750   -0.9660 c3        1 GSX      0.055500
     15 C13        11.3960   -2.5200   -0.9370 c3        1 GSX     -0.114400
     16 C14        11.3380   -3.1480    0.4680 c3        1 GSX      0.068000
     17 C15         9.8000   -1.3690    0.5160 c         1 GSX      0.706500
     18 O3          8.9870   -0.5170    0.9010 o         1 GSX     -0.633500
     19 N2         10.4860   -2.2990    1.2980 n         1 GSX     -0.415800
     20 C16         9.9250   -2.8750    2.5050 c3        1 GSX      0.048700
     21 C17         9.5310   -1.8260    3.5420 c3        1 GSX     -0.106100
     22 C18         8.6820   -3.7610    2.2130 c         1 GSX      0.632100
     23 O4          8.0270   -3.5830    1.1610 o         1 GSX     -0.637100
     24 N3          8.3150   -4.7480    3.0990 n         1 GSX     -0.456800
     25 C19         8.9150   -4.9530    4.3990 c3        1 GSX      0.053000
     26 C20         8.9840   -6.4380    4.7930 c3        1 GSX      0.112400
     27 O5          7.7280   -7.0820    4.6320 os        1 GSX     -0.397600
     28 C22         7.2420   -6.9830    3.2990 c3        1 GSX      0.112400
     29 C23         7.1090   -5.5200    2.8550 c3        1 GSX      0.053000
     30 S3          6.5480    0.4870   -0.5030 ss        1 GSX      0.484200
     31 S6          3.0230   -1.7550   -1.3280 ss        1 GSX      0.173200
     32 H2          2.1890   -1.1750    2.1230 ha        1 GSX      0.187000
     33 H3          4.4950   -0.0870    1.5050 ha        1 GSX      0.166000
     34 H8          5.0520   -1.2600   -3.2330 ha        1 GSX      0.189000
     35 H7          7.3390   -0.1580   -3.9390 ha        1 GSX      0.191000
     36 H1         11.0850   -0.3070   -2.4040 hn        1 GSX      0.403800
     37 H12         9.3850   -1.8990   -1.5440 h1        1 GSX      0.104700
     38 H131       11.2340   -3.3000   -1.7200 hc        1 GSX      0.076200
     39 H132       12.3980   -2.0570   -1.1100 hc        1 GSX      0.076200
     40 H141       12.3610   -3.1850    0.9340 h1        1 GSX      0.071200
     41 H142       10.9300   -4.1950    0.4120 h1        1 GSX      0.071200
     42 H16        10.7510   -3.5240    2.9300 h1        1 GSX      0.083700
     43 H171        8.7140   -1.1690    3.1550 hc        1 GSX      0.065033
     44 H172       10.4090   -1.1860    3.8010 hc        1 GSX      0.065033
     45 H173        9.1770   -2.3410    4.4680 hc        1 GSX      0.065033
     46 H191        9.9600   -4.5400    4.4280 h1        1 GSX      0.062700
     47 H192        8.2980   -4.4070    5.1720 h1        1 GSX      0.062700
     48 H231        6.2580   -5.0440    3.4220 h1        1 GSX      0.062700
     49 H232        6.8640   -5.4930    1.7560 h1        1 GSX      0.062700
     50 H201        9.7640   -6.9720    4.1900 h1        1 GSX      0.065200
     51 H202        9.2100   -6.5290    5.8880 h1        1 GSX      0.065200
     52 H221        7.9170   -7.5510    2.6070 h1        1 GSX      0.065200
     53 H222        6.2290   -7.4640    3.3340 h1        1 GSX      0.065200
     54 H121       11.1600    0.3510   -0.9060 hn        1 GSX      0.403800
@<TRIPOS>BOND
     1    1    2 1   
     2    2    3 2   
     3    2   31 1   
     4    3    4 1   
     5    3   32 1   
     6    4    5 2   
     7    4   33 1   
     8    5    6 1   
     9    5   31 1   
    10    6    7 2   
    11    6   30 1   
    12    7    8 1   
    13    7   34 1   
    14    8    9 2   
    15    8   35 1   
    16    9   10 1   
    17    9   30 1   
    18   10   11 1   
    19   10   12 1   
    20   13   14 1   
    21   13   36 1   
    22   13   54 1   
    23   14   15 1   
    24   14   17 1   
    25   14   37 1   
    26   15   16 1   
    27   15   38 1   
    28   15   39 1   
    29   16   19 1   
    30   16   40 1   
    31   16   41 1   
    32   17   18 2   
    33   17   19 1   
    34   19   20 1   
    35   20   21 1   
    36   20   22 1   
    37   20   42 1   
    38   21   43 1   
    39   21   44 1   
    40   21   45 1   
    41   22   23 2   
    42   22   24 1   
    43   24   25 1   
    44   24   29 1   
    45   25   26 1   
    46   25   46 1   
    47   25   47 1   
    48   26   27 1   
    49   26   50 1   
    50   26   51 1   
    51   27   28 1   
    52   28   29 1   
    53   28   52 1   
    54   28   53 1   
    55   29   48 1   
    56   29   49 1   
@<TRIPOS>SUBSTRUCTURE
     1 GSX         1 TEMP              0 ****  ****    0 ROOT
