@<TRIPOS>MOLECULE
GSX
   53    50     1     0     0
SMALL
bcc


@<TRIPOS>ATOM
      1 CL1        -9.5530   -4.1620    3.1230 cl        1 GSX      0.054000
      2 C1         -8.3100   -3.1640    3.8380 c2        1 GSX     -0.388000
      3 C2         -8.0870   -2.9730    5.2490 c1        1 GSX     -0.144000
      4 C3         -6.9030   -1.9340    5.4310 c1        1 GSX     -0.144000
      5 C4         -6.4480   -1.5290    4.1160 c2        1 GSX     -0.329000
      6 C9         -5.4010   -0.6110    3.8390 c2        1 GSX     -0.303000
      7 C8         -5.5580    0.8030    3.5640 c1        1 GSX     -0.192000
      8 C7         -4.1320    1.3980    3.1890 c1        1 GSX     -0.007000
      9 C6         -3.1570    0.3240    3.2490 c1        1 GSX     -1.233000
     10 S1         -1.3830    0.4750    2.9220 ss        1 GSX      2.902000
     11 O2         -0.6520   -0.5700    3.5400 o         1 GSX     -0.936500
     12 O1         -0.8240    1.6360    3.5840 o         1 GSX     -0.936500
     13 N1         -1.1050    0.5150    1.2900 n2        1 GSX     -0.865000
     14 C12         0.1000    0.0240    0.7740 c3        1 GSX      0.019000
     15 C13        -0.0750   -1.2550    0.3540 c3        1 GSX     -0.184000
     16 C14         0.8270   -1.4010   -0.9270 c3        1 GSX     -0.044000
     17 C15         0.4480    0.7790   -0.6050 c2        1 GSX      0.292000
     18 O3          0.1710    1.9230   -0.8810 o         1 GSX     -0.342000
     19 N2          1.2420   -0.0230   -1.2990 n         1 GSX     -0.304000
     20 C16         2.0130    0.3430   -2.4550 c3        1 GSX      0.035000
     21 C17         1.1490    1.1580   -3.4050 c3        1 GSX     -0.217000
     22 C18         3.2280    1.1710   -2.0220 c2        1 GSX      0.273000
     23 O4          3.2010    1.7840   -0.9900 o         1 GSX     -0.360000
     24 N3          4.3610    1.2560   -2.8670 n         1 GSX     -0.332000
     25 C19         5.6600    2.0470   -2.7010 c3        1 GSX     -0.057000
     26 C20         6.8580    1.1620   -2.6460 c3        1 GSX     -0.034500
     27 O5          6.5820   -0.0360   -3.1310 os        1 GSX     -0.273000
     28 C22         5.8400   -0.3100   -4.1520 c3        1 GSX     -0.034500
     29 C23         4.6340    0.5940   -4.1990 c3        1 GSX     -0.057000
     30 S3         -3.8970   -0.9680    3.6540 ss        1 GSX      0.825000
     31 S6         -7.3010   -2.2750    3.0700 ss        1 GSX      0.640000
     32 H2         -8.5900   -3.4180    5.9830 DU        1 GSX      0.171250
     33 H3         -6.5440   -1.6220    6.2790 DU        1 GSX      0.171250
     34 H8         -6.3900    1.3020    3.6030 DU        1 GSX      0.171250
     35 H7         -3.9330    2.3790    2.9430 DU        1 GSX      0.171250
     36 H1         -1.7580    0.7900    0.7280 hn        1 GSX      0.242000
     37 H12         0.7050    0.1720    1.5350 h1        1 GSX      0.161000
     38 H131       -1.0490   -1.4170    0.1200 hc        1 GSX      0.109000
     39 H132        0.2250   -1.8980    1.0610 hc        1 GSX      0.109000
     40 H141        0.3190   -1.7990   -1.6480 h1        1 GSX      0.093000
     41 H142        1.6280   -1.9590   -0.7200 h1        1 GSX      0.093000
     42 H16         2.3240   -0.4790   -2.9170 h1        1 GSX      0.104000
     43 H171        0.1980    1.0570   -3.1570 hc        1 GSX      0.100333
     44 H172        1.4110    2.1280   -3.3460 hc        1 GSX      0.100333
     45 H173        1.2850    0.8290   -4.3470 hc        1 GSX      0.100333
     46 H191        5.7540    2.6560   -3.4490 h1        1 GSX      0.098750
     47 H192        5.6120    2.5650   -1.8730 h1        1 GSX      0.098750
     48 H231        3.8540    0.0670   -4.4540 h1        1 GSX      0.098750
     49 H232        4.7800    1.2730   -4.8590 h1        1 GSX      0.098750
     50 H201        7.1450    1.0750   -1.7330 h1        1 GSX      0.096750
     51 H202        7.6030    1.5790   -3.1900 h1        1 GSX      0.096750
     52 H221        6.3630   -0.1930   -4.9720 h1        1 GSX      0.096750
     53 H222        5.5300   -1.2710   -4.0910 h1        1 GSX      0.096750
@<TRIPOS>BOND
     1    1    2 1   
     2    2    3 1   
     3    2   31 1   
     4    3    4 1   
     5    4    5 1   
     6    5    6 1   
     7    5   31 1   
     8    6    7 1   
     9    6   30 1   
    10    7    8 1   
    11    8    9 1   
    12    9   30 1   
    13   10   11 1   
    14   10   12 1   
    15   13   14 1   
    16   13   36 1   
    17   14   15 1   
    18   14   17 1   
    19   14   37 1   
    20   15   16 1   
    21   15   38 1   
    22   15   39 1   
    23   16   19 1   
    24   16   40 1   
    25   16   41 1   
    26   17   18 1   
    27   17   19 1   
    28   19   20 1   
    29   20   21 1   
    30   20   22 1   
    31   20   42 1   
    32   21   43 1   
    33   21   44 1   
    34   21   45 1   
    35   22   23 1   
    36   22   24 1   
    37   24   25 1   
    38   24   29 1   
    39   25   26 1   
    40   25   46 1   
    41   25   47 1   
    42   26   27 1   
    43   26   50 1   
    44   26   51 1   
    45   27   28 1   
    46   28   29 1   
    47   28   52 1   
    48   28   53 1   
    49   29   48 1   
    50   29   49 1   
@<TRIPOS>SUBSTRUCTURE
     1 GSX         1 TEMP              0 ****  ****    0 ROOT
