@<TRIPOS>MOLECULE
GSY
   25    26     1     0     0
SMALL
bcc


@<TRIPOS>ATOM
      1 O15        -0.0940   -0.2880    0.2200 oh        1 GSY     -0.589800
      2 C14         1.3030   -0.3060   -0.0080 c3        1 GSY      0.118400
      3 C13         1.9130    0.1450    1.3330 c3        1 GSY      0.003300
      4 N7          3.3520    0.1080    1.3630 na        1 GSY     -0.114900
      5 C5          4.2140    1.1910    1.4050 cc        1 GSY     -0.267200
      6 C6          3.9610    2.6190    1.4400 c         1 GSY      0.751100
      7 O11         2.8760    3.2070    1.4290 o         1 GSY     -0.549500
      8 N1          5.1500    3.4040    1.4970 ns        1 GSY     -0.493400
      9 C2          6.4070    2.7820    1.5210 cc        1 GSY      0.482800
     10 N2          7.6090    3.6770    1.5860 nz        1 GSY     -0.794600
     11 N3          6.6740    1.4800    1.4910 nd        1 GSY     -0.558700
     12 C4          5.5590    0.6540    1.4330 cd        1 GSY      0.533300
     13 N9          5.5080   -0.7410    1.3980 nd        1 GSY     -0.620000
     14 C8          4.1710   -1.0440    1.3540 cc        1 GSY      0.536800
     15 S10         3.5180   -2.6020    1.3020 sh        1 GSY     -0.217100
     16 H15        -0.5130   -0.5640   -0.6050 ho        1 GSY      0.426000
     17 H141        1.5760    0.4040   -0.8330 h1        1 GSY      0.043700
     18 H142        1.6440   -1.3430   -0.2740 h1        1 GSY      0.043700
     19 H131        1.5780    1.2030    1.5490 h1        1 GSY      0.111700
     20 H132        1.5240   -0.5320    2.1510 h1        1 GSY      0.111700
     21 H1          5.0460    4.3960    1.5280 hn        1 GSY      0.352500
     22 H21N        8.4660    3.1000    1.5950 hn        1 GSY      0.482467
     23 H22N        7.6260    4.2910    0.7630 hn        1 GSY      0.482467
     24 H10         4.6410   -3.3110    1.4240 hs        1 GSY      0.242800
     25 H23         7.5730    4.2390    2.4440 hn        1 GSY      0.482467
@<TRIPOS>BOND
     1    1    2 1   
     2    1   16 1   
     3    2    3 1   
     4    2   17 1   
     5    2   18 1   
     6    3    4 1   
     7    3   19 1   
     8    3   20 1   
     9    4    5 1   
    10    4   14 1   
    11    5    6 1   
    12    5   12 2   
    13    6    7 2   
    14    6    8 1   
    15    8    9 1   
    16    8   21 1   
    17    9   10 1   
    18    9   11 2   
    19   10   22 1   
    20   10   23 1   
    21   10   25 1   
    22   11   12 1   
    23   12   13 1   
    24   13   14 2   
    25   14   15 1   
    26   15   24 1   
@<TRIPOS>SUBSTRUCTURE
     1 GSY         1 TEMP              0 ****  ****    0 ROOT
