@<TRIPOS>MOLECULE
GSY
   25    26     1     0     0
SMALL
bcc


@<TRIPOS>ATOM
      1 O15        -0.0810   -0.3180    0.2080 oh        1 GSY     -0.589800
      2 C14         1.3170   -0.3240   -0.0160 c3        1 GSY      0.118400
      3 C13         1.9190    0.1280    1.3280 c3        1 GSY      0.003300
      4 N7          3.3590    0.1020    1.3610 na        1 GSY     -0.114900
      5 C5          4.2120    1.1910    1.4050 cc        1 GSY     -0.267200
      6 C6          3.9480    2.6180    1.4410 c         1 GSY      0.751100
      7 O11         2.8580    3.1970    1.4270 o         1 GSY     -0.549500
      8 N1          5.1310    3.4120    1.5000 n         1 GSY     -0.493400
      9 C2          6.3920    2.8000    1.5270 cc        1 GSY      0.482800
     10 N2          7.5870    3.7040    1.5950 n4        1 GSY     -0.794600
     11 N3          6.6700    1.5000    1.4980 nd        1 GSY     -0.558700
     12 C4          5.5610    0.6650    1.4370 cd        1 GSY      0.533300
     13 N9          5.5210   -0.7300    1.4010 nd        1 GSY     -0.620000
     14 C8          4.1870   -1.0440    1.3540 cc        1 GSY      0.536800
     15 S10         3.5460   -2.6060    1.3000 sh        1 GSY     -0.217100
     16 H15        -0.4960   -0.5950   -0.6200 ho        1 GSY      0.426000
     17 H141        1.5860    0.3900   -0.8390 h1        1 GSY      0.043700
     18 H142        1.6670   -1.3580   -0.2840 h1        1 GSY      0.043700
     19 H131        1.5330   -0.5540    2.1430 h1        1 GSY      0.111700
     20 H132        1.5750    1.1820    1.5450 h1        1 GSY      0.111700
     21 H1          5.0190    4.4030    1.5320 hn        1 GSY      0.352500
     22 H21N        7.5450    4.2650    2.4530 hn        1 GSY      0.482467
     23 H22N        7.6020    4.3180    0.7720 hn        1 GSY      0.482467
     24 H10         4.6740   -3.3070    1.4250 hs        1 GSY      0.242800
     25 H23         8.4480    3.1340    1.6070 hn        1 GSY      0.482467
@<TRIPOS>BOND
     1    1    2 1   
     2    1   16 1   
     3    2    3 1   
     4    2   17 1   
     5    2   18 1   
     6    3    4 1   
     7    3   19 1   
     8    3   20 1   
     9    4    5 1   
    10    4   14 1   
    11    5    6 1   
    12    5   12 2   
    13    6    7 2   
    14    6    8 1   
    15    8    9 1   
    16    8   21 1   
    17    9   10 1   
    18    9   11 2   
    19   10   22 1   
    20   10   23 1   
    21   10   25 1   
    22   11   12 1   
    23   12   13 1   
    24   13   14 2   
    25   14   15 1   
    26   15   24 1   
@<TRIPOS>SUBSTRUCTURE
     1 GSY         1 TEMP              0 ****  ****    0 ROOT
