@<TRIPOS>MOLECULE
GSY
   24    25     1     0     0
SMALL
bcc


@<TRIPOS>ATOM
      1 O15        -3.3840    2.7210   -0.5480 oh        1 GSY     -0.588800
      2 C14        -2.5190    1.6620   -0.8970 c3        1 GSY      0.113400
      3 C13        -1.9660    1.0170    0.3890 c3        1 GSY     -0.011700
      4 N7         -0.9790    0.0020    0.1700 na        1 GSY     -0.135900
      5 C5          0.4020    0.1950    0.0930 cc        1 GSY     -0.350200
      6 C6          1.2140    1.3750    0.2790 c         1 GSY      0.750100
      7 O11         0.8150    2.5250    0.5480 o         1 GSY     -0.648500
      8 N1          2.5940    1.1350    0.1400 n         1 GSY     -0.491400
      9 C2          3.1070   -0.1450   -0.1890 cc        1 GSY      0.649800
     10 N2          4.5040   -0.2180   -0.4340 nh        1 GSY     -0.880800
     11 N3          2.3620   -1.2590   -0.3360 nd        1 GSY     -0.695700
     12 C4          0.9920   -1.0850   -0.2130 cd        1 GSY      0.605300
     13 N9         -0.0250   -2.0410   -0.3340 nd        1 GSY     -0.666000
     14 C8         -1.1900   -1.3570   -0.1100 cc        1 GSY      0.534800
     15 S10        -2.7440   -2.0440   -0.1280 sh        1 GSY     -0.292100
     16 H15        -2.8400    3.4260   -0.1740 ho        1 GSY      0.407000
     17 H141       -3.1620    0.9400   -1.4680 h1        1 GSY      0.062700
     18 H142       -1.6840    2.0270   -1.5520 h1        1 GSY      0.062700
     19 H131       -1.4900    1.8270    1.0190 h1        1 GSY      0.087700
     20 H132       -2.8230    0.5630    0.9650 h1        1 GSY      0.087700
     21 H1          3.2040    1.9220    0.1910 hn        1 GSY      0.339500
     22 H21N        5.0630    0.2620    0.2390 hn        1 GSY      0.413800
     23 H22N        4.8290   -1.1450   -0.6210 hn        1 GSY      0.413800
     24 H10        -2.4030   -3.3200   -0.2920 hs        1 GSY      0.234800
@<TRIPOS>BOND
     1    1    2 1   
     2    1   16 1   
     3    2    3 1   
     4    2   17 1   
     5    2   18 1   
     6    3    4 1   
     7    3   19 1   
     8    3   20 1   
     9    4    5 1   
    10    4   14 1   
    11    5    6 1   
    12    5   12 2   
    13    6    7 2   
    14    6    8 1   
    15    8    9 1   
    16    8   21 1   
    17    9   10 1   
    18    9   11 2   
    19   10   22 1   
    20   10   23 1   
    21   11   12 1   
    22   12   13 1   
    23   13   14 2   
    24   14   15 1   
    25   15   24 1   
@<TRIPOS>SUBSTRUCTURE
     1 GSY         1 TEMP              0 ****  ****    0 ROOT
