@<TRIPOS>MOLECULE
GSZ
   56    58     1     0     0
SMALL
bcc


@<TRIPOS>ATOM
      1 CAZ         3.7770    1.7120   -0.2360 c3        1 GSZ     -0.124100
      2 CAN         2.5370    0.8960    0.0540 c3        1 GSZ     -0.123700
      3 CBA         1.2740    1.7220   -0.0710 c3        1 GSZ     -0.124100
      4 CAL         2.4550   -0.3280   -0.8310 c         1 GSZ      0.558100
      5 OAM         2.3290   -1.4960   -0.5170 o         1 GSZ     -0.401100
      6 NAK         2.5450   -0.0420   -2.3360 ny        1 GSZ     -0.699800
      7 CAC         2.3560   -1.2500   -3.2020 c3        1 GSZ      0.180800
      8 CAB         3.6370   -2.1510   -3.2600 c3        1 GSZ      0.145100
      9 OAG         3.2270   -3.3750   -3.8200 oh        1 GSZ     -0.575800
     10 CAA         4.7220   -1.5440   -4.1730 c3        1 GSZ      0.117100
     11 OAH         5.1010   -0.3140   -3.5810 oh        1 GSZ     -0.657800
     12 CAF         4.2400   -1.2850   -5.6230 c3        1 GSZ     -0.005000
     13 CAI         4.5270   -2.5430   -6.4890 c3        1 GSZ      0.127400
     14 OAJ         5.9370   -2.6510   -6.4710 oh        1 GSZ     -0.607800
     15 NAE         2.8420   -0.8810   -5.6840 na        1 GSZ      0.047900
     16 CAQ         2.1310   -0.5300   -6.8290 cc        1 GSZ     -0.122300
     17 CAD         1.9770   -0.8650   -4.6050 cc        1 GSZ     -0.097900
     18 NAO         0.7250   -0.4960   -5.0610 na        1 GSZ     -0.117100
     19 CAP         0.7900   -0.2840   -6.4420 cd        1 GSZ     -0.006600
     20 CAR        -0.3450    0.1420   -7.2900 c3        1 GSZ     -0.040100
     21 CAS        -1.6770   -0.4650   -6.8850 c3        1 GSZ     -0.051100
     22 CAT        -2.1880    0.0400   -5.5810 ca        1 GSZ     -0.134300
     23 CAU        -2.4080   -0.8490   -4.5190 ca        1 GSZ     -0.152000
     24 CAV        -2.9610   -0.3910   -3.3230 ca        1 GSZ     -0.120000
     25 CAW        -3.2950    0.9550   -3.1750 ca        1 GSZ     -0.118000
     26 CAX        -3.0790    1.8440   -4.2300 ca        1 GSZ     -0.120000
     27 CAY        -2.5300    1.3890   -5.4280 ca        1 GSZ     -0.152000
     28 HAZ1        4.6900    1.0690   -0.2690 hc        1 GSZ      0.073867
     29 HAZ2        3.9170    2.4600    0.5890 hc        1 GSZ      0.073867
     30 HAZ3        3.6860    2.2810   -1.1920 hc        1 GSZ      0.073867
     31 HAN         2.6040    0.4860    1.1110 hc        1 GSZ      0.147700
     32 HBA1        1.2880    2.5200    0.7170 hc        1 GSZ      0.073867
     33 HBA2        1.2070    2.2270   -1.0650 hc        1 GSZ      0.073867
     34 HBA3        0.3620    1.0970    0.0920 hc        1 GSZ      0.073867
     35 HAK         3.4790    0.3700   -2.5130 hn        1 GSZ      0.476800
     36 HAC         1.5210   -1.8770   -2.7500 hx        1 GSZ      0.154700
     37 HAB         4.0490   -2.2710   -2.2190 h1        1 GSZ      0.104700
     38 HAG         3.3000   -4.0650   -3.1420 ho        1 GSZ      0.461000
     39 HAA         5.5940   -2.2620   -4.2310 h1        1 GSZ      0.145700
     40 HAH         6.0420   -0.1670   -3.7610 ho        1 GSZ      0.473000
     41 HAF         4.8500   -0.4240   -6.0460 h1        1 GSZ      0.130700
     42 HAI1        4.1460   -2.3970   -7.5340 h1        1 GSZ      0.067700
     43 HAI2        4.0600   -3.4540   -6.0270 h1        1 GSZ      0.067700
     44 HAJ         6.1890   -3.2920   -7.1520 ho        1 GSZ      0.456000
     45 HAQ         2.5920   -0.4720   -7.8230 h4        1 GSZ      0.246000
     46 HAO        -0.1270   -0.4690   -4.5250 hn        1 GSZ      0.373700
     47 HAR1       -0.4140    1.2670   -7.2560 hc        1 GSZ      0.104700
     48 HAR2       -0.1130   -0.1510   -8.3530 hc        1 GSZ      0.104700
     49 HAS1       -2.4280   -0.2070   -7.6870 hc        1 GSZ      0.088200
     50 HAS2       -1.5950   -1.5850   -6.8680 hc        1 GSZ      0.088200
     51 HAU        -2.2150   -1.9250   -4.6530 ha        1 GSZ      0.144500
     52 HAY        -2.3980    2.0880   -6.2690 ha        1 GSZ      0.144500
     53 HAV        -3.1710   -1.1030   -2.5090 ha        1 GSZ      0.156500
     54 HAW        -3.7590    1.3100   -2.2410 ha        1 GSZ      0.159000
     55 HAX        -3.3700    2.9020   -4.1270 ha        1 GSZ      0.156500
     56 HAK2        1.8400    0.6690   -2.5610 hn        1 GSZ      0.476800
@<TRIPOS>BOND
     1    1    2 1   
     2    1   28 1   
     3    1   29 1   
     4    1   30 1   
     5    2    3 1   
     6    2    4 1   
     7    2   31 1   
     8    3   32 1   
     9    3   33 1   
    10    3   34 1   
    11    4    5 2   
    12    4    6 1   
    13    6    7 1   
    14    6   35 1   
    15    6   56 1   
    16    7    8 1   
    17    7   17 1   
    18    7   36 1   
    19    8    9 1   
    20    8   10 1   
    21    8   37 1   
    22    9   38 1   
    23   10   11 1   
    24   10   12 1   
    25   10   39 1   
    26   11   40 1   
    27   12   13 1   
    28   12   15 1   
    29   12   41 1   
    30   13   14 1   
    31   13   42 1   
    32   13   43 1   
    33   14   44 1   
    34   15   16 1   
    35   15   17 2   
    36   16   19 2   
    37   16   45 1   
    38   17   18 1   
    39   18   19 1   
    40   18   46 1   
    41   19   20 1   
    42   20   21 1   
    43   20   47 1   
    44   20   48 1   
    45   21   22 1   
    46   21   49 1   
    47   21   50 1   
    48   22   23 ar  
    49   22   27 ar  
    50   23   24 ar  
    51   23   51 1   
    52   24   25 ar  
    53   24   53 1   
    54   25   26 ar  
    55   25   54 1   
    56   26   27 ar  
    57   26   55 1   
    58   27   52 1   
@<TRIPOS>SUBSTRUCTURE
     1 GSZ         1 TEMP              0 ****  ****    0 ROOT
