@<TRIPOS>MOLECULE
GSZ
   55    57     1     0     0
SMALL
bcc


@<TRIPOS>ATOM
      1 CAZ         0.0520   -0.8410   -5.4360 c3        1 GSZ     -0.097100
      2 CAN        -0.0710    0.3920   -4.5640 c3        1 GSZ     -0.120700
      3 CBA        -1.5120    0.8520   -4.4830 c3        1 GSZ     -0.097100
      4 CAL         0.4680    0.0930   -3.1730 c         1 GSZ      0.676100
      5 OAM         0.8380   -1.0360   -2.7960 o         1 GSZ     -0.620100
      6 NAK         0.5920    1.1620   -2.2830 n         1 GSZ     -0.592900
      7 CAC         0.8630    0.9250   -0.8950 c3        1 GSZ      0.167000
      8 CAB         0.3620    2.0620    0.0390 c3        1 GSZ      0.105100
      9 OAG         0.1170    1.4250    1.2800 oh        1 GSZ     -0.591800
     10 CAA         1.3710    3.2100    0.2110 c3        1 GSZ      0.094100
     11 OAH         1.4890    3.9510   -0.9830 oh        1 GSZ     -0.565800
     12 CAF         2.7540    2.7450    0.7310 c3        1 GSZ     -0.036000
     13 CAI         2.7240    2.6370    2.2810 c3        1 GSZ      0.120400
     14 OAJ         2.3300    3.8730    2.8210 oh        1 GSZ     -0.574800
     15 NAE         3.1760    1.5090    0.0980 na        1 GSZ     -0.014100
     16 CAQ         4.4490    0.9260    0.1470 cc        1 GSZ     -0.152300
     17 CAD         2.3480    0.6950   -0.6470 cc        1 GSZ      0.000100
     18 NAO         3.0860   -0.3750   -1.0990 na        1 GSZ     -0.114100
     19 CAP         4.3970   -0.2610   -0.6090 cd        1 GSZ     -0.042600
     20 CAR         5.4990   -1.2170   -0.8500 c3        1 GSZ     -0.028100
     21 CAS         5.0660   -2.5660   -1.3950 c3        1 GSZ     -0.045100
     22 CAT         4.7450   -2.5370   -2.8480 ca        1 GSZ     -0.120300
     23 CAU         3.4620   -2.8610   -3.3020 ca        1 GSZ     -0.133500
     24 CAV         3.1870   -2.8860   -4.6700 ca        1 GSZ     -0.116500
     25 CAW         4.1890   -2.5860   -5.5920 ca        1 GSZ     -0.120000
     26 CAX         5.4700   -2.2610   -5.1440 ca        1 GSZ     -0.116500
     27 CAY         5.7480   -2.2400   -3.7790 ca        1 GSZ     -0.133500
     28 HAZ1       -0.2860   -0.6020   -6.4730 hc        1 GSZ      0.055367
     29 HAZ2        1.1130   -1.1900   -5.4690 hc        1 GSZ      0.055367
     30 HAZ3       -0.5760   -1.6710   -5.0310 hc        1 GSZ      0.055367
     31 HAN         0.5560    1.2160   -5.0110 hc        1 GSZ      0.077700
     32 HBA1       -1.5990    1.8240   -3.9400 hc        1 GSZ      0.055367
     33 HBA2       -2.1440    0.0910   -3.9630 hc        1 GSZ      0.055367
     34 HBA3       -1.9150    0.9930   -5.5170 hc        1 GSZ      0.055367
     35 HAK         0.2720    2.0650   -2.5490 hn        1 GSZ      0.335500
     36 HAC         0.3480   -0.0400   -0.5680 h1        1 GSZ      0.135700
     37 HAB        -0.5940    2.4970   -0.3750 h1        1 GSZ      0.089700
     38 HAG        -0.4770    1.9970    1.7860 ho        1 GSZ      0.440000
     39 HAA         0.9620    3.9550    0.9620 h1        1 GSZ      0.142700
     40 HAH         1.9850    3.4280   -1.6250 ho        1 GSZ      0.404000
     41 HAF         3.5120    3.5390    0.4450 h1        1 GSZ      0.103700
     42 HAI1        3.7280    2.3150    2.6620 h1        1 GSZ      0.079200
     43 HAI2        1.9320    1.9060    2.6070 h1        1 GSZ      0.079200
     44 HAJ         3.0960    4.4620    2.8240 ho        1 GSZ      0.419000
     45 HAQ         5.2810    1.3760    0.6930 h4        1 GSZ      0.222000
     46 HAO         2.7380   -1.1000   -1.7070 hn        1 GSZ      0.384700
     47 HAR1        6.0340   -1.3710    0.1290 hc        1 GSZ      0.088200
     48 HAR2        6.2290   -0.7410   -1.5640 hc        1 GSZ      0.088200
     49 HAS1        5.9170   -3.2870   -1.2350 hc        1 GSZ      0.071200
     50 HAS2        4.1970   -2.9620   -0.8050 hc        1 GSZ      0.071200
     51 HAU         2.6630   -3.1210   -2.5890 ha        1 GSZ      0.135000
     52 HAY         6.7660   -2.0060   -3.4320 ha        1 GSZ      0.135000
     53 HAV         2.1770   -3.1540   -5.0160 ha        1 GSZ      0.145500
     54 HAW         3.9730   -2.6150   -6.6710 ha        1 GSZ      0.145000
     55 HAX         6.2660   -2.0340   -5.8700 ha        1 GSZ      0.145500
@<TRIPOS>BOND
     1    1    2 1   
     2    1   28 1   
     3    1   29 1   
     4    1   30 1   
     5    2    3 1   
     6    2    4 1   
     7    2   31 1   
     8    3   32 1   
     9    3   33 1   
    10    3   34 1   
    11    4    5 2   
    12    4    6 1   
    13    6    7 1   
    14    6   35 1   
    15    7    8 1   
    16    7   17 1   
    17    7   36 1   
    18    8    9 1   
    19    8   10 1   
    20    8   37 1   
    21    9   38 1   
    22   10   11 1   
    23   10   12 1   
    24   10   39 1   
    25   11   40 1   
    26   12   13 1   
    27   12   15 1   
    28   12   41 1   
    29   13   14 1   
    30   13   42 1   
    31   13   43 1   
    32   14   44 1   
    33   15   16 1   
    34   15   17 2   
    35   16   19 2   
    36   16   45 1   
    37   17   18 1   
    38   18   19 1   
    39   18   46 1   
    40   19   20 1   
    41   20   21 1   
    42   20   47 1   
    43   20   48 1   
    44   21   22 1   
    45   21   49 1   
    46   21   50 1   
    47   22   23 ar  
    48   22   27 ar  
    49   23   24 ar  
    50   23   51 1   
    51   24   25 ar  
    52   24   53 1   
    53   25   26 ar  
    54   25   54 1   
    55   26   27 ar  
    56   26   55 1   
    57   27   52 1   
@<TRIPOS>SUBSTRUCTURE
     1 GSZ         1 TEMP              0 ****  ****    0 ROOT
