@<TRIPOS>MOLECULE
GSZ
   56    58     1     0     0
SMALL
bcc


@<TRIPOS>ATOM
      1 CAZ         3.7500    1.6290   -0.1740 c3        1 GSZ     -0.124100
      2 CAN         2.4810    0.8460    0.0830 c3        1 GSZ     -0.123700
      3 CBA         1.2450    1.7070   -0.0660 c3        1 GSZ     -0.124100
      4 CAL         2.3860   -0.3710   -0.8110 c         1 GSZ      0.558100
      5 OAM         2.2220   -1.5360   -0.5070 o         1 GSZ     -0.401100
      6 NAK         2.5160   -0.0780   -2.3120 n4        1 GSZ     -0.699800
      7 CAC         2.3150   -1.2770   -3.1900 c3        1 GSZ      0.180800
      8 CAB         3.5730   -2.2100   -3.2250 c3        1 GSZ      0.145100
      9 OAG         3.1430   -3.4200   -3.8010 oh        1 GSZ     -0.575800
     10 CAA         4.6930   -1.6260   -4.1110 c3        1 GSZ      0.117100
     11 OAH         5.0910   -0.4100   -3.5020 oh        1 GSZ     -0.657800
     12 CAF         4.2500   -1.3470   -5.5690 c3        1 GSZ     -0.005000
     13 CAI         4.5240   -2.6070   -6.4360 c3        1 GSZ      0.127400
     14 OAJ         5.9300   -2.7520   -6.3880 oh        1 GSZ     -0.607800
     15 NAE         2.8650   -0.9070   -5.6570 na        1 GSZ      0.047900
     16 CAQ         2.1890   -0.5310   -6.8160 cc        1 GSZ     -0.122300
     17 CAD         1.9780   -0.8740   -4.5980 cc        1 GSZ     -0.097900
     18 NAO         0.7460   -0.4700   -5.0790 na        1 GSZ     -0.117100
     19 CAP         0.8460   -0.2520   -6.4560 cd        1 GSZ     -0.006600
     20 CAR        -0.2590    0.2070   -7.3270 c3        1 GSZ     -0.040100
     21 CAS        -1.6150   -0.3650   -6.9540 c3        1 GSZ     -0.051100
     22 CAT        -2.1410    0.1460   -5.6590 ca        1 GSZ     -0.134300
     23 CAU        -2.4070   -0.7420   -4.6070 ca        1 GSZ     -0.152000
     24 CAV        -2.9730   -0.2750   -3.4200 ca        1 GSZ     -0.120000
     25 CAW        -3.2750    1.0790   -3.2730 ca        1 GSZ     -0.118000
     26 CAX        -3.0130    1.9680   -4.3180 ca        1 GSZ     -0.120000
     27 CAY        -2.4500    1.5040   -5.5060 ca        1 GSZ     -0.152000
     28 HAZ1        3.6970    2.2050   -1.1290 hc        1 GSZ      0.073867
     29 HAZ2        3.8910    2.3680    0.6590 hc        1 GSZ      0.073867
     30 HAZ3        4.6450    0.9610   -0.1900 hc        1 GSZ      0.073867
     31 HAN         2.5130    0.4290    1.1390 hc        1 GSZ      0.147700
     32 HBA1        1.2150    2.2200   -1.0570 hc        1 GSZ      0.073867
     33 HBA2        1.2620    2.5000    0.7280 hc        1 GSZ      0.073867
     34 HBA3        0.3130    1.1070    0.0720 hc        1 GSZ      0.073867
     35 HAK         3.4640    0.3100   -2.4660 hn        1 GSZ      0.476800
     36 HAC         1.4540   -1.8830   -2.7600 hx        1 GSZ      0.154700
     37 HAB         3.9590   -2.3460   -2.1760 h1        1 GSZ      0.104700
     38 HAG         3.1840   -4.1150   -3.1260 ho        1 GSZ      0.461000
     39 HAA         5.5480   -2.3660   -4.1530 h1        1 GSZ      0.145700
     40 HAH         6.0390   -0.2860   -3.6620 ho        1 GSZ      0.473000
     41 HAF         4.8910   -0.5000   -5.9730 h1        1 GSZ      0.130700
     42 HAI1        4.0230   -3.5090   -5.9900 h1        1 GSZ      0.067700
     43 HAI2        4.1700   -2.4460   -7.4890 h1        1 GSZ      0.067700
     44 HAJ         6.1800   -3.3950   -7.0670 ho        1 GSZ      0.456000
     45 HAQ         2.6730   -0.4800   -7.7990 h4        1 GSZ      0.246000
     46 HAO        -0.1170   -0.4240   -4.5610 hn        1 GSZ      0.373700
     47 HAR1       -0.2990    1.3340   -7.2880 hc        1 GSZ      0.104700
     48 HAR2       -0.0110   -0.0860   -8.3860 hc        1 GSZ      0.104700
     49 HAS1       -1.5620   -1.4870   -6.9410 hc        1 GSZ      0.088200
     50 HAS2       -2.3410   -0.0840   -7.7710 hc        1 GSZ      0.088200
     51 HAU        -2.2400   -1.8220   -4.7420 ha        1 GSZ      0.144500
     52 HAY        -2.2810    2.2030   -6.3410 ha        1 GSZ      0.144500
     53 HAV        -3.2200   -0.9840   -2.6150 ha        1 GSZ      0.156500
     54 HAW        -3.7500    1.4420   -2.3470 ha        1 GSZ      0.159000
     55 HAX        -3.2780    3.0330   -4.2150 ha        1 GSZ      0.156500
     56 HAK2        1.8350    0.6510   -2.5480 hn        1 GSZ      0.476800
@<TRIPOS>BOND
     1    1    2 1   
     2    1   28 1   
     3    1   29 1   
     4    1   30 1   
     5    2    3 1   
     6    2    4 1   
     7    2   31 1   
     8    3   32 1   
     9    3   33 1   
    10    3   34 1   
    11    4    5 2   
    12    4    6 1   
    13    6    7 1   
    14    6   35 1   
    15    6   56 1   
    16    7    8 1   
    17    7   17 1   
    18    7   36 1   
    19    8    9 1   
    20    8   10 1   
    21    8   37 1   
    22    9   38 1   
    23   10   11 1   
    24   10   12 1   
    25   10   39 1   
    26   11   40 1   
    27   12   13 1   
    28   12   15 1   
    29   12   41 1   
    30   13   14 1   
    31   13   42 1   
    32   13   43 1   
    33   14   44 1   
    34   15   16 1   
    35   15   17 2   
    36   16   19 2   
    37   16   45 1   
    38   17   18 1   
    39   18   19 1   
    40   18   46 1   
    41   19   20 1   
    42   20   21 1   
    43   20   47 1   
    44   20   48 1   
    45   21   22 1   
    46   21   49 1   
    47   21   50 1   
    48   22   23 ar  
    49   22   27 ar  
    50   23   24 ar  
    51   23   51 1   
    52   24   25 ar  
    53   24   53 1   
    54   25   26 ar  
    55   25   54 1   
    56   26   27 ar  
    57   26   55 1   
    58   27   52 1   
@<TRIPOS>SUBSTRUCTURE
     1 GSZ         1 TEMP              0 ****  ****    0 ROOT
