@<TRIPOS>MOLECULE
GSZ
   56    58     1     0     0
SMALL
bcc


@<TRIPOS>ATOM
      1 CAZ         3.7430    1.6240   -0.1690 c3        1 GSZ     -0.124100
      2 CAN         2.4880    0.8200    0.0880 c3        1 GSZ     -0.123700
      3 CBA         1.2370    1.6630   -0.0440 c3        1 GSZ     -0.124100
      4 CAL         2.4050   -0.3900   -0.8170 c         1 GSZ      0.558100
      5 OAM         2.2590   -1.5610   -0.5240 o         1 GSZ     -0.401100
      6 NAK         2.5220   -0.0810   -2.3160 n4        1 GSZ     -0.699800
      7 CAC         2.3330   -1.2730   -3.2040 c3        1 GSZ      0.180800
      8 CAB         3.6030   -2.1880   -3.2560 c3        1 GSZ      0.145100
      9 OAG         3.1870   -3.3980   -3.8410 oh        1 GSZ     -0.575800
     10 CAA         4.7100   -1.5810   -4.1420 c3        1 GSZ      0.117100
     11 OAH         5.0950   -0.3650   -3.5230 oh        1 GSZ     -0.657800
     12 CAF         4.2550   -1.2930   -5.5950 c3        1 GSZ     -0.005000
     13 CAI         4.5420   -2.5410   -6.4760 c3        1 GSZ      0.127400
     14 OAJ         5.9500   -2.6660   -6.4360 oh        1 GSZ     -0.607800
     15 NAE         2.8630   -0.8710   -5.6710 na        1 GSZ      0.047900
     16 CAQ         2.1760   -0.4930   -6.8220 cc        1 GSZ     -0.122300
     17 CAD         1.9820   -0.8610   -4.6060 cc        1 GSZ     -0.097900
     18 NAO         0.7420   -0.4700   -5.0760 na        1 GSZ     -0.117100
     19 CAP         0.8310   -0.2370   -6.4520 cd        1 GSZ     -0.006600
     20 CAR        -0.2850    0.2160   -7.3120 c3        1 GSZ     -0.040100
     21 CAS        -1.6310   -0.3780   -6.9370 c3        1 GSZ     -0.051100
     22 CAT        -2.1560    0.1140   -5.6340 ca        1 GSZ     -0.134300
     23 CAU        -2.4050   -0.7870   -4.5890 ca        1 GSZ     -0.152000
     24 CAV        -2.9700   -0.3380   -3.3950 ca        1 GSZ     -0.120000
     25 CAW        -3.2870    1.0100   -3.2320 ca        1 GSZ     -0.118000
     26 CAX        -3.0420    1.9120   -4.2700 ca        1 GSZ     -0.120000
     27 CAY        -2.4800    1.4670   -5.4660 ca        1 GSZ     -0.152000
     28 HAZ1        3.8780    2.3570    0.6700 hc        1 GSZ      0.073867
     29 HAZ2        4.6470    0.9700   -0.1980 hc        1 GSZ      0.073867
     30 HAZ3        3.6740    2.2090   -1.1180 hc        1 GSZ      0.073867
     31 HAN         2.5330    0.3920    1.1390 hc        1 GSZ      0.147700
     32 HBA1        1.2480    2.4490    0.7570 hc        1 GSZ      0.073867
     33 HBA2        0.3160    1.0470    0.0950 hc        1 GSZ      0.073867
     34 HBA3        1.1930    2.1850   -1.0300 hc        1 GSZ      0.073867
     35 HAK         1.8290    0.6420   -2.5410 hn        1 GSZ      0.476800
     36 HAC         1.4830   -1.8960   -2.7750 hx        1 GSZ      0.154700
     37 HAB         3.9970   -2.3300   -2.2100 h1        1 GSZ      0.104700
     38 HAG         3.2420   -4.1000   -3.1730 ho        1 GSZ      0.461000
     39 HAA         5.5750   -2.3080   -4.1960 h1        1 GSZ      0.145700
     40 HAH         6.0400   -0.2260   -3.6870 ho        1 GSZ      0.473000
     41 HAF         4.8820   -0.4330   -5.9940 h1        1 GSZ      0.130700
     42 HAI1        4.0560   -3.4540   -6.0350 h1        1 GSZ      0.067700
     43 HAI2        4.1790   -2.3740   -7.5240 h1        1 GSZ      0.067700
     44 HAJ         6.2040   -3.3000   -7.1230 ho        1 GSZ      0.456000
     45 HAQ         2.6540   -0.4260   -7.8070 h4        1 GSZ      0.246000
     46 HAO        -0.1180   -0.4400   -4.5540 hn        1 GSZ      0.373700
     47 HAR1       -0.0390   -0.0650   -8.3750 hc        1 GSZ      0.104700
     48 HAR2       -0.3390    1.3420   -7.2630 hc        1 GSZ      0.104700
     49 HAS1       -2.3650   -0.0990   -7.7470 hc        1 GSZ      0.088200
     50 HAS2       -1.5640   -1.4990   -6.9350 hc        1 GSZ      0.088200
     51 HAU        -2.2250   -1.8630   -4.7350 ha        1 GSZ      0.144500
     52 HAY        -2.3260    2.1760   -6.2950 ha        1 GSZ      0.144500
     53 HAV        -3.2040   -1.0590   -2.5950 ha        1 GSZ      0.156500
     54 HAW        -3.7620    1.3580   -2.3010 ha        1 GSZ      0.159000
     55 HAX        -3.3210    2.9720   -4.1560 ha        1 GSZ      0.156500
     56 HAK2        3.4640    0.3230   -2.4710 hn        1 GSZ      0.476800
@<TRIPOS>BOND
     1    1    2 1   
     2    1   28 1   
     3    1   29 1   
     4    1   30 1   
     5    2    3 1   
     6    2    4 1   
     7    2   31 1   
     8    3   32 1   
     9    3   33 1   
    10    3   34 1   
    11    4    5 2   
    12    4    6 1   
    13    6    7 1   
    14    6   35 1   
    15    6   56 1   
    16    7    8 1   
    17    7   17 1   
    18    7   36 1   
    19    8    9 1   
    20    8   10 1   
    21    8   37 1   
    22    9   38 1   
    23   10   11 1   
    24   10   12 1   
    25   10   39 1   
    26   11   40 1   
    27   12   13 1   
    28   12   15 1   
    29   12   41 1   
    30   13   14 1   
    31   13   42 1   
    32   13   43 1   
    33   14   44 1   
    34   15   16 1   
    35   15   17 2   
    36   16   19 2   
    37   16   45 1   
    38   17   18 1   
    39   18   19 1   
    40   18   46 1   
    41   19   20 1   
    42   20   21 1   
    43   20   47 1   
    44   20   48 1   
    45   21   22 1   
    46   21   49 1   
    47   21   50 1   
    48   22   23 ar  
    49   22   27 ar  
    50   23   24 ar  
    51   23   51 1   
    52   24   25 ar  
    53   24   53 1   
    54   25   26 ar  
    55   25   54 1   
    56   26   27 ar  
    57   26   55 1   
    58   27   52 1   
@<TRIPOS>SUBSTRUCTURE
     1 GSZ         1 TEMP              0 ****  ****    0 ROOT
