@<TRIPOS>MOLECULE
GT0
   26    26     1     0     0
SMALL
bcc


@<TRIPOS>ATOM
      1 C8          0.0130    0.1280    0.0370 ca        1 GT0      0.389200
      2 N1          1.3420   -0.0150   -0.0500 nb        1 GT0     -0.636000
      3 C7          2.0490   -0.1480    1.0980 ca        1 GT0      0.336600
      4 C4          1.4080   -0.1360    2.3650 ca        1 GT0      0.009800
      5 C6          0.0060    0.0160    2.4520 ca        1 GT0     -0.074300
      6 C2         -0.7050    0.1520    1.2540 ca        1 GT0     -0.147600
      7 C1         -0.6520   -0.0220    3.7910 c3        1 GT0      0.172700
      8 O3         -1.6250    1.0250    3.8630 os        1 GT0     -0.428600
      9 C3         -2.0680    1.2570    5.1890 c3        1 GT0      0.116700
     10 C5         -2.1830    0.3380    1.2650 c3        1 GT0      0.179700
     11 O2         -2.6970    0.0830   -0.0360 oh        1 GT0     -0.605800
     12 C9          3.5320   -0.3080    1.0270 c3        1 GT0     -0.152400
     13 O1          2.0870   -0.2900    3.5530 oh        1 GT0     -0.500100
     14 H1         -0.5290    0.2250   -0.9240 h4        1 GT0      0.046100
     15 H2          0.1060    0.1060    4.6110 h1        1 GT0      0.051200
     16 H3         -1.1800   -1.0070    3.9270 h1        1 GT0      0.051200
     17 H4         -1.2190    1.5850    5.8390 h1        1 GT0      0.035033
     18 H5         -2.5400    0.3370    5.6140 h1        1 GT0      0.035033
     19 H6         -2.8240    2.0760    5.0900 h1        1 GT0      0.035033
     20 H7         -2.4220    1.3930    1.5760 h1        1 GT0      0.048200
     21 H8         -2.6540   -0.3690    2.0040 h1        1 GT0      0.048200
     22 H9         -3.6380    0.2890    0.0040 ho        1 GT0      0.405000
     23 H10         3.8980   -0.3380   -0.0280 hc        1 GT0      0.053700
     24 H11         3.8330   -1.2610    1.5300 hc        1 GT0      0.053700
     25 H12         4.0300    0.5510    1.5450 hc        1 GT0      0.053700
     26 H13         3.0360   -0.2470    3.3680 ho        1 GT0      0.426000
@<TRIPOS>BOND
     1    1    2 ar  
     2    1    6 ar  
     3    1   14 1   
     4    2    3 ar  
     5    3    4 ar  
     6    3   12 1   
     7    4    5 ar  
     8    4   13 1   
     9    5    6 ar  
    10    5    7 1   
    11    6   10 1   
    12    7    8 1   
    13    7   15 1   
    14    7   16 1   
    15    8    9 1   
    16    9   17 1   
    17    9   18 1   
    18    9   19 1   
    19   10   11 1   
    20   10   20 1   
    21   10   21 1   
    22   11   22 1   
    23   12   23 1   
    24   12   24 1   
    25   12   25 1   
    26   13   26 1   
@<TRIPOS>SUBSTRUCTURE
     1 GT0         1 TEMP              0 ****  ****    0 ROOT
