@<TRIPOS>MOLECULE
GT0
   26    26     1     0     0
SMALL
bcc


@<TRIPOS>ATOM
      1 C8          0.0200    0.1440    0.0360 ca        1 GT0      0.389200
      2 N1          1.3480   -0.0100   -0.0470 nb        1 GT0     -0.636000
      3 C7          2.0490   -0.1580    1.1030 ca        1 GT0      0.336600
      4 C4          1.4040   -0.1490    2.3680 ca        1 GT0      0.009800
      5 C6          0.0040    0.0140    2.4500 ca        1 GT0     -0.074300
      6 C2         -0.7020    0.1650    1.2510 ca        1 GT0     -0.147600
      7 C1         -0.6600   -0.0280    3.7870 c3        1 GT0      0.172700
      8 O3         -1.6230    1.0270    3.8630 os        1 GT0     -0.428600
      9 C3         -2.0680    1.2540    5.1900 c3        1 GT0      0.116700
     10 C5         -2.1790    0.3640    1.2590 c3        1 GT0      0.179700
     11 O2         -2.6910    0.1230   -0.0460 oh        1 GT0     -0.605800
     12 C9          3.5320   -0.3300    1.0360 c3        1 GT0     -0.152400
     13 O1          2.0780   -0.3190    3.5560 oh        1 GT0     -0.500100
     14 H1         -0.5180    0.2530   -0.9250 h4        1 GT0      0.046100
     15 H2          0.0970    0.0880    4.6110 h1        1 GT0      0.051200
     16 H3         -1.1960   -1.0090    3.9140 h1        1 GT0      0.051200
     17 H4         -1.2180    1.5700    5.8440 h1        1 GT0      0.035033
     18 H5         -2.5480    0.3350    5.6070 h1        1 GT0      0.035033
     19 H6         -2.8160    2.0800    5.0940 h1        1 GT0      0.035033
     20 H7         -2.4090    1.4190    1.5770 h1        1 GT0      0.048200
     21 H8         -2.6580   -0.3440    1.9910 h1        1 GT0      0.048200
     22 H9         -3.6300    0.3370   -0.0070 ho        1 GT0      0.405000
     23 H10         3.9010   -0.3550   -0.0190 hc        1 GT0      0.053700
     24 H11         3.8230   -1.2890    1.5320 hc        1 GT0      0.053700
     25 H12         4.0350    0.5200    1.5610 hc        1 GT0      0.053700
     26 H13         3.0280   -0.2820    3.3750 ho        1 GT0      0.426000
@<TRIPOS>BOND
     1    1    2 ar  
     2    1    6 ar  
     3    1   14 1   
     4    2    3 ar  
     5    3    4 ar  
     6    3   12 1   
     7    4    5 ar  
     8    4   13 1   
     9    5    6 ar  
    10    5    7 1   
    11    6   10 1   
    12    7    8 1   
    13    7   15 1   
    14    7   16 1   
    15    8    9 1   
    16    9   17 1   
    17    9   18 1   
    18    9   19 1   
    19   10   11 1   
    20   10   20 1   
    21   10   21 1   
    22   11   22 1   
    23   12   23 1   
    24   12   24 1   
    25   12   25 1   
    26   13   26 1   
@<TRIPOS>SUBSTRUCTURE
     1 GT0         1 TEMP              0 ****  ****    0 ROOT
