@<TRIPOS>MOLECULE
GT0
   26    26     1     0     0
SMALL
bcc


@<TRIPOS>ATOM
      1 C8          1.1830    1.7970    0.0500 ca        1 GT0      0.390200
      2 N1          2.2730    1.0350    0.2420 nb        1 GT0     -0.642000
      3 C7          2.1280   -0.3050    0.2260 ca        1 GT0      0.393600
      4 C4          0.8510   -0.9110    0.0080 ca        1 GT0      0.032800
      5 C6         -0.2830   -0.1090   -0.2020 ca        1 GT0     -0.130300
      6 C2         -0.1100    1.2870   -0.1730 ca        1 GT0     -0.168600
      7 C1         -1.6150   -0.7180   -0.4920 c3        1 GT0      0.167700
      8 O3         -1.8900   -1.7000    0.5110 os        1 GT0     -0.432600
      9 C3         -3.1470   -2.3300    0.3240 c3        1 GT0      0.113700
     10 C5         -1.2650    2.2100   -0.3740 c3        1 GT0      0.181700
     11 O2         -0.8040    3.5540   -0.3400 oh        1 GT0     -0.595800
     12 C9          3.3040   -1.2010    0.4280 c3        1 GT0     -0.138400
     13 O1          0.8450   -2.2820   -0.0110 oh        1 GT0     -0.497100
     14 H1          1.3520    2.8910    0.0760 h4        1 GT0      0.046100
     15 H2         -2.4380    0.0450   -0.4870 h1        1 GT0      0.041200
     16 H3         -1.5930   -1.2210   -1.5000 h1        1 GT0      0.041200
     17 H4         -3.2200   -3.0580    1.1710 h1        1 GT0      0.038700
     18 H5         -3.9740   -1.5810    0.3780 h1        1 GT0      0.038700
     19 H6         -3.1780   -2.8630   -0.6580 h1        1 GT0      0.038700
     20 H7         -1.7480    2.0100   -1.3710 h1        1 GT0      0.033700
     21 H8         -2.0250    2.0510    0.4410 h1        1 GT0      0.033700
     22 H9         -1.5890    4.1080   -0.4140 ho        1 GT0      0.406000
     23 H10         3.5010   -1.7620   -0.5190 hc        1 GT0      0.056367
     24 H11         4.2230   -0.6360    0.7150 hc        1 GT0      0.056367
     25 H12         3.0630   -1.9430    1.2300 hc        1 GT0      0.056367
     26 H13        -0.0710   -2.5940    0.0500 ho        1 GT0      0.440000
@<TRIPOS>BOND
     1    1    2 ar  
     2    1    6 ar  
     3    1   14 1   
     4    2    3 ar  
     5    3    4 ar  
     6    3   12 1   
     7    4    5 ar  
     8    4   13 1   
     9    5    6 ar  
    10    5    7 1   
    11    6   10 1   
    12    7    8 1   
    13    7   15 1   
    14    7   16 1   
    15    8    9 1   
    16    9   17 1   
    17    9   18 1   
    18    9   19 1   
    19   10   11 1   
    20   10   20 1   
    21   10   21 1   
    22   11   22 1   
    23   12   23 1   
    24   12   24 1   
    25   12   25 1   
    26   13   26 1   
@<TRIPOS>SUBSTRUCTURE
     1 GT0         1 TEMP              0 ****  ****    0 ROOT
