@<TRIPOS>MOLECULE
GT1
   29    29     1     0     0
SMALL
bcc


@<TRIPOS>ATOM
      1 O1         -0.0850    0.1340   -0.0340 oh        1 GT1     -0.534100
      2 C4          1.2960    0.1100    0.0260 ca        1 GT1      0.010800
      3 C6          1.9990    0.2490    1.2420 ca        1 GT1     -0.205300
      4 C1          1.2620    0.4920    2.5170 c3        1 GT1      0.169700
      5 O3          0.4860   -0.6360    2.9240 os        1 GT1     -0.468600
      6 C3          1.2870   -1.6940    3.4420 c3        1 GT1      0.109700
      7 C2          3.3960    0.1720    1.2080 ca        1 GT1     -0.085600
      8 C5          4.2310    0.2480    2.4490 c3        1 GT1      0.203700
      9 O2          5.5540   -0.0370    2.2210 os        1 GT1     -0.557200
     10 C8          4.0140   -0.0040   -0.0620 ca        1 GT1      0.378200
     11 N1          3.3570   -0.0990   -1.2190 nb        1 GT1     -0.673000
     12 C7          1.9960   -0.0510   -1.1920 ca        1 GT1      0.309600
     13 C9          1.2260   -0.1530   -2.4650 c3        1 GT1     -0.112400
     14 P1          6.3480   -0.1220    3.7930 p5        1 GT1      1.309900
     15 O4          6.0610    1.2640    4.3030 o         1 GT1     -0.927500
     16 O5          5.5280   -1.2090    4.4400 o         1 GT1     -0.927500
     17 O6          7.7640   -0.4500    3.4280 o         1 GT1     -0.927500
     18 H1         -0.4100   -0.1000    0.8490 ho        1 GT1      0.425000
     19 H2          0.4910    1.3010    2.3740 h1        1 GT1      0.060700
     20 H3          1.9690    0.7880    3.3390 h1        1 GT1      0.060700
     21 H4          2.0090   -2.0510    2.6670 h1        1 GT1      0.044700
     22 H5          1.8500   -1.3520    4.3460 h1        1 GT1      0.044700
     23 H6          0.5540   -2.4950    3.7050 h1        1 GT1      0.044700
     24 H7          3.8120   -0.4880    3.2070 h1        1 GT1      0.047200
     25 H8          4.1400    1.2880    2.8880 h1        1 GT1      0.047200
     26 H9          5.1220   -0.0760   -0.0830 h4        1 GT1      0.071100
     27 H10         1.7930   -0.7070   -3.2520 hc        1 GT1      0.027367
     28 H11         0.2590   -0.6820   -2.2750 hc        1 GT1      0.027367
     29 H12         0.9950    0.8720   -2.8490 hc        1 GT1      0.027367
@<TRIPOS>BOND
     1    1    2 1   
     2    1   18 1   
     3    2    3 ar  
     4    2   12 ar  
     5    3    4 1   
     6    3    7 ar  
     7    4    5 1   
     8    4   19 1   
     9    4   20 1   
    10    5    6 1   
    11    6   21 1   
    12    6   22 1   
    13    6   23 1   
    14    7    8 1   
    15    7   10 ar  
    16    8    9 1   
    17    8   24 1   
    18    8   25 1   
    19    9   14 1   
    20   10   11 ar  
    21   10   26 1   
    22   11   12 ar  
    23   12   13 1   
    24   13   27 1   
    25   13   28 1   
    26   13   29 1   
    27   14   15 1   
    28   14   16 1   
    29   14   17 1   
@<TRIPOS>SUBSTRUCTURE
     1 GT1         1 TEMP              0 ****  ****    0 ROOT
