@<TRIPOS>MOLECULE
GT1
   29    29     1     0     0
SMALL
bcc


@<TRIPOS>ATOM
      1 O1         -4.2140   -0.2550    0.4440 oh        1 GT1     -0.534100
      2 C4         -2.9820    0.3340    0.2240 ca        1 GT1      0.010800
      3 C6         -1.7700   -0.3110    0.5520 ca        1 GT1     -0.205300
      4 C1         -1.7830   -1.6490    1.2150 c3        1 GT1      0.169700
      5 O3         -2.2700   -2.6810    0.3550 os        1 GT1     -0.468600
      6 C3         -1.3300   -3.0460   -0.6500 c3        1 GT1      0.109700
      7 C2         -0.5720    0.3470    0.2560 ca        1 GT1     -0.085600
      8 C5          0.7670   -0.2750    0.5100 c3        1 GT1      0.203700
      9 O2          1.8030    0.4510   -0.0210 os        1 GT1     -0.557200
     10 C8         -0.6600    1.6450   -0.3220 ca        1 GT1      0.378200
     11 N1         -1.8030    2.2760   -0.6000 nb        1 GT1     -0.673000
     12 C7         -2.9740    1.6300   -0.3390 ca        1 GT1      0.309600
     13 C9         -4.2710    2.3030   -0.6360 c3        1 GT1     -0.112400
     14 P1          3.2660   -0.5150    0.1660 p5        1 GT1      1.309900
     15 O4          3.2830   -0.6710    1.6630 o         1 GT1     -0.927500
     16 O5          2.8580   -1.7550   -0.5870 o         1 GT1     -0.927500
     17 O6          4.3160    0.3570   -0.4550 o         1 GT1     -0.927500
     18 H1         -4.0650   -1.2120    0.4890 ho        1 GT1      0.425000
     19 H2         -0.7590   -1.9180    1.5940 h1        1 GT1      0.060700
     20 H3         -2.5140   -1.6550    2.0700 h1        1 GT1      0.060700
     21 H4         -1.8480   -3.8430   -1.2390 h1        1 GT1      0.044700
     22 H5         -1.0860   -2.1660   -1.2950 h1        1 GT1      0.044700
     23 H6         -0.3910   -3.4380   -0.1840 h1        1 GT1      0.044700
     24 H7          0.9150   -0.3810    1.6280 h1        1 GT1      0.047200
     25 H8          0.7660   -1.3180    0.0580 h1        1 GT1      0.047200
     26 H9          0.2930    2.1600   -0.5660 h4        1 GT1      0.071100
     27 H10        -5.0260    1.5380   -0.9470 hc        1 GT1      0.027367
     28 H11        -4.6490    2.8140    0.2840 hc        1 GT1      0.027367
     29 H12        -4.1710    3.0630   -1.4480 hc        1 GT1      0.027367
@<TRIPOS>BOND
     1    1    2 1   
     2    1   18 1   
     3    2    3 ar  
     4    2   12 ar  
     5    3    4 1   
     6    3    7 ar  
     7    4    5 1   
     8    4   19 1   
     9    4   20 1   
    10    5    6 1   
    11    6   21 1   
    12    6   22 1   
    13    6   23 1   
    14    7    8 1   
    15    7   10 ar  
    16    8    9 1   
    17    8   24 1   
    18    8   25 1   
    19    9   14 1   
    20   10   11 ar  
    21   10   26 1   
    22   11   12 ar  
    23   12   13 1   
    24   13   27 1   
    25   13   28 1   
    26   13   29 1   
    27   14   15 1   
    28   14   16 1   
    29   14   17 1   
@<TRIPOS>SUBSTRUCTURE
     1 GT1         1 TEMP              0 ****  ****    0 ROOT
