@<TRIPOS>MOLECULE
GT1
   29    29     1     0     0
SMALL
bcc


@<TRIPOS>ATOM
      1 O1          0.1450   -0.3700    0.2000 oh        1 GT1     -0.544100
      2 C4          1.4750   -0.0210    0.1150 ca        1 GT1      0.015800
      3 C6          2.3200    0.1820    1.2260 ca        1 GT1     -0.122300
      4 C1          1.8640    0.0340    2.6440 c3        1 GT1      0.107700
      5 O3          0.8900   -0.9970    2.8060 os        1 GT1     -0.480600
      6 C3          1.4480   -2.2480    3.1910 c3        1 GT1      0.095700
      7 C2          3.6410    0.5840    0.9680 ca        1 GT1     -0.116600
      8 C5          4.6450    0.9160    2.0550 c3        1 GT1      0.254700
      9 O2          5.1910   -0.2030    2.6190 os        1 GT1     -0.556200
     10 C8          4.0360    0.7280   -0.3830 ca        1 GT1      0.335200
     11 N1          3.2430    0.5280   -1.4460 nb        1 GT1     -0.686000
     12 C7          1.9630    0.1580   -1.2090 ca        1 GT1      0.312600
     13 C9          1.0230   -0.0680   -2.3450 c3        1 GT1     -0.110400
     14 P1          5.2060   -0.2430    4.3620 p5        1 GT1      1.322900
     15 O4          5.1640    1.2230    4.6930 o         1 GT1     -0.918833
     16 O5          3.9010   -0.9650    4.6140 o         1 GT1     -0.918833
     17 O6          6.4640   -0.9940    4.6700 o         1 GT1     -0.918833
     18 H1         -0.0580   -0.5830    1.1230 ho        1 GT1      0.446000
     19 H2          1.3250    0.9720    2.9530 h1        1 GT1      0.119200
     20 H3          2.7590   -0.1520    3.3460 h1        1 GT1      0.119200
     21 H4          2.3180   -2.1090    3.8960 h1        1 GT1      0.047033
     22 H5          0.6030   -2.7930    3.6830 h1        1 GT1      0.047033
     23 H6          1.7720   -2.7990    2.2730 h1        1 GT1      0.047033
     24 H7          4.1430    1.5670    2.8320 h1        1 GT1      0.010200
     25 H8          5.4560    1.5350    1.5550 h1        1 GT1      0.010200
     26 H9          5.0770    1.0160   -0.6150 h4        1 GT1      0.008100
     27 H10         1.5320   -0.0150   -3.3370 hc        1 GT1      0.025367
     28 H11         0.5470   -1.0740   -2.2340 hc        1 GT1      0.025367
     29 H12         0.2130    0.7020   -2.3140 hc        1 GT1      0.025367
@<TRIPOS>BOND
     1    1    2 1   
     2    1   18 1   
     3    2    3 ar  
     4    2   12 ar  
     5    3    4 1   
     6    3    7 ar  
     7    4    5 1   
     8    4   19 1   
     9    4   20 1   
    10    5    6 1   
    11    6   21 1   
    12    6   22 1   
    13    6   23 1   
    14    7    8 1   
    15    7   10 ar  
    16    8    9 1   
    17    8   24 1   
    18    8   25 1   
    19    9   14 1   
    20   10   11 ar  
    21   10   26 1   
    22   11   12 ar  
    23   12   13 1   
    24   13   27 1   
    25   13   28 1   
    26   13   29 1   
    27   14   15 1   
    28   14   16 1   
    29   14   17 1   
@<TRIPOS>SUBSTRUCTURE
     1 GT1         1 TEMP              0 ****  ****    0 ROOT
