@<TRIPOS>MOLECULE
GT1
   29    23     1     0     0
SMALL
bcc


@<TRIPOS>ATOM
      1 O1         -2.5290    0.0350   -1.4350 oh        1 GT1     -0.288000
      2 C4         -1.0860    0.0480   -1.4160 c1        1 GT1      0.031000
      3 C6         -0.4110    0.0610   -0.2050 c1        1 GT1     -0.198000
      4 C1         -1.2090    0.0250    1.1260 c3        1 GT1      0.012000
      5 O3         -2.2930   -0.9070    1.0100 os        1 GT1     -0.325000
      6 C3         -3.2450   -0.8120    2.0590 c3        1 GT1     -0.080000
      7 C2          0.9670    0.0520   -0.1840 c1        1 GT1     -0.013000
      8 C5          1.7080    0.1430    1.1530 c2        1 GT1      0.046000
      9 O2          3.1050    0.1670    0.9200 os        1 GT1     -0.719000
     10 C8          1.6970    0.0310   -1.4030 c1        1 GT1     -0.087000
     11 N1          1.0210    0.0190   -2.6100 n1        1 GT1     -0.147000
     12 C7         -0.3610    0.0270   -2.6300 c1        1 GT1     -0.113000
     13 C9         -1.0930    0.0610   -3.9470 c2        1 GT1     -0.136000
     14 P1          4.0830    0.3120    2.1610 p3        1 GT1      2.502000
     15 O4          3.8880    1.6550    2.7890 o         1 GT1     -1.242500
     16 O5          3.7840   -0.7530    3.1670 os        1 GT1     -1.256000
     17 O6          5.5360    0.1720    1.6850 o         1 GT1     -1.242500
     18 H1         -2.8380    0.8830   -1.5590 ho        1 GT1      0.224000
     19 H2         -0.6090   -0.2550    1.8700 h1        1 GT1      0.100000
     20 H3         -1.5610    0.9060    1.3120 h1        1 GT1      0.100000
     21 H4         -2.7680   -0.8180    2.9430 h1        1 GT1      0.084000
     22 H5         -3.8850   -1.6090    2.0140 h1        1 GT1      0.084000
     23 H6         -3.7710    0.0550    1.9620 h1        1 GT1      0.084000
     24 H7          1.4390    0.9630    1.6200 h4        1 GT1      0.086500
     25 H8          1.4790   -0.6590    1.7180 h4        1 GT1      0.086500
     26 H9          2.6810    0.0250   -1.3890 ha        1 GT1      0.208000
     27 H10        -1.8530   -0.5730   -3.9190 ha        1 GT1      0.066667
     28 H11        -1.4240    0.9560   -4.1090 ha        1 GT1      0.066667
     29 H12        -0.4510   -0.2090   -4.7020 ha        1 GT1      0.066667
@<TRIPOS>BOND
     1    1    2 1   
     2    1   18 1   
     3    2    3 1   
     4    3    4 1   
     5    4    5 1   
     6    4   19 1   
     7    4   20 1   
     8    5    6 1   
     9    6   21 1   
    10    6   22 1   
    11    6   23 1   
    12    7   10 1   
    13    8    9 1   
    14    8   24 1   
    15    8   25 1   
    16    9   14 1   
    17   10   26 1   
    18   11   12 1   
    19   13   27 1   
    20   13   28 1   
    21   13   29 1   
    22   14   15 1   
    23   14   17 1   
@<TRIPOS>SUBSTRUCTURE
     1 GT1         1 TEMP              0 ****  ****    0 ROOT
