@<TRIPOS>MOLECULE
GT9
   40    39     1     0     0
SMALL
bcc


@<TRIPOS>ATOM
      1 N           1.6190    0.2850   -5.2400 n3        1 GT9     -0.883800
      2 CA          0.3930   -0.2880   -4.7000 c3        1 GT9      0.022500
      3 CB         -0.1070    0.4120   -3.4480 c3        1 GT9      0.031700
      4 SG          0.9770    0.0970   -2.0690 ss        1 GT9     -0.347200
      5 C          -0.8000   -0.3470   -5.7240 c         1 GT9      0.890600
      6 O          -0.5500   -0.0680   -6.9300 o         1 GT9     -0.836800
      7 OXT        -1.9300   -0.6910   -5.2830 o         1 GT9     -0.836800
      8 C1         -0.1280    0.3580   -0.7120 c3        1 GT9     -0.016300
      9 C2          0.6100    0.0480    0.5640 c3        1 GT9     -0.065400
     10 C3         -0.2770    0.2610    1.7740 c3        1 GT9     -0.079400
     11 C4          0.4630   -0.0520    3.0580 c3        1 GT9     -0.078400
     12 C5         -0.4210    0.1600    4.2680 c3        1 GT9     -0.079400
     13 C6          0.3190   -0.1530    5.5510 c3        1 GT9     -0.079400
     14 C7         -0.5650    0.0590    6.7620 c3        1 GT9     -0.079400
     15 C8          0.1730   -0.2540    8.0460 c3        1 GT9     -0.080400
     16 C9         -0.7020   -0.0440    9.2540 c3        1 GT9     -0.091100
     17 H           1.4880    1.2750   -5.3540 hn        1 GT9      0.332300
     18 H2          1.7350   -0.0930   -6.1680 hn        1 GT9      0.332300
     19 HA          0.6300   -1.3620   -4.4390 h1        1 GT9      0.059700
     20 HB2        -1.1300    0.0150   -3.2220 h1        1 GT9      0.068200
     21 HB3        -0.1840    1.5140   -3.6030 h1        1 GT9      0.068200
     22 H11        -1.0260   -0.2980   -0.8160 h1        1 GT9      0.051200
     23 H12        -0.4890    1.4160   -0.7080 h1        1 GT9      0.051200
     24 H21         1.5180    0.7030    0.6450 hc        1 GT9      0.048700
     25 H22         0.9680   -1.0160    0.5440 hc        1 GT9      0.048700
     26 H31        -1.1850   -0.3930    1.6940 hc        1 GT9      0.037700
     27 H32        -0.6350    1.3240    1.7960 hc        1 GT9      0.037700
     28 H41         1.3720    0.6010    3.1360 hc        1 GT9      0.038700
     29 H42         0.8210   -1.1150    3.0350 hc        1 GT9      0.038700
     30 H51        -1.3290   -0.4930    4.1890 hc        1 GT9      0.038200
     31 H52        -0.7790    1.2230    4.2900 hc        1 GT9      0.038200
     32 H61         1.2280    0.5000    5.6300 hc        1 GT9      0.038200
     33 H62         0.6770   -1.2160    5.5290 hc        1 GT9      0.038200
     34 H71        -1.4740   -0.5940    6.6830 hc        1 GT9      0.038700
     35 H72        -0.9230    1.1220    6.7840 hc        1 GT9      0.038700
     36 H81         1.0830    0.3990    8.1220 hc        1 GT9      0.037700
     37 H82         0.5320   -1.3170    8.0200 hc        1 GT9      0.037700
     38 H91        -0.1390   -0.2800   10.1890 hc        1 GT9      0.030033
     39 H92        -1.0500    1.0160    9.3090 hc        1 GT9      0.030033
     40 H93        -1.6020   -0.7050    9.2080 hc        1 GT9      0.030033
@<TRIPOS>BOND
     1    1    2 1   
     2    1   17 1   
     3    1   18 1   
     4    2    3 1   
     5    2    5 1   
     6    2   19 1   
     7    3    4 1   
     8    3   20 1   
     9    3   21 1   
    10    4    8 1   
    11    5    6 1   
    12    5    7 1   
    13    8    9 1   
    14    8   22 1   
    15    8   23 1   
    16    9   10 1   
    17    9   24 1   
    18    9   25 1   
    19   10   11 1   
    20   10   26 1   
    21   10   27 1   
    22   11   12 1   
    23   11   28 1   
    24   11   29 1   
    25   12   13 1   
    26   12   30 1   
    27   12   31 1   
    28   13   14 1   
    29   13   32 1   
    30   13   33 1   
    31   14   15 1   
    32   14   34 1   
    33   14   35 1   
    34   15   16 1   
    35   15   36 1   
    36   15   37 1   
    37   16   38 1   
    38   16   39 1   
    39   16   40 1   
@<TRIPOS>SUBSTRUCTURE
     1 GT9         1 TEMP              0 ****  ****    0 ROOT
