@<TRIPOS>MOLECULE
GTB
   50    48     1     0     0
SMALL
bcc


@<TRIPOS>ATOM
      1 N1         -3.5660   -2.4280    5.6820 n3        1 GTB     -0.327000
      2 CA1        -2.4340   -2.9360    5.0000 c3        1 GTB     -0.128000
      3 C1         -1.4840   -3.5460    5.9920 c2        1 GTB      0.308000
      4 O11        -1.3480   -4.7960    6.0430 o         1 GTB     -0.580000
      5 O12        -0.9220   -2.8170    6.8530 o         1 GTB     -0.580000
      6 CB1        -1.7350   -1.7980    4.2570 c3        1 GTB     -0.142000
      7 CG1        -2.0330   -1.9070    2.7540 c3        1 GTB     -0.174000
      8 CD1        -1.3070   -0.7640    1.9970 c2        1 GTB      0.308000
      9 OE1        -0.4440   -0.1190    2.5570 o         1 GTB     -0.401000
     10 N2         -1.5680   -0.5530    0.5880 n         1 GTB     -0.376000
     11 CA2        -1.0610    0.6070   -0.0670 c3        1 GTB      0.015000
     12 C2         -2.0230    1.7630    0.1340 c2        1 GTB      0.257000
     13 O2         -3.2090    1.6050   -0.0630 o         1 GTB     -0.406000
     14 CB2        -0.9110    0.3260   -1.5500 c3        1 GTB     -0.290000
     15 SG2         0.8230    0.1340   -1.9500 ss        1 GTB      0.048000
     16 N3         -1.5160    3.0690    0.4430 n         1 GTB     -0.312000
     17 CA3        -2.4230    4.1930    0.5390 c3        1 GTB     -0.128000
     18 C3         -1.8480    5.2270    1.4840 c2        1 GTB      0.319000
     19 O31        -1.2450    6.2310    1.0260 o         1 GTB     -0.582000
     20 O32        -2.0440    5.1230    2.7220 o         1 GTB     -0.582000
     21 C'          1.0200    0.0190   -3.7290 c3        1 GTB     -0.274000
     22 C1'         2.5110   -0.0700   -4.0730 c2        1 GTB      0.008000
     23 C2'         3.0450   -1.2640   -4.5410 c2        1 GTB     -0.144000
     24 C3'         4.3760   -1.3240   -4.9320 c1        1 GTB     -0.087000
     25 C4'         5.1740   -0.1900   -4.8550 c1        1 GTB     -0.150000
     26 N41         6.5510   -0.2590   -5.2310 no        1 GTB      0.569000
     27 O41         7.0680   -1.4260   -5.7190 o         1 GTB     -0.388500
     28 O42         7.2730    0.7170   -5.0890 o         1 GTB     -0.388500
     29 C5'         4.6430    1.0030   -4.3880 c1        1 GTB     -0.076000
     30 C6'         3.3100    1.0640   -3.9960 c1        1 GTB     -0.116000
     31 HN11       -3.3490   -2.2720    6.5670 hn        1 GTB      0.127000
     32 HN12       -4.2490   -3.0370    5.6380 hn        1 GTB      0.127000
     33 HA1        -2.7180   -3.6160    4.3600 h1        1 GTB      0.080000
     34 HB11       -2.0610   -0.9440    4.5910 hc        1 GTB      0.094500
     35 HB12       -0.7750   -1.8580    4.4010 hc        1 GTB      0.094500
     36 HG11       -2.9960   -1.8350    2.6060 hc        1 GTB      0.105500
     37 HG12       -1.7170   -2.7690    2.4210 hc        1 GTB      0.105500
     38 HN2        -2.0550   -1.1640    0.1180 hn        1 GTB      0.242000
     39 HA2        -0.1880    0.8400    0.3110 h1        1 GTB      0.150000
     40 HB21       -1.3940   -0.5020   -1.7780 h1        1 GTB      0.127000
     41 HB22       -1.2860    1.0760   -2.0650 h1        1 GTB      0.127000
     42 HN3        -0.6150    3.2040    0.5150 hn        1 GTB      0.232000
     43 HA31       -3.2890    3.8860    0.8800 h1        1 GTB      0.093000
     44 HA32       -2.5440    4.5930   -0.3500 h1        1 GTB      0.093000
     45 H'1         0.5650   -0.7750   -4.0540 h1        1 GTB      0.150500
     46 H'2         0.6370    0.8080   -4.1490 h1        1 GTB      0.150500
     47 H2'         2.4850   -2.0720   -4.5770 ha        1 GTB      0.154000
     48 H3'         4.7510   -2.1630   -5.2610 ha        1 GTB      0.152000
     49 H5'         5.2050    1.8010   -4.3340 ha        1 GTB      0.163000
     50 H6'         2.9190    1.9180   -3.7270 ha        1 GTB      0.234000
@<TRIPOS>BOND
     1    1    2 1   
     2    1   31 1   
     3    1   32 1   
     4    2    3 1   
     5    2    6 1   
     6    2   33 1   
     7    3    4 1   
     8    3    5 1   
     9    6    7 1   
    10    6   34 1   
    11    6   35 1   
    12    7    8 1   
    13    7   36 1   
    14    7   37 1   
    15    8    9 1   
    16    8   10 1   
    17   10   11 1   
    18   10   38 1   
    19   11   12 1   
    20   11   14 1   
    21   11   39 1   
    22   12   13 1   
    23   12   16 1   
    24   14   15 1   
    25   14   40 1   
    26   14   41 1   
    27   15   21 1   
    28   16   17 1   
    29   16   42 1   
    30   17   18 1   
    31   17   43 1   
    32   17   44 1   
    33   18   19 1   
    34   18   20 1   
    35   21   22 1   
    36   21   45 1   
    37   21   46 1   
    38   22   23 1   
    39   22   30 1   
    40   23   24 1   
    41   23   47 1   
    42   24   48 1   
    43   25   26 1   
    44   25   29 1   
    45   26   27 1   
    46   26   28 1   
    47   29   49 1   
    48   30   50 1   
@<TRIPOS>SUBSTRUCTURE
     1 GTB         1 TEMP              0 ****  ****    0 ROOT
