@<TRIPOS>MOLECULE
GTB
   53    53     1     0     0
SMALL
bcc


@<TRIPOS>ATOM
      1 N1          1.5720   -1.5060   -1.4040 n4        1 GTB     -0.829600
      2 CA1         1.1250   -0.2630   -2.1070 c3        1 GTB     -0.051500
      3 C1          1.9020   -0.1460   -3.4820 c         1 GTB      0.924600
      4 O11         2.9640   -0.8010   -3.5830 o         1 GTB     -0.784800
      5 O12         1.3900    0.6230   -4.3350 o         1 GTB     -0.784800
      6 CB1         1.3750    0.9940   -1.2720 c3        1 GTB     -0.084400
      7 CG1         0.8080    2.2260   -1.9600 c3        1 GTB     -0.141400
      8 CD1         1.9030    3.1100   -2.5060 c         1 GTB      0.563100
      9 OE1         2.6960    3.7680   -1.8450 o         1 GTB     -0.432100
     10 N2          2.0180    3.1630   -3.9990 n4        1 GTB     -0.674800
     11 CA2         2.6250    4.4050   -4.5650 c3        1 GTB      0.054500
     12 C2          1.5470    5.4990   -4.7540 c         1 GTB      0.646100
     13 O2          0.3350    5.2070   -4.6520 o         1 GTB     -0.624100
     14 CB2         3.2880    4.1280   -5.9180 c3        1 GTB     -0.076300
     15 SG2         4.3060    2.6910   -5.8450 ss        1 GTB     -0.253200
     16 N3          1.9800    6.7680   -5.0160 n         1 GTB     -0.522900
     17 CA3         1.0510    7.8380   -5.2690 c3        1 GTB     -0.012000
     18 C3          0.4300    7.7740   -6.6590 c         1 GTB      0.596100
     19 O31        -0.6070    6.9260   -6.8870 oh        1 GTB     -0.565100
     20 O32         0.7900    8.4360   -7.6270 o         1 GTB     -0.452000
     21 C'          3.5060    1.5250   -6.9430 c3        1 GTB      0.033000
     22 C1'         4.5220    0.4950   -7.2470 ca        1 GTB     -0.068300
     23 C2'         4.6440   -0.6290   -6.4190 ca        1 GTB     -0.116000
     24 C3'         5.5890   -1.6120   -6.7010 ca        1 GTB     -0.071500
     25 C4'         6.4160   -1.4660   -7.8260 ca        1 GTB     -0.157200
     26 N41         7.4310   -2.5130   -8.1310 no        1 GTB      0.311200
     27 O41         7.5200   -3.4600   -7.3970 o         1 GTB     -0.196500
     28 O42         8.1290   -2.3770   -9.0980 o         1 GTB     -0.196500
     29 C5'         6.2980   -0.3480   -8.6680 ca        1 GTB     -0.071500
     30 C6'         5.3490    0.6260   -8.3710 ca        1 GTB     -0.116000
     31 HN11        1.5620   -1.3930   -0.3910 hn        1 GTB      0.462133
     32 HN12        2.5400   -1.7140   -1.7290 hn        1 GTB      0.462133
     33 HA1         0.0250   -0.3650   -2.3300 hx        1 GTB      0.113700
     34 HB11        0.8730    0.8940   -0.2710 hc        1 GTB      0.077200
     35 HB12        2.4750    1.1190   -1.0820 hc        1 GTB      0.077200
     36 HG11        0.2490    2.8560   -1.2100 hc        1 GTB      0.119700
     37 HG12        0.0800    1.9220   -2.7640 hc        1 GTB      0.119700
     38 HN2         2.6110    2.3360   -4.3080 hn        1 GTB      0.504300
     39 HA2         3.4080    4.7640   -3.8260 hx        1 GTB      0.143700
     40 HB21        3.9490    5.0010   -6.1620 h1        1 GTB      0.112200
     41 HB22        2.5200    4.0480   -6.7280 h1        1 GTB      0.112200
     42 HN3        -0.8460    6.4530   -6.0730 ho        1 GTB      0.446000
     43 HA31        0.2240    7.8040   -4.5000 h1        1 GTB      0.105700
     44 HA32        1.6020    8.8180   -5.1730 h1        1 GTB      0.105700
     45 H'1         2.6210    1.0720   -6.4230 h1        1 GTB      0.095200
     46 H'2         3.1560    2.0400   -7.8710 h1        1 GTB      0.095200
     47 H2'         3.9880   -0.7430   -5.5350 ha        1 GTB      0.167000
     48 H3'         5.6860   -2.4960   -6.0480 ha        1 GTB      0.178000
     49 H5'         6.9490   -0.2450   -9.5530 ha        1 GTB      0.178000
     50 H6'         5.2530    1.5040   -9.0290 ha        1 GTB      0.167000
     51 H13         0.9700   -2.2870   -1.6720 hn        1 GTB      0.462133
     52 H22         1.0770    3.0190   -4.4060 hn        1 GTB      0.504300
     53 H32         2.9440    6.9420   -5.1890 hn        1 GTB      0.342500
@<TRIPOS>BOND
     1    1    2 1   
     2    1   31 1   
     3    1   32 1   
     4    1   51 1   
     5    2    3 1   
     6    2    6 1   
     7    2   33 1   
     8    3    4 1   
     9    3    5 1   
    10    6    7 1   
    11    6   34 1   
    12    6   35 1   
    13    7    8 1   
    14    7   36 1   
    15    7   37 1   
    16    8    9 2   
    17    8   10 1   
    18   10   11 1   
    19   10   38 1   
    20   10   52 1   
    21   11   12 1   
    22   11   14 1   
    23   11   39 1   
    24   12   13 2   
    25   12   16 1   
    26   14   15 1   
    27   14   40 1   
    28   14   41 1   
    29   15   21 1   
    30   16   17 1   
    31   16   53 1   
    32   17   18 1   
    33   17   43 1   
    34   17   44 1   
    35   18   19 1   
    36   18   20 2   
    37   19   42 1   
    38   21   22 1   
    39   21   45 1   
    40   21   46 1   
    41   22   23 ar  
    42   22   30 ar  
    43   23   24 ar  
    44   23   47 1   
    45   24   25 ar  
    46   24   48 1   
    47   25   26 1   
    48   25   29 ar  
    49   26   27 1   
    50   26   28 1   
    51   29   30 ar  
    52   29   49 1   
    53   30   50 1   
@<TRIPOS>SUBSTRUCTURE
     1 GTB         1 TEMP              0 ****  ****    0 ROOT
