@<TRIPOS>MOLECULE
GTB
   50    50     1     0     0
SMALL
bcc


@<TRIPOS>ATOM
      1 N1         -6.2240    4.2510   -0.1720 n3        1 GTB     -0.894800
      2 CA1        -5.0270    4.2570    0.6600 c3        1 GTB      0.019500
      3 C1         -4.3980    5.6750    0.8720 c         1 GTB      0.888600
      4 O11        -4.9860    6.6700    0.3570 o         1 GTB     -0.845300
      5 O12        -3.3520    5.7520    1.5730 o         1 GTB     -0.845300
      6 CB1        -3.9330    3.3090    0.1620 c3        1 GTB     -0.062400
      7 CG1        -4.3840    1.8650    0.2000 c3        1 GTB     -0.145400
      8 CD1        -3.3230    0.9120   -0.3170 c         1 GTB      0.663100
      9 OE1        -3.4500    0.3260   -1.4140 o         1 GTB     -0.639100
     10 N2         -2.2000    0.7170    0.4690 n         1 GTB     -0.557900
     11 CA2        -1.1990   -0.2730    0.1700 c3        1 GTB      0.033700
     12 C2         -1.1610   -1.3790    1.2670 c         1 GTB      0.612100
     13 O2         -1.2610   -1.0660    2.4740 o         1 GTB     -0.637100
     14 CB2         0.2250    0.3080    0.0920 c3        1 GTB     -0.022300
     15 SG2         0.9890    0.0730   -1.4860 ss        1 GTB     -0.315200
     16 N3         -1.0650   -2.6840    0.8390 n         1 GTB     -0.506900
     17 CA3        -0.5940   -3.7330    1.7100 c3        1 GTB     -0.058000
     18 C3          0.6720   -4.4630    1.1950 c         1 GTB      0.897600
     19 O31         1.1300   -4.1690    0.0460 o         1 GTB     -0.848800
     20 O32         1.1900   -5.3250    1.9520 o         1 GTB     -0.848800
     21 C'          1.8380   -1.4740   -1.3930 c3        1 GTB     -0.012000
     22 C1'         3.2290   -1.4110   -0.8880 ca        1 GTB     -0.016300
     23 C2'         3.7200   -2.4680   -0.1060 ca        1 GTB     -0.136000
     24 C3'         5.0410   -2.4650    0.3330 ca        1 GTB     -0.079000
     25 C4'         5.8800   -1.3930   -0.0170 ca        1 GTB     -0.197200
     26 N41         7.2920   -1.3870    0.4250 no        1 GTB      0.314200
     27 O41         7.7160   -2.3040    1.0820 o         1 GTB     -0.238000
     28 O42         8.0070   -0.4660    0.1150 o         1 GTB     -0.238000
     29 C5'         5.3940   -0.3210   -0.7860 ca        1 GTB     -0.079000
     30 C6'         4.0730   -0.3410   -1.2140 ca        1 GTB     -0.136000
     31 HN11       -6.7320    5.0970    0.0320 hn        1 GTB      0.331300
     32 HN12       -5.9460    4.3160   -1.1350 hn        1 GTB      0.331300
     33 HA1        -5.3550    3.9050    1.6830 h1        1 GTB      0.040700
     34 HB11       -3.6310    3.5840   -0.8820 hc        1 GTB      0.056200
     35 HB12       -3.0390    3.4610    0.8240 hc        1 GTB      0.056200
     36 HG11       -4.6670    1.5820    1.2480 hc        1 GTB      0.065700
     37 HG12       -5.2910    1.7280   -0.4470 hc        1 GTB      0.065700
     38 HN2        -2.1760    1.1090    1.3820 hn        1 GTB      0.326500
     39 HA2        -1.4580   -0.7240   -0.8380 h1        1 GTB      0.111700
     40 HB21        0.2100    1.4210    0.2220 h1        1 GTB      0.090200
     41 HB22        0.8620   -0.1180    0.9040 h1        1 GTB      0.090200
     42 HN3        -0.8030   -2.8240   -0.1170 hn        1 GTB      0.309500
     43 HA31       -0.3790   -3.3230    2.7350 h1        1 GTB      0.054200
     44 HA32       -1.4160   -4.4960    1.8060 h1        1 GTB      0.054200
     45 H'1         1.2520   -2.2330   -0.7990 h1        1 GTB      0.120700
     46 H'2         1.8590   -1.8400   -2.4550 h1        1 GTB      0.120700
     47 H2'         3.0410   -3.3130    0.1600 ha        1 GTB      0.194000
     48 H3'         5.4200   -3.2970    0.9480 ha        1 GTB      0.159000
     49 H5'         6.0530    0.5230   -1.0440 ha        1 GTB      0.159000
     50 H6'         3.6720    0.5000   -1.8050 ha        1 GTB      0.194000
@<TRIPOS>BOND
     1    1    2 1   
     2    1   31 1   
     3    1   32 1   
     4    2    3 1   
     5    2    6 1   
     6    2   33 1   
     7    3    4 1   
     8    3    5 1   
     9    6    7 1   
    10    6   34 1   
    11    6   35 1   
    12    7    8 1   
    13    7   36 1   
    14    7   37 1   
    15    8    9 2   
    16    8   10 1   
    17   10   11 1   
    18   10   38 1   
    19   11   12 1   
    20   11   14 1   
    21   11   39 1   
    22   12   13 2   
    23   12   16 1   
    24   14   15 1   
    25   14   40 1   
    26   14   41 1   
    27   15   21 1   
    28   16   17 1   
    29   16   42 1   
    30   17   18 1   
    31   17   43 1   
    32   17   44 1   
    33   18   19 1   
    34   18   20 1   
    35   21   22 1   
    36   21   45 1   
    37   21   46 1   
    38   22   23 ar  
    39   22   30 ar  
    40   23   24 ar  
    41   23   47 1   
    42   24   25 ar  
    43   24   48 1   
    44   25   26 1   
    45   25   29 ar  
    46   26   27 1   
    47   26   28 1   
    48   29   30 ar  
    49   29   49 1   
    50   30   50 1   
@<TRIPOS>SUBSTRUCTURE
     1 GTB         1 TEMP              0 ****  ****    0 ROOT
