@<TRIPOS>MOLECULE
GTB
   50    50     1     0     0
SMALL
bcc


@<TRIPOS>ATOM
      1 N1          1.2320    1.0800    1.9020 n3        1 GTB     -0.895800
      2 CA1         0.7490    0.4470    0.6800 c3        1 GTB      0.019500
      3 C1          0.8020   -1.1170    0.7030 c         1 GTB      0.888600
      4 O11         1.2260   -1.6830    1.7530 o         1 GTB     -0.845300
      5 O12         0.3870   -1.7320   -0.3170 o         1 GTB     -0.845300
      6 CB1         1.4560    0.9430   -0.5840 c3        1 GTB     -0.062400
      7 CG1         1.1680    2.4070   -0.8410 c3        1 GTB     -0.147400
      8 CD1         1.9170    2.9620   -2.0380 c         1 GTB      0.662100
      9 OE1         2.8010    3.8360   -1.9010 o         1 GTB     -0.641100
     10 N2          1.5930    2.4650   -3.2900 n         1 GTB     -0.545900
     11 CA2         2.0610    3.0790   -4.5040 c3        1 GTB      0.026700
     12 C2          0.9390    3.8650   -5.2470 c         1 GTB      0.612100
     13 O2         -0.2620    3.5570   -5.1130 o         1 GTB     -0.616100
     14 CB2         2.6090    2.0770   -5.5350 c3        1 GTB     -0.034300
     15 SG2         4.3660    1.8900   -5.4300 ss        1 GTB     -0.299200
     16 N3          1.3590    4.9440   -6.0220 n         1 GTB     -0.491900
     17 CA3         0.6780    5.2300   -7.2670 c3        1 GTB     -0.070000
     18 C3          1.4380    4.7370   -8.5260 c         1 GTB      0.900600
     19 O31         2.4650    4.0050   -8.3630 o         1 GTB     -0.855300
     20 O32         1.0010    5.0920   -9.6500 o         1 GTB     -0.855300
     21 C'          4.9760    2.8680   -6.7780 c3        1 GTB     -0.008000
     22 C1'         5.4440    2.0330   -7.9070 ca        1 GTB     -0.002300
     23 C2'         4.7330    2.0240   -9.1170 ca        1 GTB     -0.135000
     24 C3'         5.1820    1.2630  -10.1920 ca        1 GTB     -0.077500
     25 C4'         6.3590    0.5050  -10.0590 ca        1 GTB     -0.198200
     26 N41         6.8560   -0.2940  -11.2000 no        1 GTB      0.314200
     27 O41         6.2370   -0.3070  -12.2340 o         1 GTB     -0.238500
     28 O42         7.8810   -0.9190  -11.0840 o         1 GTB     -0.238500
     29 C5'         7.0750    0.4990   -8.8480 ca        1 GTB     -0.077500
     30 C6'         6.6120    1.2640   -7.7850 ca        1 GTB     -0.135000
     31 HN11        0.9650    0.4850    2.6710 hn        1 GTB      0.331300
     32 HN12        2.2360    1.0850    1.8860 hn        1 GTB      0.331300
     33 HA1        -0.3450    0.7190    0.5980 h1        1 GTB      0.040700
     34 HB11        1.0890    0.3120   -1.4380 hc        1 GTB      0.056200
     35 HB12        2.5620    0.7830   -0.4980 hc        1 GTB      0.056200
     36 HG11        1.4740    3.0200    0.0480 hc        1 GTB      0.066200
     37 HG12        0.0670    2.5550   -0.9950 hc        1 GTB      0.066200
     38 HN2         0.7900    1.8830   -3.3740 hn        1 GTB      0.321500
     39 HA2         2.8930    3.7960   -4.2170 h1        1 GTB      0.108700
     40 HB21        2.1780    1.0580   -5.3740 h1        1 GTB      0.105700
     41 HB22        2.3350    2.4090   -6.5740 h1        1 GTB      0.105700
     42 HN3         2.3550    4.9680   -6.1500 hn        1 GTB      0.283500
     43 HA31        0.5610    6.3460   -7.3390 h1        1 GTB      0.055200
     44 HA32       -0.3450    4.7660   -7.2650 h1        1 GTB      0.055200
     45 H'1         4.1850    3.5890   -7.1320 h1        1 GTB      0.108700
     46 H'2         5.8320    3.4600   -6.3660 h1        1 GTB      0.108700
     47 H2'         3.8080    2.6370   -9.2150 ha        1 GTB      0.188000
     48 H3'         4.6200    1.2600  -11.1400 ha        1 GTB      0.158000
     49 H5'         7.9900   -0.1040   -8.7460 ha        1 GTB      0.158000
     50 H6'         7.1610    1.2590   -6.8310 ha        1 GTB      0.188000
@<TRIPOS>BOND
     1    1    2 1   
     2    1   31 1   
     3    1   32 1   
     4    2    3 1   
     5    2    6 1   
     6    2   33 1   
     7    3    4 1   
     8    3    5 1   
     9    6    7 1   
    10    6   34 1   
    11    6   35 1   
    12    7    8 1   
    13    7   36 1   
    14    7   37 1   
    15    8    9 2   
    16    8   10 1   
    17   10   11 1   
    18   10   38 1   
    19   11   12 1   
    20   11   14 1   
    21   11   39 1   
    22   12   13 2   
    23   12   16 1   
    24   14   15 1   
    25   14   40 1   
    26   14   41 1   
    27   15   21 1   
    28   16   17 1   
    29   16   42 1   
    30   17   18 1   
    31   17   43 1   
    32   17   44 1   
    33   18   19 1   
    34   18   20 1   
    35   21   22 1   
    36   21   45 1   
    37   21   46 1   
    38   22   23 ar  
    39   22   30 ar  
    40   23   24 ar  
    41   23   47 1   
    42   24   25 ar  
    43   24   48 1   
    44   25   26 1   
    45   25   29 ar  
    46   26   27 1   
    47   26   28 1   
    48   29   30 ar  
    49   29   49 1   
    50   30   50 1   
@<TRIPOS>SUBSTRUCTURE
     1 GTB         1 TEMP              0 ****  ****    0 ROOT
