@<TRIPOS>MOLECULE
GTB
   53    53     1     0     0
SMALL
bcc


@<TRIPOS>ATOM
      1 N1          1.6890   -1.6290   -1.3500 nz        1 GTB     -0.829600
      2 CA1         1.2210   -0.3720   -2.0130 c3        1 GTB     -0.052500
      3 C1          2.0050   -0.1930   -3.3780 c         1 GTB      0.924600
      4 O11         3.0810   -0.8230   -3.4910 o         1 GTB     -0.783800
      5 O12         1.4830    0.5910   -4.2100 o         1 GTB     -0.783800
      6 CB1         1.4390    0.8600   -1.1330 c3        1 GTB     -0.083400
      7 CG1         0.8480    2.1030   -1.7790 c3        1 GTB     -0.141400
      8 CD1         1.9250    3.0320   -2.2840 c         1 GTB      0.563100
      9 OE1         2.6820    3.6980   -1.5890 o         1 GTB     -0.435100
     10 N2          2.0730    3.1230   -3.7710 ny        1 GTB     -0.675800
     11 CA2         2.5630    4.4320   -4.2960 c3        1 GTB      0.044500
     12 C2          1.3760    5.3870   -4.5760 c         1 GTB      0.644100
     13 O2          0.2060    5.0000   -4.4010 o         1 GTB     -0.582100
     14 CB2         3.3610    4.2590   -5.5970 c3        1 GTB     -0.085300
     15 SG2         4.3280    2.7880   -5.6180 ss        1 GTB     -0.244200
     16 N3          1.6970    6.6720   -4.9730 ns        1 GTB     -0.494900
     17 CA3         0.7410    7.4300   -5.7400 c3        1 GTB     -0.027000
     18 C3          0.7340    7.0650   -7.2170 c         1 GTB      0.600100
     19 O31        -0.0580    7.7600   -8.0700 oh        1 GTB     -0.541100
     20 O32         1.3980    6.1670   -7.7390 o         1 GTB     -0.508000
     21 C'          3.4980    1.7300   -6.8000 c3        1 GTB      0.030000
     22 C1'         4.4810    0.6920   -7.1760 ca        1 GTB     -0.065300
     23 C2'         4.5940   -0.4730   -6.4040 ca        1 GTB     -0.116500
     24 C3'         5.5080   -1.4630   -6.7540 ca        1 GTB     -0.071000
     25 C4'         6.3140   -1.2830   -7.8890 ca        1 GTB     -0.158200
     26 N41         7.2950   -2.3380   -8.2670 no        1 GTB      0.311200
     27 O41         7.3760   -3.3220   -7.5820 o         1 GTB     -0.198000
     28 O42         7.9770   -2.1720   -9.2410 o         1 GTB     -0.198000
     29 C5'         6.2050   -0.1240   -8.6740 ca        1 GTB     -0.071000
     30 C6'         5.2870    0.8580   -8.3100 ca        1 GTB     -0.116500
     31 HN11        1.1040   -2.4120   -1.6470 hn        1 GTB      0.461467
     32 HN12        2.6620   -1.8060   -1.6790 hn        1 GTB      0.461467
     33 HA1         0.1250   -0.4890   -2.2480 hx        1 GTB      0.112700
     34 HB11        0.9360    0.7130   -0.1380 hc        1 GTB      0.075700
     35 HB12        2.5350    1.0020   -0.9340 hc        1 GTB      0.075700
     36 HG11        0.2680    2.6910   -1.0120 hc        1 GTB      0.119200
     37 HG12        0.1330    1.8130   -2.6000 hc        1 GTB      0.119200
     38 HN2         1.1610    2.8900   -4.2050 hn        1 GTB      0.503800
     39 HA2         3.2320    4.8870   -3.5010 hx        1 GTB      0.141700
     40 HB21        4.0800    5.1170   -5.6700 h1        1 GTB      0.121200
     41 HB22        2.6810    4.3200   -6.4880 h1        1 GTB      0.121200
     42 HN3         2.6530    6.8490   -5.2010 hn        1 GTB      0.321500
     43 HA31       -0.2950    7.2520   -5.3250 h1        1 GTB      0.111700
     44 HA32        0.9960    8.5240   -5.6330 h1        1 GTB      0.111700
     45 H'1         2.5980    1.2670   -6.3160 h1        1 GTB      0.096700
     46 H'2         3.1670    2.3220   -7.6880 h1        1 GTB      0.096700
     47 H2'         3.9550   -0.6130   -5.5110 ha        1 GTB      0.167500
     48 H3'         5.5980   -2.3790   -6.1450 ha        1 GTB      0.177500
     49 H5'         6.8400    0.0070   -9.5680 ha        1 GTB      0.177500
     50 H6'         5.1990    1.7680   -8.9240 ha        1 GTB      0.167500
     51 H13         1.6740   -1.5510   -0.3340 hn        1 GTB      0.461467
     52 H22         2.7530    2.3640   -4.0840 hn        1 GTB      0.503800
     53 H32        -0.5570    8.4390   -7.5920 ho        1 GTB      0.439000
@<TRIPOS>BOND
     1    1    2 1   
     2    1   31 1   
     3    1   32 1   
     4    1   51 1   
     5    2    3 1   
     6    2    6 1   
     7    2   33 1   
     8    3    4 1   
     9    3    5 1   
    10    6    7 1   
    11    6   34 1   
    12    6   35 1   
    13    7    8 1   
    14    7   36 1   
    15    7   37 1   
    16    8    9 2   
    17    8   10 1   
    18   10   11 1   
    19   10   38 1   
    20   10   52 1   
    21   11   12 1   
    22   11   14 1   
    23   11   39 1   
    24   12   13 2   
    25   12   16 1   
    26   14   15 1   
    27   14   40 1   
    28   14   41 1   
    29   15   21 1   
    30   16   17 1   
    31   16   42 1   
    32   17   18 1   
    33   17   43 1   
    34   17   44 1   
    35   18   19 1   
    36   18   20 2   
    37   19   53 1   
    38   21   22 1   
    39   21   45 1   
    40   21   46 1   
    41   22   23 ar  
    42   22   30 ar  
    43   23   24 ar  
    44   23   47 1   
    45   24   25 ar  
    46   24   48 1   
    47   25   26 1   
    48   25   29 ar  
    49   26   27 1   
    50   26   28 1   
    51   29   30 ar  
    52   29   49 1   
    53   30   50 1   
@<TRIPOS>SUBSTRUCTURE
     1 GTB         1 TEMP              0 ****  ****    0 ROOT
