@<TRIPOS>MOLECULE
GTC
   27    26     1     0     0
SMALL
bcc


@<TRIPOS>ATOM
      1 C6          0.1420    0.2690   -0.2450 c3        1 GTC     -0.017000
      2 C2          0.7100   -1.6020    3.8510 c2        1 GTC     -0.559000
      3 C5          1.4820   -0.4710   -0.2610 c3        1 GTC     -0.184000
      4 C4          2.3860    0.0630    0.8270 c3        1 GTC     -0.188000
      5 C10        -1.0660   -0.1850   -3.7280 c2        1 GTC      0.077000
      6 C12         1.2930   -2.0000   -0.1050 c2        1 GTC      0.340000
      7 O14         1.5670   -2.5460    0.9990 o         1 GTC     -0.571500
      8 C3          1.4440   -1.1880    4.8320 c1        1 GTC      0.079000
      9 C1         -0.8720   -0.4190    0.6490 c3        1 GTC     -0.216000
     10 C7         -0.4260    0.4040   -1.6280 c2        1 GTC     -0.003000
     11 N8         -0.9920    1.5120   -2.1660 n2        1 GTC     -0.117000
     12 N9         -1.3810    1.1560   -3.4060 ns        1 GTC     -0.251000
     13 N11        -0.4610   -0.6560   -2.5630 ns        1 GTC     -0.233000
     14 H6          0.3170    1.3130    0.1480 hc        1 GTC      0.098000
     15 H2         -1.7960    0.1970    0.7450 hc        1 GTC      0.087000
     16 H2A        -0.3810   -1.7120    3.8090 ha        1 GTC      0.233000
     17 H5          1.9070   -0.0700    1.8280 hc        1 GTC      0.066333
     18 H4          1.1740   -1.9230    2.8740 ha        1 GTC      0.233000
     19 H4A         1.9840   -0.3030   -1.2530 hc        1 GTC      0.088000
     20 H3          3.3450   -0.5080    0.8270 hc        1 GTC      0.066333
     21 H3A         2.6070    1.1470    0.6700 hc        1 GTC      0.066333
     22 H1         -0.4210   -0.5750    1.6620 hc        1 GTC      0.087000
     23 H1A        -1.1380   -1.4240    0.2350 hc        1 GTC      0.087000
     24 HN9        -1.7790    1.8190   -4.0260 hn        1 GTC      0.280000
     25 HN11       -0.0630   -1.5740   -2.3930 hn        1 GTC      0.349000
     26 O13         0.8810   -2.6530   -1.1110 o         1 GTC     -0.571500
     27 S15        -1.3770   -0.9160   -5.1130 s         1 GTC     -0.326000
@<TRIPOS>BOND
     1    1    3 1   
     2    1    9 1   
     3    1   10 1   
     4    1   14 1   
     5    2    8 1   
     6    2   16 1   
     7    2   18 1   
     8    3    4 1   
     9    3    6 1   
    10    3   19 1   
    11    4   17 1   
    12    4   20 1   
    13    4   21 1   
    14    5   12 1   
    15    5   13 1   
    16    5   27 1   
    17    6    7 1   
    18    6   26 1   
    19    9   15 1   
    20    9   22 1   
    21    9   23 1   
    22   10   11 1   
    23   10   13 1   
    24   11   12 1   
    25   12   24 1   
    26   13   25 1   
@<TRIPOS>SUBSTRUCTURE
     1 GTC         1 TEMP              0 ****  ****    0 ROOT
