@<TRIPOS>MOLECULE
GTC
   27    26     1     0     0
SMALL
bcc


@<TRIPOS>ATOM
      1 C6         -0.0830    0.0930    0.1580 c3        1 GTC     -0.018000
      2 C2          1.1630   -1.4540    3.8450 c2        1 GTC     -0.567000
      3 C5          1.3230   -0.4950    0.2470 c3        1 GTC     -0.185000
      4 C4          2.3030    0.1930   -0.6690 c3        1 GTC     -0.196000
      5 C10        -1.0000    0.0300   -3.4440 c2        1 GTC      0.075000
      6 C12         1.3470   -2.0270    0.0250 c2        1 GTC      0.339000
      7 O14         1.5180   -2.7570    1.0420 o         1 GTC     -0.566000
      8 C3          1.3580   -2.0420    4.9810 c1        1 GTC      0.084000
      9 C1         -1.0860   -0.8130    0.8490 c3        1 GTC     -0.216000
     10 C7         -0.5440    0.3680   -1.2430 c2        1 GTC      0.004000
     11 N8         -1.1570    1.4980   -1.6730 n2        1 GTC     -0.121000
     12 N9         -1.4430    1.2880   -2.9720 n         1 GTC     -0.249000
     13 N11        -0.4460   -0.5580   -2.3060 n         1 GTC     -0.230000
     14 H6         -0.0670    1.0880    0.6950 hc        1 GTC      0.091000
     15 H2         -2.0920   -0.3340    0.8870 hc        1 GTC      0.087000
     16 H2A         0.8400   -0.4260    3.6450 ha        1 GTC      0.231000
     17 H5          1.6530   -0.3310    1.3150 hc        1 GTC      0.087000
     18 H4          2.1360    1.2980   -0.6800 hc        1 GTC      0.068667
     19 H4A         2.2100   -0.2000   -1.7110 hc        1 GTC      0.068667
     20 H3          3.3460   -0.0050   -0.3220 hc        1 GTC      0.068667
     21 H3A         1.3310   -2.0160    2.8770 ha        1 GTC      0.231000
     22 H1         -1.1620   -1.7900    0.3100 hc        1 GTC      0.087000
     23 H1A        -0.7340   -1.0240    1.8890 hc        1 GTC      0.087000
     24 HN9        -1.8200    2.0120   -3.5350 hn        1 GTC      0.280000
     25 HN11        0.0640   -1.4330   -2.2500 hn        1 GTC      0.348000
     26 O13         1.2110   -2.4960   -1.1430 o         1 GTC     -0.566000
     27 S15        -1.1670   -0.5270   -4.9310 s         1 GTC     -0.323000
@<TRIPOS>BOND
     1    1    3 1   
     2    1    9 1   
     3    1   10 1   
     4    1   14 1   
     5    2    8 1   
     6    2   16 1   
     7    2   21 1   
     8    3    4 1   
     9    3    6 1   
    10    3   17 1   
    11    4   18 1   
    12    4   19 1   
    13    4   20 1   
    14    5   12 1   
    15    5   13 1   
    16    5   27 1   
    17    6    7 1   
    18    6   26 1   
    19    9   15 1   
    20    9   22 1   
    21    9   23 1   
    22   10   11 1   
    23   10   13 1   
    24   11   12 1   
    25   12   24 1   
    26   13   25 1   
@<TRIPOS>SUBSTRUCTURE
     1 GTC         1 TEMP              0 ****  ****    0 ROOT
