@<TRIPOS>MOLECULE
GTC
   27    26     1     0     0
SMALL
bcc


@<TRIPOS>ATOM
      1 C6         -0.2680    0.4450    0.0460 c3        1 GTC     -0.014000
      2 C2         -0.1670   -0.7110    2.3180 c3        1 GTC     -0.140000
      3 C5          1.3110    0.5130    0.0470 c3        1 GTC     -0.181000
      4 C4          1.8280    0.5220    1.5030 c3        1 GTC     -0.123000
      5 C10        -2.3550    0.9870   -2.9230 c1        1 GTC      0.070000
      6 O13         2.7110   -0.3190   -1.7510 o         1 GTC     -0.562500
      7 C12         1.9410   -0.6060   -0.7890 c2        1 GTC      0.329000
      8 O14         1.7620   -1.8190   -0.4610 o         1 GTC     -0.562500
      9 C3          1.2920   -0.6060    2.3370 c3        1 GTC     -0.167000
     10 C1         -0.7430   -0.7440    0.9540 c3        1 GTC     -0.157000
     11 C7         -0.8410    0.3640   -1.3570 c2        1 GTC      0.010000
     12 N8         -1.4260   -0.7230   -1.7600 n1        1 GTC     -0.129000
     13 N9         -2.3660   -0.5150   -2.7030 n1        1 GTC     -0.242000
     14 N11        -1.2940    1.4830   -1.9650 n3        1 GTC     -0.233000
     15 S15        -2.8890    1.7860   -4.2990 s         1 GTC     -0.317000
     16 H6         -0.6490    1.2880    0.3550 hc        1 GTC      0.087000
     17 H2         -0.5470    0.0630    2.8030 hc        1 GTC      0.057500
     18 H2A        -0.4280   -1.5370    2.7890 hc        1 GTC      0.057500
     19 H5          1.6210    1.3000   -0.4320 hc        1 GTC      0.085000
     20 H4          2.8070    0.4630    1.4890 hc        1 GTC      0.061500
     21 H4A         1.5720    1.3650    1.9200 hc        1 GTC      0.061500
     22 H3          1.6680   -1.4420    2.0060 hc        1 GTC      0.092000
     23 H3A         1.5840   -0.4750    3.2640 hc        1 GTC      0.092000
     24 H1         -1.7300   -0.7110    1.0260 hc        1 GTC      0.101500
     25 H1A        -0.4890   -1.5810    0.5280 hc        1 GTC      0.101500
     26 HN9        -2.8880   -1.1340   -3.1150 hn        1 GTC      0.273000
     27 HN11       -1.0190    2.3440   -1.8300 hn        1 GTC      0.347000
@<TRIPOS>BOND
     1    1    3 1   
     2    1   10 1   
     3    1   11 1   
     4    1   16 1   
     5    2    9 1   
     6    2   10 1   
     7    2   17 1   
     8    2   18 1   
     9    3    4 1   
    10    3    7 1   
    11    3   19 1   
    12    4    9 1   
    13    4   20 1   
    14    4   21 1   
    15    5   14 1   
    16    5   15 1   
    17    6    7 1   
    18    7    8 1   
    19    9   22 1   
    20    9   23 1   
    21   10   24 1   
    22   10   25 1   
    23   11   12 1   
    24   11   14 1   
    25   13   26 1   
    26   14   27 1   
@<TRIPOS>SUBSTRUCTURE
     1 GTC         1 TEMP              0 ****  ****    0 ROOT
