@<TRIPOS>MOLECULE
GTC
   27    28     1     0     0
SMALL
bcc


@<TRIPOS>ATOM
      1 C6          0.7340   -0.7210    0.6990 c3        1 GTC     -0.050000
      2 C2          2.4420   -2.3840   -0.0190 c3        1 GTC     -0.063400
      3 C5          1.7270    0.4270    0.5320 c3        1 GTC     -0.185700
      4 C4          3.1340   -0.1090    0.7650 c3        1 GTC     -0.054400
      5 C10        -2.5750    0.5290   -0.4380 c         1 GTC      0.488400
      6 C12         1.7090    1.1850   -0.8180 c         1 GTC      0.912600
      7 O14         2.1840    2.3510   -0.8130 o         1 GTC     -0.834300
      8 C3          3.4520   -1.2630   -0.1650 c3        1 GTC     -0.081400
      9 C1          1.0370   -1.8690   -0.2570 c3        1 GTC     -0.085400
     10 C7         -0.6900   -0.2760    0.5450 cc        1 GTC      0.385900
     11 N8         -1.6540   -0.3290    1.4940 n2        1 GTC     -0.548300
     12 N9         -2.7860    0.1040    0.8990 n         1 GTC     -0.262900
     13 N11        -1.2290    0.2350   -0.6590 n         1 GTC     -0.389400
     14 H6          0.8470   -1.1100    1.7560 hc        1 GTC      0.048700
     15 H2          2.6700   -3.1960   -0.7560 hc        1 GTC      0.019700
     16 H2A         2.5160   -2.8290    1.0080 hc        1 GTC      0.019700
     17 H5          1.5040    1.1940    1.3250 hc        1 GTC      0.049700
     18 H4          3.8630    0.7260    0.5910 hc        1 GTC      0.031700
     19 H4A         3.2390   -0.4450    1.8300 hc        1 GTC      0.031700
     20 H3          4.4810   -1.6500    0.0470 hc        1 GTC      0.043700
     21 H3A         3.4270   -0.8840   -1.2230 hc        1 GTC      0.043700
     22 H1          0.2970   -2.6950   -0.1070 hc        1 GTC      0.062200
     23 H1A         0.9520   -1.4940   -1.3150 hc        1 GTC      0.062200
     24 HN9        -3.5610    0.3810    1.4540 hn        1 GTC      0.358500
     25 HN11       -0.6670    0.4820   -1.4630 hn        1 GTC      0.430500
     26 O13         1.2510    0.6260   -1.8640 o         1 GTC     -0.834300
     27 S15        -3.6870    1.1080   -1.4250 s         1 GTC     -0.602400
@<TRIPOS>BOND
     1    1    3 1   
     2    1    9 1   
     3    1   10 1   
     4    1   14 1   
     5    2    8 1   
     6    2    9 1   
     7    2   15 1   
     8    2   16 1   
     9    3    4 1   
    10    3    6 1   
    11    3   17 1   
    12    4    8 1   
    13    4   18 1   
    14    4   19 1   
    15    5   12 1   
    16    5   13 1   
    17    5   27 2   
    18    6    7 1   
    19    6   26 1   
    20    8   20 1   
    21    8   21 1   
    22    9   22 1   
    23    9   23 1   
    24   10   11 2   
    25   10   13 1   
    26   11   12 1   
    27   12   24 1   
    28   13   25 1   
@<TRIPOS>SUBSTRUCTURE
     1 GTC         1 TEMP              0 ****  ****    0 ROOT
