@<TRIPOS>MOLECULE
GTC
   27    26     1     0     0
SMALL
bcc


@<TRIPOS>ATOM
      1 C6         -0.0730    0.1020    0.1710 c3        1 GTC     -0.018000
      2 C2          1.2220   -1.4440    3.8450 c2        1 GTC     -0.567000
      3 C5          1.3230   -0.5130    0.2400 c3        1 GTC     -0.185000
      4 C4          2.3010    0.1500   -0.6970 c3        1 GTC     -0.196000
      5 C10        -1.0500    0.0380   -3.4150 c2        1 GTC      0.075000
      6 C12         1.3130   -2.0460    0.0280 c2        1 GTC      0.339000
      7 O14         1.4900   -2.7740    1.0460 o         1 GTC     -0.566000
      8 C3          1.4670   -2.0160    4.9800 c1        1 GTC      0.084000
      9 C1         -1.0810   -0.7810    0.8820 c3        1 GTC     -0.215000
     10 C7         -0.5510    0.3790   -1.2240 c2        1 GTC      0.004000
     11 N8         -1.1470    1.5190   -1.6500 n2        1 GTC     -0.121000
     12 N9         -1.4590    1.3070   -2.9440 n         1 GTC     -0.249000
     13 N11        -0.4890   -0.5550   -2.2830 n         1 GTC     -0.230000
     14 H6         -0.0280    1.0990    0.7030 hc        1 GTC      0.091000
     15 H2         -2.0770   -0.2810    0.9350 hc        1 GTC      0.087333
     16 H2A         0.8800   -0.4220    3.6460 ha        1 GTC      0.231000
     17 H5          1.6750   -0.3490    1.3010 hc        1 GTC      0.087000
     18 H4          2.1560    1.2570   -0.7120 hc        1 GTC      0.068667
     19 H4A         2.1830   -0.2480   -1.7340 hc        1 GTC      0.068667
     20 H3          1.3600   -2.0160    2.8790 ha        1 GTC      0.231000
     21 H3A         3.3460   -0.0670   -0.3660 hc        1 GTC      0.068667
     22 H1         -0.7170   -0.9930    1.9190 hc        1 GTC      0.087333
     23 H1A        -1.1850   -1.7590    0.3500 hc        1 GTC      0.087333
     24 HN9        -1.8280    2.0370   -3.5050 hn        1 GTC      0.280000
     25 HN11        0.0030   -1.4400   -2.2300 hn        1 GTC      0.348000
     26 O13         1.1450   -2.5200   -1.1350 o         1 GTC     -0.566000
     27 S15        -1.2530   -0.5240   -4.8960 s         1 GTC     -0.323000
@<TRIPOS>BOND
     1    1    3 1   
     2    1    9 1   
     3    1   10 1   
     4    1   14 1   
     5    2    8 1   
     6    2   16 1   
     7    2   20 1   
     8    3    4 1   
     9    3    6 1   
    10    3   17 1   
    11    4   18 1   
    12    4   19 1   
    13    4   21 1   
    14    5   12 1   
    15    5   13 1   
    16    5   27 1   
    17    6    7 1   
    18    6   26 1   
    19    9   15 1   
    20    9   22 1   
    21    9   23 1   
    22   10   11 1   
    23   10   13 1   
    24   11   12 1   
    25   12   24 1   
    26   13   25 1   
@<TRIPOS>SUBSTRUCTURE
     1 GTC         1 TEMP              0 ****  ****    0 ROOT
