@<TRIPOS>MOLECULE
GTF
   41    42     1     0     0
SMALL
bcc


@<TRIPOS>ATOM
      1 F1          0.0000    0.0000    0.0000 f         1 GTF     -0.215300
      2 N1          1.1180   -0.8320    2.3190 n         1 GTF     -0.015000
      3 C2         -0.1560   -0.4770    2.5640 c         1 GTF      0.750900
      4 F2          1.8960   -1.0880   -0.7250 f         1 GTF     -0.215300
      5 O2         -0.6040    0.5390    2.0560 o         1 GTF     -0.759500
      6 N3         -0.9380   -1.2140    3.3520 nc        1 GTF     -0.855100
      7 C4         -0.4750   -2.3220    3.9160 cd        1 GTF     -0.154500
      8 N4         -1.2910   -3.0770    4.7270 nz        1 GTF      0.343400
      9 C5          0.8560   -2.7220    3.6790 cd        1 GTF     -0.208600
     10 C6          1.6350   -1.9650    2.8720 cc        1 GTF     -0.275400
     11 PA          1.2160    5.7460    2.0540 p5        1 GTF      0.976800
     12 PB          2.0370    7.9330    3.8780 p5        1 GTF      1.090800
     13 PG          4.1360    9.3530    5.4160 p5        1 GTF      0.880900
     14 C1'         1.9520    0.0000    1.4480 c3        1 GTF      0.211500
     15 O1A        -0.3500    5.5900    2.3930 o         1 GTF     -0.677000
     16 O1B         0.7150    8.2340    4.7480 o         1 GTF     -0.487000
     17 O1G         4.9960   10.0550    4.2500 o         1 GTF     -0.503167
     18 C2'         1.3990    0.0000    0.0000 c3        1 GTF      0.304600
     19 O2A         1.3770    6.5950    0.8520 o         1 GTF     -0.677000
     20 O2B         2.1160    8.8910    2.7540 o         1 GTF     -0.487000
     21 O2G         5.1240    8.8530    6.5850 o         1 GTF     -0.503167
     22 C3'         1.9510    1.3350   -0.5580 c3        1 GTF      0.106100
     23 O3'         3.1410    1.1060   -1.3150 oh        1 GTF     -0.582800
     24 O3A         1.9690    6.4320    3.3000 os        1 GTF     -0.493800
     25 O3B         3.3400    8.0910    4.8110 os        1 GTF     -0.466800
     26 O3G         3.1680   10.3260    5.9700 o         1 GTF     -0.503167
     27 C4'         2.2640    2.1690    0.6990 c3        1 GTF      0.141100
     28 O4'         1.8710    1.3870    1.8400 os        1 GTF     -0.318600
     29 C5'         1.4700    3.4770    0.6670 c3        1 GTF      0.308400
     30 O5'         1.8520    4.2940    1.7750 os        1 GTF     -0.495200
     31 HN4        -1.3830   -3.9970    4.3440 hn        1 GTF      0.077467
     32 HN4A       -2.1940   -2.6480    4.7840 hn        1 GTF      0.077467
     33 H5          1.2470   -3.6260    4.1310 ha        1 GTF      0.044000
     34 H6          2.6610   -2.2510    2.6750 h4        1 GTF      0.086000
     35 H1'         2.9820   -0.3370    1.4600 h2        1 GTF      0.012700
     36 H3'         1.2000    1.8300   -1.1610 h1        1 GTF      0.031700
     37 HO3'        3.0040    1.3810   -2.2060 ho        1 GTF      0.374000
     38 H4'         3.3260    2.3780    0.7460 h1        1 GTF      0.018700
     39 H5'         1.6760    4.0020   -0.2570 h1        1 GTF     -0.010300
     40 H5'A        0.4110    3.2570    0.7290 h1        1 GTF     -0.010300
     41 H43        -0.8900   -3.1350    5.6420 hn        1 GTF      0.077467
@<TRIPOS>BOND
     1    1   18 1   
     2    2    3 1   
     3    2   10 1   
     4    2   14 1   
     5    3    5 2   
     6    3    6 1   
     7    4   18 1   
     8    6    7 2   
     9    7    8 1   
    10    7    9 1   
    11    8   31 1   
    12    8   32 1   
    13    8   41 1   
    14    9   10 2   
    15    9   33 1   
    16   10   34 1   
    17   11   15 1   
    18   11   19 1   
    19   11   24 1   
    20   11   30 1   
    21   12   16 1   
    22   12   20 1   
    23   12   24 1   
    24   12   25 1   
    25   13   17 1   
    26   13   21 1   
    27   13   25 1   
    28   13   26 1   
    29   14   18 1   
    30   14   28 1   
    31   14   35 1   
    32   18   22 1   
    33   22   23 1   
    34   22   27 1   
    35   22   36 1   
    36   23   37 1   
    37   27   28 1   
    38   27   29 1   
    39   27   38 1   
    40   29   30 1   
    41   29   39 1   
    42   29   40 1   
@<TRIPOS>SUBSTRUCTURE
     1 GTF         1 TEMP              0 ****  ****    0 ROOT
