@<TRIPOS>MOLECULE
GTI
   31    33     1     0     0
SMALL
bcc


@<TRIPOS>ATOM
      1 NJ          0.0270   -0.9040    0.2620 nc        1 GTI     -0.548100
      2 NK          0.5860    0.2080    2.2670 nd        1 GTI     -0.730000
      3 NL          5.5410    1.1210    3.4120 n7        1 GTI     -0.821200
      4 NQ          3.0330    0.1220    2.3910 nh        1 GTI     -0.716300
      5 CAA        -4.5360    0.2200    2.2750 ca        1 GTI     -0.115000
      6 CAB        -3.6060    0.1170    3.3090 ca        1 GTI     -0.143000
      7 CAC        -4.1110    0.1570    0.9490 ca        1 GTI     -0.143000
      8 CAD        -2.2510   -0.0490    3.0230 ca        1 GTI     -0.089000
      9 CAE        -2.7590   -0.0090    0.6510 ca        1 GTI     -0.089000
     10 CAF         4.4250    0.8960    4.3080 c3        1 GTI      0.157300
     11 CAG         5.5160    0.2560    2.2510 c3        1 GTI      0.157300
     12 CAH         3.0580    0.9420    3.5930 c3        1 GTI      0.190300
     13 CAI         4.1700    0.3120    1.5000 c3        1 GTI      0.190300
     14 SAM         1.6590   -0.9320    0.2260 ss        1 GTI      0.034700
     15 CAN        -1.8230   -0.1120    1.6900 ca        1 GTI     -0.124500
     16 CAO        -0.3930   -0.2890    1.3790 cd        1 GTI      0.662500
     17 CAP         1.8080   -0.0810    1.7720 cc        1 GTI      0.652300
     18 HAA        -5.6030    0.3510    2.5060 ha        1 GTI      0.132000
     19 HAB        -3.9390    0.1660    4.3560 ha        1 GTI      0.133500
     20 HAC        -4.8420    0.2370    0.1320 ha        1 GTI      0.133500
     21 HAD        -1.5260   -0.1290    3.8470 ha        1 GTI      0.149500
     22 HAE        -2.4330   -0.0590   -0.3990 ha        1 GTI      0.149500
     23 HAF         4.4320    1.7190    5.0770 h1        1 GTI      0.041700
     24 HAFA        4.5060   -0.0890    4.8530 h1        1 GTI      0.041700
     25 HAG         6.3160    0.6090    1.5410 h1        1 GTI      0.041700
     26 HAGA        5.7330   -0.8220    2.5120 h1        1 GTI      0.041700
     27 HAH         2.8050    2.0130    3.3470 h1        1 GTI      0.059450
     28 HAHA        2.2810    0.5510    4.3090 h1        1 GTI      0.059450
     29 HAI         4.1640   -0.5140    0.7320 h1        1 GTI      0.059450
     30 HAIA        4.0940    1.3000    0.9610 h1        1 GTI      0.059450
     31 HNL         6.4090    1.0150    3.9050 hn        1 GTI      0.370800
@<TRIPOS>BOND
     1    1   14 1   
     2    1   16 2   
     3    2   16 1   
     4    2   17 2   
     5    3   10 1   
     6    3   11 1   
     7    3   31 1   
     8    4   12 1   
     9    4   13 1   
    10    4   17 1   
    11    5    6 ar  
    12    5    7 ar  
    13    5   18 1   
    14    6    8 ar  
    15    6   19 1   
    16    7    9 ar  
    17    7   20 1   
    18    8   15 ar  
    19    8   21 1   
    20    9   15 ar  
    21    9   22 1   
    22   10   12 1   
    23   10   23 1   
    24   10   24 1   
    25   11   13 1   
    26   11   25 1   
    27   11   26 1   
    28   12   27 1   
    29   12   28 1   
    30   13   29 1   
    31   13   30 1   
    32   14   17 1   
    33   15   16 1   
@<TRIPOS>SUBSTRUCTURE
     1 GTI         1 TEMP              0 ****  ****    0 ROOT
