@<TRIPOS>MOLECULE
GTI
   31    33     1     0     0
SMALL
bcc


@<TRIPOS>ATOM
      1 NJ          0.0290   -0.9200    0.2710 nc        1 GTI     -0.548100
      2 NK          0.5870    0.2080    2.2670 nd        1 GTI     -0.730000
      3 NL          5.5410    1.1230    3.4120 n3        1 GTI     -0.821200
      4 NQ          3.0330    0.1190    2.3950 nh        1 GTI     -0.716300
      5 CAA        -4.5360    0.2290    2.2660 ca        1 GTI     -0.115000
      6 CAB        -3.6070    0.1320    3.3030 ca        1 GTI     -0.143000
      7 CAC        -4.1080    0.1540    0.9410 ca        1 GTI     -0.143000
      8 CAD        -2.2530   -0.0380    3.0200 ca        1 GTI     -0.089000
      9 CAE        -2.7560   -0.0160    0.6470 ca        1 GTI     -0.089000
     10 CAF         4.4220    0.9080    4.3080 c3        1 GTI      0.157300
     11 CAG         5.5160    0.2480    2.2590 c3        1 GTI      0.157300
     12 CAH         3.0570    0.9500    3.5910 c3        1 GTI      0.190300
     13 CAI         4.1710    0.2990    1.5050 c3        1 GTI      0.190300
     14 SAM         1.6600   -0.9520    0.2370 ss        1 GTI      0.034700
     15 CAN        -1.8230   -0.1130    1.6890 ca        1 GTI     -0.124500
     16 CAO        -0.3930   -0.2950    1.3810 cd        1 GTI      0.662500
     17 CAP         1.8090   -0.0870    1.7760 cc        1 GTI      0.652300
     18 HAA        -5.6030    0.3630    2.4940 ha        1 GTI      0.132000
     19 HAB        -3.9430    0.1900    4.3490 ha        1 GTI      0.133500
     20 HAC        -4.8380    0.2290    0.1220 ha        1 GTI      0.133500
     21 HAD        -1.5290   -0.1140    3.8460 ha        1 GTI      0.149500
     22 HAE        -2.4290   -0.0760   -0.4020 ha        1 GTI      0.149500
     23 HAF         4.5020   -0.0740    4.8620 h1        1 GTI      0.041700
     24 HAFA        4.4300    1.7370    5.0700 h1        1 GTI      0.041700
     25 HAG         5.7310   -0.8280    2.5290 h1        1 GTI      0.041700
     26 HAGA        6.3170    0.5930    1.5470 h1        1 GTI      0.041700
     27 HAH         2.8060    2.0190    3.3350 h1        1 GTI      0.059450
     28 HAHA        2.2780    0.5660    4.3080 h1        1 GTI      0.059450
     29 HAI         4.1660   -0.5340    0.7450 h1        1 GTI      0.059450
     30 HAIA        4.0980    1.2830    0.9570 h1        1 GTI      0.059450
     31 HNL         6.4070    1.0200    3.9070 hn        1 GTI      0.370800
@<TRIPOS>BOND
     1    1   14 1   
     2    1   16 2   
     3    2   16 1   
     4    2   17 2   
     5    3   10 1   
     6    3   11 1   
     7    3   31 1   
     8    4   12 1   
     9    4   13 1   
    10    4   17 1   
    11    5    6 ar  
    12    5    7 ar  
    13    5   18 1   
    14    6    8 ar  
    15    6   19 1   
    16    7    9 ar  
    17    7   20 1   
    18    8   15 ar  
    19    8   21 1   
    20    9   15 ar  
    21    9   22 1   
    22   10   12 1   
    23   10   23 1   
    24   10   24 1   
    25   11   13 1   
    26   11   25 1   
    27   11   26 1   
    28   12   27 1   
    29   12   28 1   
    30   13   29 1   
    31   13   30 1   
    32   14   17 1   
    33   15   16 1   
@<TRIPOS>SUBSTRUCTURE
     1 GTI         1 TEMP              0 ****  ****    0 ROOT
