@<TRIPOS>MOLECULE
GTI
   31    33     1     0     0
SMALL
bcc


@<TRIPOS>ATOM
      1 NJ          0.0260   -0.9690    0.3000 nc        1 GTI     -0.549100
      2 NK          0.5860    0.2080    2.2680 nd        1 GTI     -0.730000
      3 NL          5.5430    1.1280    3.3980 n3        1 GTI     -0.821200
      4 NQ          3.0320    0.1110    2.4020 nh        1 GTI     -0.716300
      5 CAA        -4.5360    0.2540    2.2570 ca        1 GTI     -0.115000
      6 CAB        -3.6100    0.1810    3.2970 ca        1 GTI     -0.143000
      7 CAC        -4.1070    0.1410    0.9350 ca        1 GTI     -0.143000
      8 CAD        -2.2550   -0.0030    3.0220 ca        1 GTI     -0.089000
      9 CAE        -2.7550   -0.0440    0.6490 ca        1 GTI     -0.089000
     10 CAF         4.4220    0.9410    4.2970 c3        1 GTI      0.157300
     11 CAG         5.5160    0.2240    2.2670 c3        1 GTI      0.157300
     12 CAH         3.0580    0.9710    3.5770 c3        1 GTI      0.190300
     13 CAI         4.1730    0.2620    1.5100 c3        1 GTI      0.190300
     14 SAM         1.6570   -1.0090    0.2700 ss        1 GTI      0.034700
     15 CAN        -1.8230   -0.1160    1.6940 ca        1 GTI     -0.124500
     16 CAO        -0.3940   -0.3130    1.3930 cd        1 GTI      0.662500
     17 CAP         1.8080   -0.1060    1.7870 cc        1 GTI      0.652300
     18 HAA        -5.6030    0.3990    2.4800 ha        1 GTI      0.132000
     19 HAB        -3.9460    0.2700    4.3410 ha        1 GTI      0.133500
     20 HAC        -4.8350    0.1970    0.1130 ha        1 GTI      0.133500
     21 HAD        -1.5330   -0.0590    3.8510 ha        1 GTI      0.149500
     22 HAE        -2.4260   -0.1330   -0.3980 ha        1 GTI      0.149500
     23 HAF         4.4330    1.7890    5.0380 h1        1 GTI      0.041700
     24 HAFA        4.4960   -0.0260    4.8760 h1        1 GTI      0.041700
     25 HAG         5.7250   -0.8460    2.5650 h1        1 GTI      0.041700
     26 HAGA        6.3200    0.5470    1.5480 h1        1 GTI      0.041700
     27 HAH         2.8130    2.0350    3.2930 h1        1 GTI      0.059450
     28 HAHA        2.2770    0.6100    4.3020 h1        1 GTI      0.059450
     29 HAI         4.1050    1.2320    0.9370 h1        1 GTI      0.059450
     30 HAIA        4.1640   -0.5890    0.7710 h1        1 GTI      0.059450
     31 HNL         6.4080    1.0340    3.8970 hn        1 GTI      0.370800
@<TRIPOS>BOND
     1    1   14 1   
     2    1   16 2   
     3    2   16 1   
     4    2   17 2   
     5    3   10 1   
     6    3   11 1   
     7    3   31 1   
     8    4   12 1   
     9    4   13 1   
    10    4   17 1   
    11    5    6 ar  
    12    5    7 ar  
    13    5   18 1   
    14    6    8 ar  
    15    6   19 1   
    16    7    9 ar  
    17    7   20 1   
    18    8   15 ar  
    19    8   21 1   
    20    9   15 ar  
    21    9   22 1   
    22   10   12 1   
    23   10   23 1   
    24   10   24 1   
    25   11   13 1   
    26   11   25 1   
    27   11   26 1   
    28   12   27 1   
    29   12   28 1   
    30   13   29 1   
    31   13   30 1   
    32   14   17 1   
    33   15   16 1   
@<TRIPOS>SUBSTRUCTURE
     1 GTI         1 TEMP              0 ****  ****    0 ROOT
