@<TRIPOS>MOLECULE
GTI
   31    33     1     0     0
SMALL
bcc


@<TRIPOS>ATOM
      1 NJ          1.0530   -1.6850   -0.8070 nc        1 GTI     -0.548100
      2 NK          0.1830    0.3680   -0.0340 nd        1 GTI     -0.730000
      3 NL         -4.9480    1.0050    0.4530 n3        1 GTI     -0.796200
      4 NQ         -2.2490    0.1690   -0.2720 nh        1 GTI     -0.715300
      5 CAA         5.2550    1.0210    0.2680 ca        1 GTI     -0.114000
      6 CAB         4.2210    1.9060   -0.0390 ca        1 GTI     -0.142500
      7 CAC         4.9920   -0.3440    0.3770 ca        1 GTI     -0.142500
      8 CAD         2.9250    1.4320   -0.2380 ca        1 GTI     -0.089500
      9 CAE         3.7000   -0.8290    0.1800 ca        1 GTI     -0.089500
     10 CAF        -3.9150    1.9740    0.1560 c3        1 GTI      0.148300
     11 CAG        -4.7050   -0.2560   -0.2130 c3        1 GTI      0.148300
     12 CAH        -2.4660    1.4700    0.3400 c3        1 GTI      0.152800
     13 CAI        -3.2810   -0.8280   -0.0280 c3        1 GTI      0.152800
     14 SAM        -0.5570   -1.9290   -0.9240 ss        1 GTI      0.036700
     15 CAN         2.6600    0.0600   -0.1280 ca        1 GTI     -0.125500
     16 CAO         1.2940   -0.4500   -0.3390 cd        1 GTI      0.662500
     17 CAP        -0.9480   -0.3120   -0.3170 cc        1 GTI      0.650300
     18 HAA         6.2750    1.4000    0.4240 ha        1 GTI      0.132000
     19 HAB         4.4260    2.9830   -0.1260 ha        1 GTI      0.134000
     20 HAC         5.8050   -1.0440    0.6180 ha        1 GTI      0.134000
     21 HAD         2.1170    2.1390   -0.4810 ha        1 GTI      0.149500
     22 HAE         3.5030   -1.9090    0.2660 ha        1 GTI      0.149500
     23 HAF        -4.0540    2.3000   -0.9140 h1        1 GTI      0.066200
     24 HAFA       -4.0520    2.8730    0.8180 h1        1 GTI      0.066200
     25 HAG        -5.4340   -1.0230    0.1690 h1        1 GTI      0.066200
     26 HAGA       -4.8970   -0.1030   -1.3120 h1        1 GTI      0.066200
     27 HAH        -2.2210    1.4360    1.4410 h1        1 GTI      0.055450
     28 HAHA       -1.7710    2.2100   -0.1470 h1        1 GTI      0.055450
     29 HAI        -3.1400   -1.6710   -0.7630 h1        1 GTI      0.055450
     30 HAIA       -3.1880   -1.2520    1.0130 h1        1 GTI      0.055450
     31 HNL        -5.0180    0.8660    1.4450 hn        1 GTI      0.354800
@<TRIPOS>BOND
     1    1   14 1   
     2    1   16 2   
     3    2   16 1   
     4    2   17 2   
     5    3   10 1   
     6    3   11 1   
     7    3   31 1   
     8    4   12 1   
     9    4   13 1   
    10    4   17 1   
    11    5    6 ar  
    12    5    7 ar  
    13    5   18 1   
    14    6    8 ar  
    15    6   19 1   
    16    7    9 ar  
    17    7   20 1   
    18    8   15 ar  
    19    8   21 1   
    20    9   15 ar  
    21    9   22 1   
    22   10   12 1   
    23   10   23 1   
    24   10   24 1   
    25   11   13 1   
    26   11   25 1   
    27   11   26 1   
    28   12   27 1   
    29   12   28 1   
    30   13   29 1   
    31   13   30 1   
    32   14   17 1   
    33   15   16 1   
@<TRIPOS>SUBSTRUCTURE
     1 GTI         1 TEMP              0 ****  ****    0 ROOT
