@<TRIPOS>MOLECULE
GTI
   31    30     1     0     0
SMALL
bcc


@<TRIPOS>ATOM
      1 NJ         -1.1880   -0.1040   -1.8930 nc        1 GTI     -0.549100
      2 NK         -0.4960    0.0980    0.4030 nd        1 GTI     -0.730000
      3 NL          4.4750    0.1160    0.8630 n3        1 GTI     -0.821200
      4 NQ          1.9100    0.1380    0.3330 nh        1 GTI     -0.716300
      5 CAA        -5.8500   -0.0440    0.4730 c1        1 GTI     -0.065250
      6 CAB        -5.1860    1.1610    0.3070 c1        1 GTI     -0.065250
      7 CAC        -5.1650   -1.2390    0.3210 c1        1 GTI     -0.065250
      8 CAD        -3.8370    1.1710   -0.0110 c1        1 GTI     -0.065250
      9 CAE        -3.8160   -1.2290    0.0040 c1        1 GTI     -0.030500
     10 CAF         4.2350    1.1630    0.1870 c3        1 GTI      0.157300
     11 CAG         4.1350   -1.0730    0.5800 c3        1 GTI      0.157300
     12 CAH         2.8400    1.1330   -0.3960 c3        1 GTI      0.190300
     13 CAI         2.7400   -1.1220    0.0000 c3        1 GTI      0.190300
     14 SAM         0.2690   -0.0550   -1.8270 ss        1 GTI      0.034700
     15 CAN        -3.1520   -0.0240   -0.1620 ch        1 GTI     -0.124000
     16 CAO        -1.6920   -0.0140   -0.5600 cd        1 GTI      0.662000
     17 CAP         0.6630    0.0750   -0.3420 cc        1 GTI      0.652300
     18 HNL         5.3470    0.1270    1.1430 hn        1 GTI      0.370800
     19 HAA        -6.8000   -0.0510    0.6970 ha        1 GTI      0.079750
     20 HAB        -5.6680    2.0030    0.4140 ha        1 GTI      0.079750
     21 HAC        -5.6330   -2.0880    0.4380 ha        1 GTI      0.079750
     22 HAD        -3.3690    2.0200   -0.1280 ha        1 GTI      0.079750
     23 HAE        -3.3340   -2.0710   -0.1030 ha        1 GTI      0.091500
     24 HAF         4.3220    1.9480    0.7680 h1        1 GTI      0.041700
     25 HAFA        4.8860    1.2300   -0.5430 h1        1 GTI      0.041700
     26 HAG         4.7670   -1.4400   -0.0740 h1        1 GTI      0.041700
     27 HAGA        4.1640   -1.6180    1.3940 h1        1 GTI      0.041700
     28 HAH         2.4530    2.0290   -0.3340 h1        1 GTI      0.059450
     29 HAHA        2.8980    0.8780   -1.3380 h1        1 GTI      0.059450
     30 HAI         2.8050   -1.2090   -0.9720 h1        1 GTI      0.059450
     31 HAIA        2.2780   -1.9070    0.3570 h1        1 GTI      0.059450
@<TRIPOS>BOND
     1    1   14 1   
     2    1   16 2   
     3    2   16 1   
     4    2   17 2   
     5    3   10 1   
     6    3   11 1   
     7    3   18 1   
     8    4   12 1   
     9    4   13 1   
    10    4   17 1   
    11    5    7 3   
    12    5   19 1   
    13    6    8 3   
    14    6   20 1   
    15    7   21 1   
    16    8   22 1   
    17    9   15 3   
    18    9   23 1   
    19   10   12 1   
    20   10   24 1   
    21   10   25 1   
    22   11   13 1   
    23   11   26 1   
    24   11   27 1   
    25   12   28 1   
    26   12   29 1   
    27   13   30 1   
    28   13   31 1   
    29   14   17 1   
    30   15   16 1   
@<TRIPOS>SUBSTRUCTURE
     1 GTI         1 TEMP              0 ****  ****    0 ROOT
