@<TRIPOS>MOLECULE
GTK
   22    22     1     0     0
SMALL
bcc


@<TRIPOS>ATOM
      1 C1          1.5490   -1.1580    0.6780 c3        1 GTK      0.310900
      2 O1          2.2050   -2.3140    0.2160 oh        1 GTK     -0.628800
      3 C2          2.2160    0.1370    0.1500 c3        1 GTK      0.066100
      4 O2          2.4030    1.0810    1.1790 oh        1 GTK     -0.611800
      5 C3          1.2360    0.6520   -0.9290 c3        1 GTK      0.068100
      6 O3          1.6760    0.2970   -2.2290 oh        1 GTK     -0.592800
      7 C4         -0.0870   -0.0920   -0.6490 c3        1 GTK      0.137100
      8 O4          0.2420   -1.2520    0.1400 os        1 GTK     -0.423600
      9 C5         -1.0760    0.8100    0.0940 c3        1 GTK     -0.006900
     10 O5         -0.5970    1.0880    1.3980 oh        1 GTK     -0.661800
     11 C6         -2.5020    0.1890    0.1180 c         1 GTK      0.909600
     12 O61        -3.0580   -0.0440   -0.9860 o         1 GTK     -0.823300
     13 O62        -3.0030   -0.0040    1.2610 o         1 GTK     -0.823300
     14 H1          1.5140   -1.2160    1.7970 h2        1 GTK      0.093700
     15 HO1         1.8690   -2.5080   -0.6690 ho        1 GTK      0.419000
     16 H2          3.2370   -0.0730   -0.2600 h1        1 GTK      0.080700
     17 HO2         1.5260    1.2780    1.5470 ho        1 GTK      0.439000
     18 H3          1.1050    1.7630   -0.8520 h1        1 GTK      0.062700
     19 HO3         2.4710    0.8150   -2.3990 ho        1 GTK      0.388000
     20 H4         -0.5690   -0.4850   -1.5850 h1        1 GTK      0.113700
     21 H5         -1.1300    1.7980   -0.4420 h1        1 GTK      0.043700
     22 HO5        -1.1840    0.6190    2.0160 ho        1 GTK      0.441000
@<TRIPOS>BOND
     1    1    2 1   
     2    1    3 1   
     3    1    8 1   
     4    1   14 1   
     5    2   15 1   
     6    3    4 1   
     7    3    5 1   
     8    3   16 1   
     9    4   17 1   
    10    5    6 1   
    11    5    7 1   
    12    5   18 1   
    13    6   19 1   
    14    7    8 1   
    15    7    9 1   
    16    7   20 1   
    17    9   10 1   
    18    9   11 1   
    19    9   21 1   
    20   10   22 1   
    21   11   12 1   
    22   11   13 1   
@<TRIPOS>SUBSTRUCTURE
     1 GTK         1 TEMP              0 ****  ****    0 ROOT
