@<TRIPOS>MOLECULE
GTL
   25    25     1     0     0
SMALL
bcc


@<TRIPOS>ATOM
      1 C1          0.0730   -0.0260    0.0120 c2        1 GTL      0.514200
      2 N1         -0.6290   -0.7890   -0.8110 n2        1 GTL     -0.511200
      3 C2          1.5980    0.0330    0.1190 c3        1 GTL      0.062800
      4 N5         -0.6020    0.9340    0.8020 nu        1 GTL     -0.773200
      5 O7          0.0660   -1.5270   -1.6530 oh        1 GTL     -0.366500
      6 O2          2.2510   -1.0840   -0.4530 oh        1 GTL     -0.601800
      7 C3          2.0330    0.0300    1.5960 c3        1 GTL      0.114100
      8 O3          3.4290    0.2570    1.6970 oh        1 GTL     -0.612800
      9 C4          1.3490    1.1690    2.3640 c3        1 GTL      0.147100
     10 O4          1.7700    2.4440    1.9160 oh        1 GTL     -0.593800
     11 C5         -0.1820    1.0600    2.1890 c3        1 GTL      0.198500
     12 C6         -0.8330    2.2950    2.8460 c3        1 GTL      0.132400
     13 O6         -2.2270    2.0430    2.9130 oh        1 GTL     -0.612800
     14 H2          1.9470    0.9860   -0.3750 h1        1 GTL      0.077700
     15 H5         -1.6040    0.9140    0.7330 hn        1 GTL      0.420800
     16 H7         -0.6150   -2.0110   -2.1600 ho        1 GTL      0.442000
     17 HA          2.1210   -1.0500   -1.4090 ho        1 GTL      0.430000
     18 H3          1.7760   -0.9620    2.0620 h1        1 GTL      0.064700
     19 HC          3.8580   -0.3990    1.1300 ho        1 GTL      0.431000
     20 H4          1.5960    1.0680    3.4590 h1        1 GTL      0.055700
     21 HD          2.7350    2.4110    1.8510 ho        1 GTL      0.424000
     22 HB         -0.5070    0.1480    2.7810 h1        1 GTL      0.048700
     23 H6C1       -0.6090    3.2210    2.2550 h1        1 GTL      0.049700
     24 H6C2       -0.4240    2.4060    3.8850 h1        1 GTL      0.049700
     25 H6         -2.6580    2.8960    3.0400 ho        1 GTL      0.409000
@<TRIPOS>BOND
     1    1    2 2   
     2    1    3 1   
     3    1    4 1   
     4    2    5 1   
     5    3    6 1   
     6    3    7 1   
     7    3   14 1   
     8    4   11 1   
     9    4   15 1   
    10    5   16 1   
    11    6   17 1   
    12    7    8 1   
    13    7    9 1   
    14    7   18 1   
    15    8   19 1   
    16    9   10 1   
    17    9   11 1   
    18    9   20 1   
    19   10   21 1   
    20   11   12 1   
    21   11   22 1   
    22   12   13 1   
    23   12   23 1   
    24   12   24 1   
    25   13   25 1   
@<TRIPOS>SUBSTRUCTURE
     1 GTL         1 TEMP              0 ****  ****    0 ROOT
