@<TRIPOS>MOLECULE
GTL
   25    23     1     0     0
SMALL
bcc


@<TRIPOS>ATOM
      1 C1         -0.6660    0.0790   -1.3810 c1        1 GTL     -0.003000
      2 N1         -1.3730    0.9300   -2.0750 n1        1 GTL     -0.130000
      3 C2          0.9300    0.0790   -1.3810 c2        1 GTL      0.058000
      4 N5         -1.2600   -0.9330   -0.5540 n3        1 GTL     -0.244000
      5 O7         -0.7480    1.8720   -2.8440 o         1 GTL     -0.275000
      6 O2          1.4520   -1.0220   -2.1520 oh        1 GTL     -0.319000
      7 C3          1.4180    0.0790    0.0070 c3        1 GTL      0.043000
      8 O3          1.1270    1.3590    0.6000 oh        1 GTL     -0.333000
      9 C4          0.7740   -1.0180    0.8600 c3        1 GTL     -0.005000
     10 O4          1.2120   -0.8620    2.2250 oh        1 GTL     -0.336000
     11 C5         -0.6920   -0.9690    0.8240 c3        1 GTL     -0.030000
     12 C6         -1.1540    0.2780    1.5730 c3        1 GTL     -0.061000
     13 O6         -2.4190    0.0380    2.1490 oh        1 GTL     -0.339000
     14 H2          1.2870    0.8420   -1.8730 h4        1 GTL      0.123000
     15 H5         -2.1220   -1.1920   -0.6990 hn        1 GTL      0.218000
     16 H7         -1.3550    2.3330   -3.2990 ho        1 GTL      0.242000
     17 HA          1.9380   -0.7080   -2.8250 ho        1 GTL      0.223000
     18 H3          2.3850   -0.0530    0.0000 h1        1 GTL      0.114000
     19 HC          1.8750    1.8330    0.6630 ho        1 GTL      0.224000
     20 H4          1.0690   -1.8880    0.5300 h1        1 GTL      0.113000
     21 HD          1.7230   -1.5510    2.4520 ho        1 GTL      0.214000
     22 HB         -1.0400   -1.7560    1.2840 h1        1 GTL      0.115000
     23 H6C1       -0.5120    0.4920    2.2760 h1        1 GTL      0.089500
     24 H6C2       -1.2180    1.0270    0.9500 h1        1 GTL      0.089500
     25 H6         -2.6310    0.7110    2.6880 ho        1 GTL      0.208000
@<TRIPOS>BOND
     1    1    2 1   
     2    1    4 1   
     3    3    6 1   
     4    3    7 1   
     5    3   14 1   
     6    4   11 1   
     7    4   15 1   
     8    5   16 1   
     9    6   17 1   
    10    7    8 1   
    11    7    9 1   
    12    7   18 1   
    13    8   19 1   
    14    9   10 1   
    15    9   11 1   
    16    9   20 1   
    17   10   21 1   
    18   11   12 1   
    19   11   22 1   
    20   12   13 1   
    21   12   23 1   
    22   12   24 1   
    23   13   25 1   
@<TRIPOS>SUBSTRUCTURE
     1 GTL         1 TEMP              0 ****  ****    0 ROOT
