@<TRIPOS>MOLECULE
GTL
   25    25     1     0     0
SMALL
bcc


@<TRIPOS>ATOM
      1 C1         -0.7730    0.9330   -0.1830 c2        1 GTL      0.514200
      2 N1         -1.5030    2.0320   -0.0760 n2        1 GTL     -0.511200
      3 C2         -1.2980   -0.5020   -0.2580 c3        1 GTL      0.062800
      4 N5          0.6230    1.0500   -0.3750 nh        1 GTL     -0.773200
      5 O7         -2.8090    1.8660   -0.0890 oh        1 GTL     -0.366500
      6 O2         -2.6310   -0.6430    0.1950 oh        1 GTL     -0.601800
      7 C3         -0.4720   -1.4240    0.6570 c3        1 GTL      0.114100
      8 O3         -0.8480   -2.7770    0.4580 oh        1 GTL     -0.612800
      9 C4          1.0210   -1.3300    0.3150 c3        1 GTL      0.147100
     10 O4          1.3050   -1.8340   -0.9770 oh        1 GTL     -0.593800
     11 C5          1.4720    0.1450    0.3850 c3        1 GTL      0.198500
     12 C6          2.9330    0.2280   -0.1050 c3        1 GTL      0.132400
     13 O6          3.4070    1.5250    0.2200 oh        1 GTL     -0.612800
     14 H2         -1.2090   -0.8530   -1.3270 h1        1 GTL      0.077700
     15 H5          0.9810    1.9880   -0.3400 hn        1 GTL      0.420800
     16 H7         -3.1630    2.7720    0.0030 ho        1 GTL      0.442000
     17 HA         -3.2100   -0.1910   -0.4320 ho        1 GTL      0.430000
     18 H3         -0.6430   -1.1390    1.7320 h1        1 GTL      0.064700
     19 HC         -1.8070   -2.8190    0.5740 ho        1 GTL      0.431000
     20 H4          1.6060   -1.9240    1.0740 h1        1 GTL      0.055700
     21 HD          0.8400   -2.6790   -1.0540 ho        1 GTL      0.424000
     22 HB          1.4640    0.4300    1.4830 h1        1 GTL      0.048700
     23 H6C1        2.9920    0.0310   -1.2070 h1        1 GTL      0.049700
     24 H6C2        3.5390   -0.5390    0.4460 h1        1 GTL      0.049700
     25 H6          4.1840    1.6830   -0.3280 ho        1 GTL      0.409000
@<TRIPOS>BOND
     1    1    2 2   
     2    1    3 1   
     3    1    4 1   
     4    2    5 1   
     5    3    6 1   
     6    3    7 1   
     7    3   14 1   
     8    4   11 1   
     9    4   15 1   
    10    5   16 1   
    11    6   17 1   
    12    7    8 1   
    13    7    9 1   
    14    7   18 1   
    15    8   19 1   
    16    9   10 1   
    17    9   11 1   
    18    9   20 1   
    19   10   21 1   
    20   11   12 1   
    21   11   22 1   
    22   12   13 1   
    23   12   23 1   
    24   12   24 1   
    25   13   25 1   
@<TRIPOS>SUBSTRUCTURE
     1 GTL         1 TEMP              0 ****  ****    0 ROOT
