@<TRIPOS>MOLECULE
GTL
   25    25     1     0     0
SMALL
bcc


@<TRIPOS>ATOM
      1 C1          0.0790   -0.0280    0.0090 c2        1 GTL      0.514200
      2 N1         -0.6230   -0.7890   -0.8170 n2        1 GTL     -0.511200
      3 C2          1.6040    0.0250    0.1200 c3        1 GTL      0.062800
      4 N5         -0.5950    0.9360    0.7950 nh        1 GTL     -0.773200
      5 O7          0.0720   -1.5300   -1.6550 oh        1 GTL     -0.366500
      6 O2          2.2540   -1.0950   -0.4480 oh        1 GTL     -0.601800
      7 C3          2.0330    0.0200    1.5990 c3        1 GTL      0.114100
      8 O3          3.4300    0.2410    1.7050 oh        1 GTL     -0.612800
      9 C4          1.3510    1.1630    2.3640 c3        1 GTL      0.147100
     10 O4          1.7800    2.4360    1.9170 oh        1 GTL     -0.593800
     11 C5         -0.1790    1.0600    2.1840 c3        1 GTL      0.198500
     12 C6         -0.8270    2.2990    2.8380 c3        1 GTL      0.132400
     13 O6         -2.2230    2.0530    2.9000 oh        1 GTL     -0.612800
     14 H2          1.9580    0.9760   -0.3730 h1        1 GTL      0.077700
     15 H5         -1.5960    0.9200    0.7230 hn        1 GTL      0.420800
     16 H7         -0.6100   -2.0110   -2.1650 ho        1 GTL      0.442000
     17 HA          2.1270   -1.0610   -1.4050 ho        1 GTL      0.430000
     18 H3          1.7700   -0.9700    2.0640 h1        1 GTL      0.064700
     19 HC          3.8580   -0.4170    1.1400 ho        1 GTL      0.431000
     20 H4          1.5940    1.0620    3.4610 h1        1 GTL      0.055700
     21 HD          2.7450    2.3980    1.8560 ho        1 GTL      0.424000
     22 HB         -0.5100    0.1500    2.7750 h1        1 GTL      0.048700
     23 H6C1       -0.5970    3.2240    2.2470 h1        1 GTL      0.049700
     24 H6C2       -0.4210    2.4080    3.8790 h1        1 GTL      0.049700
     25 H6         -2.6510    2.9080    3.0230 ho        1 GTL      0.409000
@<TRIPOS>BOND
     1    1    2 2   
     2    1    3 1   
     3    1    4 1   
     4    2    5 1   
     5    3    6 1   
     6    3    7 1   
     7    3   14 1   
     8    4   11 1   
     9    4   15 1   
    10    5   16 1   
    11    6   17 1   
    12    7    8 1   
    13    7    9 1   
    14    7   18 1   
    15    8   19 1   
    16    9   10 1   
    17    9   11 1   
    18    9   20 1   
    19   10   21 1   
    20   11   12 1   
    21   11   22 1   
    22   12   13 1   
    23   12   23 1   
    24   12   24 1   
    25   13   25 1   
@<TRIPOS>SUBSTRUCTURE
     1 GTL         1 TEMP              0 ****  ****    0 ROOT
