@<TRIPOS>MOLECULE
GTM
   27    27     1     0     0
SMALL
bcc


@<TRIPOS>ATOM
      1 C1         -0.5020   -0.5590   -1.1010 c3        1 GTM      0.305900
      2 C2          1.0140   -0.5590   -1.1010 c3        1 GTM      0.086100
      3 C3          1.5770   -0.5590    0.2700 c3        1 GTM      0.146100
      4 C4          0.9990    0.5290    1.1190 c3        1 GTM     -0.004600
      5 C5         -0.5220    0.5260    1.1080 c3        1 GTM      0.119100
      6 C6         -1.0130    1.7410    1.8240 c3        1 GTM      0.137400
      7 C7         -2.1310   -1.0960   -2.6870 c3        1 GTM      0.121700
      8 O1         -0.9470   -0.3880   -2.3930 os        1 GTM     -0.420600
      9 O2          1.4790   -1.7320   -1.7950 oh        1 GTM     -0.603800
     10 O3          3.0130   -0.3760    0.1870 oh        1 GTM     -0.606800
     11 S4          1.5690    0.3080    2.8150 sh        1 GTM     -0.373900
     12 O5         -1.0720    0.5210   -0.2480 os        1 GTM     -0.448600
     13 O6         -2.4200    1.6930    1.9220 oh        1 GTM     -0.592800
     14 H1         -0.8170   -1.4210   -0.7700 h2        1 GTM      0.055700
     15 H2          1.3300    0.2350   -1.5730 h1        1 GTM      0.078700
     16 H3          1.3900   -1.4200    0.6890 h1        1 GTM      0.068700
     17 H4          1.3160    1.3910    0.7880 h1        1 GTM      0.098700
     18 H5         -0.8390   -0.2680    1.5790 h1        1 GTM      0.070700
     19 H6C1       -0.7480    2.5400    1.3300 h1        1 GTM      0.067700
     20 H6C2       -0.6260    1.7700    2.7200 h1        1 GTM      0.067700
     21 H7C1       -2.8370   -0.8190   -2.0720 h1        1 GTM      0.042700
     22 H7C2       -1.9700   -2.0540   -2.5890 h1        1 GTM      0.042700
     23 H7C3       -2.4050   -0.9040   -3.6040 h1        1 GTM      0.042700
     24 HB          2.0320   -1.4910   -2.4460 ho        1 GTM      0.426000
     25 HA          3.4220   -1.0740    0.5520 ho        1 GTM      0.430000
     26 HS4         2.4120    1.0960    3.0520 hs        1 GTM      0.234800
     27 H6         -2.7050    2.3690    2.4220 ho        1 GTM      0.410000
@<TRIPOS>BOND
     1    1    2 1   
     2    1    8 1   
     3    1   12 1   
     4    1   14 1   
     5    2    3 1   
     6    2    9 1   
     7    2   15 1   
     8    3    4 1   
     9    3   10 1   
    10    3   16 1   
    11    4    5 1   
    12    4   11 1   
    13    4   17 1   
    14    5    6 1   
    15    5   12 1   
    16    5   18 1   
    17    6   13 1   
    18    6   19 1   
    19    6   20 1   
    20    7    8 1   
    21    7   21 1   
    22    7   22 1   
    23    7   23 1   
    24    9   24 1   
    25   10   25 1   
    26   11   26 1   
    27   13   27 1   
@<TRIPOS>SUBSTRUCTURE
     1 GTM         1 TEMP              0 ****  ****    0 ROOT
