@<TRIPOS>MOLECULE
GTM
   27    27     1     0     0
SMALL
bcc


@<TRIPOS>ATOM
      1 C1          0.0390   -0.3180    1.4690 c3        1 GTM      0.305900
      2 C2         -1.3210    0.2140    0.9800 c3        1 GTM      0.086100
      3 C3         -1.5140   -0.1710   -0.4970 c3        1 GTM      0.146100
      4 C4         -0.3200    0.3150   -1.3150 c3        1 GTM     -0.004600
      5 C5          0.9840   -0.1970   -0.7110 c3        1 GTM      0.119100
      6 C6          2.2050    0.4320   -1.3980 c3        1 GTM      0.137400
      7 O1          0.2850    0.2760    2.7250 os        1 GTM     -0.420600
      8 O2         -2.3810   -0.3920    1.6970 oh        1 GTM     -0.603800
      9 O3         -2.6740    0.4620   -1.0180 oh        1 GTM     -0.606800
     10 S4         -0.3780   -0.2740   -2.9940 sh        1 GTM     -0.373900
     11 O5          1.1020    0.1770    0.6650 os        1 GTM     -0.448600
     12 O6          3.4020   -0.1030   -0.8800 oh        1 GTM     -0.592800
     13 H1          0.0630   -1.4410    1.5170 h2        1 GTM      0.055700
     14 H2         -1.3580    1.3320    1.1010 h1        1 GTM      0.078700
     15 H3         -1.6270   -1.2890   -0.5830 h1        1 GTM      0.068700
     16 H4         -0.3220    1.4360   -1.3170 h1        1 GTM      0.098700
     17 H5          1.0330   -1.3210   -0.7860 h1        1 GTM      0.070700
     18 H6C1        2.2020    0.1630   -2.4890 h1        1 GTM      0.067700
     19 H6C2        2.1830    1.5460   -1.2680 h1        1 GTM      0.067700
     20 H7C1        1.4860    0.3640    4.3340 h1        1 GTM      0.042700
     21 H7C2        1.3700   -1.3040    3.5640 h1        1 GTM      0.042700
     22 H7C3        2.3610    0.0090    2.7550 h1        1 GTM      0.042700
     23 HB         -2.2570   -0.1510    2.6250 ho        1 GTM      0.426000
     24 HA         -3.4010    0.2330   -0.4220 ho        1 GTM      0.430000
     25 HS4        -1.6240    0.0800   -3.2850 hs        1 GTM      0.234800
     26 H6          3.4210    0.1060    0.0630 ho        1 GTM      0.410000
     27 C7          1.4560   -0.2060    3.3720 c3        1 GTM      0.121700
@<TRIPOS>BOND
     1    1    2 1   
     2    1    7 1   
     3    1   11 1   
     4    1   13 1   
     5    2    3 1   
     6    2    8 1   
     7    2   14 1   
     8    3    4 1   
     9    3    9 1   
    10    3   15 1   
    11    4    5 1   
    12    4   10 1   
    13    4   16 1   
    14    5    6 1   
    15    5   11 1   
    16    5   17 1   
    17    6   12 1   
    18    6   18 1   
    19    6   19 1   
    20    7   27 1   
    21    8   23 1   
    22    9   24 1   
    23   10   25 1   
    24   12   26 1   
    25   20   27 1   
    26   21   27 1   
    27   22   27 1   
@<TRIPOS>SUBSTRUCTURE
     1 GTM         1 TEMP              0 ****  ****    0 ROOT
