@<TRIPOS>MOLECULE
GTM
   27    24     1     0     0
SMALL
bcc


@<TRIPOS>ATOM
      1 C1          0.1100   -1.9540    1.4710 c2        1 GTM     -0.342000
      2 C2          0.5390   -0.7980    0.6570 c3        1 GTM      0.034000
      3 C3          1.7420   -0.0890    1.3120 c3        1 GTM     -0.007000
      4 C4          1.4360    0.1660    2.7880 c3        1 GTM     -0.184000
      5 C5          0.8280   -0.9960    3.4440 c2        1 GTM     -0.270000
      6 C6         -1.7940    2.9160    1.4060 c2        1 GTM      0.158000
      7 O1          0.7640    1.6850   -1.6070 oh        1 GTM     -0.246000
      8 O2          0.8380   -1.1780   -0.6740 oh        1 GTM     -0.315000
      9 O3          2.0510    1.1090    0.6310 oh        1 GTM     -0.324000
     10 S4          2.9150    0.5150    3.7260 sh        1 GTM     -0.016000
     11 O5          0.2430   -1.9840    2.7880 os        1 GTM      0.128000
     12 O6         -0.8270    2.1590    1.3460 o         1 GTM     -0.315000
     13 H1          1.0920    0.7630   -1.5290 ho        1 GTM      0.274000
     14 H2         -0.3760   -2.8450    1.0650 h4        1 GTM      0.195000
     15 H3         -0.3120   -0.0560    0.5370 h1        1 GTM      0.145000
     16 H4          2.6720   -0.7180    1.2050 h1        1 GTM      0.135000
     17 H5          0.7460    1.0540    2.8610 h1        1 GTM      0.136000
     18 H6C1        0.8290   -1.1530    4.5290 h4        1 GTM      0.201000
     19 H6C2       -1.8000    3.8110    2.0640 h4        1 GTM      0.079500
     20 H7C1       -0.4670    2.8250   -2.6360 ha        1 GTM      0.007000
     21 H7C2       -1.7890    1.3420   -0.8300 ha        1 GTM      0.004000
     22 H7C3       -1.7320    0.7480   -1.1530 ha        1 GTM      0.004000
     23 HB          1.5660   -1.8110   -0.6420 ho        1 GTM      0.209000
     24 HA          1.2560    1.6640    0.6240 ho        1 GTM      0.227000
     25 HS4         3.4130    1.4700    2.9530 hs        1 GTM      0.050000
     26 H6         -2.7120    2.7450    0.8040 h4        1 GTM      0.079500
     27 C7         -0.1060    1.7620   -2.5840 c1        1 GTM     -0.049000
@<TRIPOS>BOND
     1    1    2 1   
     2    1   11 1   
     3    1   14 1   
     4    2    3 1   
     5    2    8 1   
     6    2   15 1   
     7    3    4 1   
     8    3    9 1   
     9    3   16 1   
    10    4    5 1   
    11    4   10 1   
    12    4   17 1   
    13    5   11 1   
    14    5   18 1   
    15    6   12 1   
    16    6   19 1   
    17    6   26 1   
    18    7   13 1   
    19    7   27 1   
    20    8   23 1   
    21    9   24 1   
    22   10   25 1   
    23   20   27 1   
    24   21   22 1   
@<TRIPOS>SUBSTRUCTURE
     1 GTM         1 TEMP              0 ****  ****    0 ROOT
