@<TRIPOS>MOLECULE
GTO
   46    48     1     0     0
SMALL
bcc


@<TRIPOS>ATOM
      1 PG          0.0000    0.0000    0.0000 p5        1 GTO      0.504700
      2 O1G         1.4800    0.0000    0.0000 o         1 GTO     -0.639833
      3 O2G        -0.5360    0.0000    1.5180 o         1 GTO     -0.639833
      4 O3G        -0.5350   -1.3160   -0.7570 o         1 GTO     -0.639833
      5 C3B        -0.6090    1.4860   -0.8600 c3        1 GTO      0.154200
      6 PB         -0.0000    1.4860   -2.5800 p5        1 GTO      0.672600
      7 O1B         1.4780    1.4870   -2.5800 o         1 GTO     -0.496000
      8 O2B        -0.5370    0.1700   -3.3370 o         1 GTO     -0.496000
      9 O3A        -0.5390    2.7990   -3.3390 os        1 GTO     -0.494800
     10 PA          0.0320    2.7340   -4.8420 p5        1 GTO      0.895800
     11 O1A         1.5110    2.7150   -4.8080 o         1 GTO     -0.664000
     12 O2A        -0.5040    1.3970   -5.5620 o         1 GTO     -0.664000
     13 O5'        -0.4690    4.0240   -5.6650 os        1 GTO     -0.470200
     14 C5'         0.0680    3.9070   -6.9830 c3        1 GTO      0.248400
     15 C4'        -0.3740    5.1080   -7.8210 c3        1 GTO      0.147100
     16 O4'         0.1280    6.3340   -7.2460 os        1 GTO     -0.359600
     17 C3'         0.2570    5.0460   -9.2300 c3        1 GTO      0.120100
     18 O3'        -0.6700    4.5040  -10.1710 oh        1 GTO     -0.569800
     19 C2'         0.5720    6.5230   -9.5660 c3        1 GTO      0.106100
     20 O2'        -0.1510    6.9370  -10.7270 oh        1 GTO     -0.555800
     21 C1'         0.0960    7.3000   -8.3190 c3        1 GTO      0.154800
     22 N9          1.0050    8.4110   -8.0340 na        1 GTO      0.206100
     23 C8          2.1260    8.3570   -7.2570 cc        1 GTO      0.154400
     24 N7          2.6940    9.5280   -7.2200 nd        1 GTO     -0.552000
     25 C5          1.9730   10.4000   -7.9670 cd        1 GTO      0.017800
     26 C6          2.1080   11.7720   -8.2820 c         1 GTO      0.573000
     27 O6          3.0400   12.4250   -7.8450 o         1 GTO     -0.826500
     28 N1          1.1820   12.3390   -9.0850 ns        1 GTO     -0.017400
     29 C2          0.1410   11.6010   -9.5650 cd        1 GTO     -0.033200
     30 N2         -0.7870   12.2050  -10.3740 nv        1 GTO     -0.533800
     31 N3          0.0050   10.3250   -9.2790 nc        1 GTO     -0.505100
     32 C4          0.8860    9.6940   -8.4950 cc        1 GTO     -0.173200
     33 H3B1       -1.6920    1.4850   -0.8600 hc        1 GTO     -0.001300
     34 H3B2       -0.2490    2.3720   -0.3500 hc        1 GTO     -0.001300
     35 H5'1       -0.2940    2.9950   -7.4410 h1        1 GTO      0.009200
     36 H5'2        1.1490    3.8810   -6.9320 h1        1 GTO      0.009200
     37 H4'        -1.4540    5.1450   -7.8970 h1        1 GTO      0.020700
     38 H3'         1.1700    4.4630   -9.2080 h1        1 GTO      0.013700
     39 HO3'       -0.2510    3.8200  -10.6670 ho        1 GTO      0.362000
     40 H2'         1.6370    6.6580   -9.7090 h1        1 GTO      0.013700
     41 HO2'        0.4370    6.9860  -11.4630 ho        1 GTO      0.360000
     42 H1'        -0.9140    7.6620   -8.4670 h2        1 GTO      0.040700
     43 H8          2.4890    7.4730   -6.7480 h5        1 GTO      0.025100
     44 HN1         1.2620   13.3060   -9.3310 hn        1 GTO      0.114500
     45 HN21       -0.5260   12.5220  -11.2860 hn        1 GTO      0.205300
     46 HN22       -1.7290   12.3190  -10.0560 hn        1 GTO      0.205300
@<TRIPOS>BOND
     1    1    2 1   
     2    1    3 1   
     3    1    4 1   
     4    1    5 1   
     5    5    6 1   
     6    5   33 1   
     7    5   34 1   
     8    6    7 1   
     9    6    8 1   
    10    6    9 1   
    11    9   10 1   
    12   10   11 1   
    13   10   12 1   
    14   10   13 1   
    15   13   14 1   
    16   14   15 1   
    17   14   35 1   
    18   14   36 1   
    19   15   16 1   
    20   15   17 1   
    21   15   37 1   
    22   16   21 1   
    23   17   18 1   
    24   17   19 1   
    25   17   38 1   
    26   18   39 1   
    27   19   20 1   
    28   19   21 1   
    29   19   40 1   
    30   20   41 1   
    31   21   22 1   
    32   21   42 1   
    33   22   23 1   
    34   22   32 1   
    35   23   24 2   
    36   23   43 1   
    37   24   25 1   
    38   25   26 1   
    39   25   32 2   
    40   26   27 2   
    41   26   28 1   
    42   28   29 1   
    43   28   44 1   
    44   29   30 1   
    45   29   31 2   
    46   30   45 1   
    47   30   46 1   
    48   31   32 1   
@<TRIPOS>SUBSTRUCTURE
     1 GTO         1 TEMP              0 ****  ****    0 ROOT
