@<TRIPOS>MOLECULE
GTQ
   16    15     1     0     0
SMALL
bcc


@<TRIPOS>ATOM
      1 OAA         0.4380    0.7120    1.1610 o         1 GTQ     -0.548000
      2 OAB         1.0240   -1.1750    0.1230 o         1 GTQ     -0.548000
      3 OAD         3.6090   -0.8930   -0.8600 oh        1 GTQ     -0.282000
      4 CAE         2.7930   -0.4450    4.8720 c2        1 GTQ     -0.338000
      5 CAF         4.7240    0.9130    0.1870 c1        1 GTQ      0.087000
      6 CAG         3.1740    0.1760    2.5280 c2        1 GTQ     -0.176000
      7 CAH         1.2890   -0.1600    0.8280 c2        1 GTQ      0.367000
      8 CAI         2.3930    0.2100    3.7620 c2        1 GTQ      0.117000
      9 CAJ         3.7200    0.0200    0.1680 c2        1 GTQ     -0.161000
     10 CAK         2.7350    0.0260    1.2660 c2        1 GTQ     -0.100000
     11 HOAC        0.9430    1.1880    2.9530 ho        1 GTQ      0.274000
     12 HOAD        2.7260   -1.3150   -0.8000 ho        1 GTQ      0.274000
     13 HAE         3.7090   -1.0400    4.8810 ha        1 GTQ      0.109500
     14 HAF         2.2140   -0.4120    5.7990 ha        1 GTQ      0.109500
     15 HAG         4.2630    0.2480    2.7160 ha        1 GTQ      0.117000
     16 OAC         1.2640    0.9860    3.8540 oh        1 GTQ     -0.301000
@<TRIPOS>BOND
     1    1    7 1   
     2    2    7 1   
     3    3    9 1   
     4    3   12 1   
     5    4    8 1   
     6    4   13 1   
     7    4   14 1   
     8    5    9 1   
     9    6    8 1   
    10    6   10 1   
    11    6   15 1   
    12    7   10 1   
    13    8   16 1   
    14    9   10 1   
    15   11   16 1   
@<TRIPOS>SUBSTRUCTURE
     1 GTQ         1 TEMP              0 ****  ****    0 ROOT
