@<TRIPOS>MOLECULE
GTQ
   16    16     1     0     0
SMALL
bcc


@<TRIPOS>ATOM
      1 OAA        -1.8040   -1.9800   -0.2410 o         1 GTQ     -0.831800
      2 OAB        -2.7570    0.0310   -0.1650 o         1 GTQ     -0.831800
      3 OAD        -1.1720    2.2360   -0.0340 oh        1 GTQ     -0.553100
      4 CAE         2.2480    1.0100   -0.0280 ca        1 GTQ     -0.140000
      5 CAF         1.1420    1.8510   -0.0090 ca        1 GTQ     -0.183000
      6 CAG         0.7570   -0.9130   -0.1450 ca        1 GTQ     -0.141000
      7 CAH        -1.7350   -0.7220   -0.1820 c         1 GTQ      0.916200
      8 CAI         2.0480   -0.3740   -0.0960 ca        1 GTQ      0.037100
      9 CAJ        -0.1590    1.3140   -0.0580 ca        1 GTQ      0.148100
     10 CAK        -0.3600   -0.0800   -0.1270 ca        1 GTQ     -0.179600
     11 HOAC        2.8810   -2.0870   -0.1600 ho        1 GTQ      0.406000
     12 HOAD       -2.0300    1.7640   -0.0720 ho        1 GTQ      0.479000
     13 HAE         3.2670    1.4150    0.0090 ha        1 GTQ      0.122000
     14 HAF         1.2700    2.9400    0.0430 ha        1 GTQ      0.125000
     15 HAG         0.5930   -2.0020   -0.1980 ha        1 GTQ      0.155000
     16 OAC         3.1840   -1.1710   -0.1120 oh        1 GTQ     -0.528100
@<TRIPOS>BOND
     1    1    7 1   
     2    2    7 1   
     3    3    9 1   
     4    3   12 1   
     5    4    5 ar  
     6    4    8 ar  
     7    4   13 1   
     8    5    9 ar  
     9    5   14 1   
    10    6    8 ar  
    11    6   10 ar  
    12    6   15 1   
    13    7   10 1   
    14    8   16 1   
    15    9   10 ar  
    16   11   16 1   
@<TRIPOS>SUBSTRUCTURE
     1 GTQ         1 TEMP              0 ****  ****    0 ROOT
