@<TRIPOS>MOLECULE
GTQ
   16    13     1     0     0
SMALL
bcc


@<TRIPOS>ATOM
      1 OAA        -2.3140   -0.7840   -2.1200 o         1 GTQ     -0.831800
      2 OAB        -0.4250   -1.1470   -3.1480 o         1 GTQ     -0.831800
      3 OAC         0.8780    2.8560    0.5700 oh        1 GTQ     -0.511600
      4 OAD        -0.3800   -2.5680    0.1190 oh        1 GTQ     -0.536600
      5 CAE         1.1960    0.5610    1.2670 c1        1 GTQ     -0.104000
      6 CAF         0.8830   -0.7840    1.1560 c1        1 GTQ     -0.104000
      7 CAG        -0.4020    1.0750   -0.4500 c1        1 GTQ     -0.083500
      8 CAH        -1.0550   -0.7840   -2.1200 c         1 GTQ      0.864800
      9 CAI         0.5530    1.4910    0.4640 c1        1 GTQ      0.020600
     10 CAJ        -0.0720   -1.2010    0.2420 c1        1 GTQ      0.131600
     11 CAK        -0.7150   -0.2710   -0.5610 cg        1 GTQ     -0.128200
     12 HOAC        0.3250    3.2480    1.1430 ho        1 GTQ      0.406000
     13 HOAD       -0.8330   -2.8350    0.8350 ho        1 GTQ      0.479000
     14 HAE         1.8690    0.8550    1.9100 ha        1 GTQ      0.066000
     15 HAF         1.3350   -1.4390    1.7210 ha        1 GTQ      0.066000
     16 HAG        -0.8430    1.7270   -1.0270 ha        1 GTQ      0.097500
@<TRIPOS>BOND
     1    1    8 1   
     2    2    8 1   
     3    3    9 1   
     4    3   12 1   
     5    4   10 1   
     6    4   13 1   
     7    5    6 3   
     8    5   14 1   
     9    6   15 1   
    10    7    9 3   
    11    7   16 1   
    12    8   11 1   
    13   10   11 3   
@<TRIPOS>SUBSTRUCTURE
     1 GTQ         1 TEMP              0 ****  ****    0 ROOT
