@<TRIPOS>MOLECULE
GTR
   22    22     1     0     0
SMALL
bcc


@<TRIPOS>ATOM
      1 C1          1.1160    1.2420   -0.5470 c3        1 GTR      0.311900
      2 C2          1.8180    0.0160    0.0760 c3        1 GTR      0.050100
      3 C3          1.0950   -1.2630   -0.3660 c3        1 GTR      0.141100
      4 C4         -0.3840   -1.1390    0.0550 c3        1 GTR      0.143100
      5 C5         -0.9660    0.0930   -0.6550 c3        1 GTR     -0.025900
      6 C6         -2.4760    0.3170   -0.3150 c         1 GTR      0.935600
      7 O1          1.5960    2.4280    0.0430 oh        1 GTR     -0.631800
      8 O2          3.1640   -0.0690   -0.3720 oh        1 GTR     -0.622800
      9 O3          1.6530   -2.4240    0.2190 oh        1 GTR     -0.588800
     10 O4         -0.4230   -1.0450    1.4660 oh        1 GTR     -0.629800
     11 O5         -0.2670    1.2770   -0.2640 os        1 GTR     -0.416600
     12 O61        -2.8110    0.3570    0.9000 o         1 GTR     -0.813800
     13 O62        -3.2550    0.4030   -1.2970 o         1 GTR     -0.813800
     14 H1          1.3250    1.3080   -1.6510 h2        1 GTR      0.057700
     15 H2          1.7950    0.0910    1.1980 h1        1 GTR      0.076700
     16 H3          1.1580   -1.3620   -1.4870 h1        1 GTR      0.033700
     17 H4         -0.9450   -2.0610   -0.2610 h1        1 GTR      0.054700
     18 H5         -0.8610   -0.0380   -1.7670 h1        1 GTR      0.040700
     19 HO1         0.9830    2.6740    0.7510 ho        1 GTR      0.432000
     20 HO2         3.5510    0.8020   -0.2170 ho        1 GTR      0.410000
     21 HO3         2.6120   -2.3070    0.1970 ho        1 GTR      0.400000
     22 HO4        -1.2210   -0.5360    1.6980 ho        1 GTR      0.457000
@<TRIPOS>BOND
     1    1    2 1   
     2    1    7 1   
     3    1   11 1   
     4    1   14 1   
     5    2    3 1   
     6    2    8 1   
     7    2   15 1   
     8    3    4 1   
     9    3    9 1   
    10    3   16 1   
    11    4    5 1   
    12    4   10 1   
    13    4   17 1   
    14    5    6 1   
    15    5   11 1   
    16    5   18 1   
    17    6   12 1   
    18    6   13 1   
    19    7   19 1   
    20    8   20 1   
    21    9   21 1   
    22   10   22 1   
@<TRIPOS>SUBSTRUCTURE
     1 GTR         1 TEMP              0 ****  ****    0 ROOT
