@<TRIPOS>MOLECULE
GTS
   37    36     1     0     0
SMALL
bcc


@<TRIPOS>ATOM
      1 N1          2.6000    1.0870    4.5060 n3        1 GTS     -0.901800
      2 CA1         1.5190    0.1210    4.6700 c3        1 GTS      0.029500
      3 C1          1.8040   -0.9630    5.7580 c         1 GTS      0.891600
      4 O11         2.9740   -1.0460    6.2440 o         1 GTS     -0.859300
      5 O12         0.8430   -1.6860    6.1450 o         1 GTS     -0.859300
      6 CB1         1.0990   -0.5680    3.3660 c3        1 GTS     -0.060400
      7 CG1         0.4770    0.4070    2.3870 c3        1 GTS     -0.147400
      8 CD1         0.2410   -0.2050    1.0120 c         1 GTS      0.667100
      9 OE1         0.5170   -1.3970    0.7530 o         1 GTS     -0.647100
     10 N2         -0.2990    0.6360    0.0600 n         1 GTS     -0.556900
     11 CA2        -0.5620    0.2480   -1.3010 c3        1 GTS      0.110700
     12 C2          0.6830    0.4230   -2.2260 c         1 GTS      0.633100
     13 O2          1.5330    1.3210   -2.0200 o         1 GTS     -0.673100
     14 CB2        -1.6740    1.0690   -1.9530 c3        1 GTS     -0.306600
     15 SG2        -3.1330    1.4960   -1.0320 s6        1 GTS      1.423800
     16 O1S        -3.7740    0.2900   -0.6700 o         1 GTS     -0.755533
     17 O2S        -2.6860    2.2800    0.0640 o         1 GTS     -0.755533
     18 O3S        -3.8950    2.2580   -1.9630 o         1 GTS     -0.755533
     19 N3          0.7930   -0.4260   -3.2960 n         1 GTS     -0.539900
     20 CA3         1.8280   -0.2960   -4.2830 c3        1 GTS     -0.023000
     21 C3          1.6190   -1.1310   -5.5710 c         1 GTS      0.904600
     22 O31         2.5000   -0.9950   -6.4720 o         1 GTS     -0.858800
     23 O32         0.6200   -1.8960   -5.6840 o         1 GTS     -0.858800
     24 HN11        3.1710    0.8150    3.7260 hn        1 GTS      0.329300
     25 HN12        3.1860    1.0350    5.3240 hn        1 GTS      0.329300
     26 HA1         0.6320    0.7130    5.0470 h1        1 GTS      0.040700
     27 HB11        1.9780   -1.0730    2.8870 hc        1 GTS      0.057200
     28 HB12        0.3590   -1.3710    3.6250 hc        1 GTS      0.057200
     29 HG11       -0.5050    0.7690    2.7930 hc        1 GTS      0.061700
     30 HG12        1.1430    1.3020    2.2610 hc        1 GTS      0.061700
     31 HN2        -0.5330    1.5710    0.3120 hn        1 GTS      0.338500
     32 HA2        -0.8530   -0.8470   -1.2860 h1        1 GTS      0.079700
     33 HB21       -1.2350    2.0360   -2.3100 h1        1 GTS      0.081700
     34 HB22       -1.9980    0.5080   -2.8650 h1        1 GTS      0.081700
     35 HN3         0.0730   -1.0820   -3.5000 hn        1 GTS      0.326500
     36 HA31        1.9300    0.7860   -4.5800 h1        1 GTS      0.027700
     37 HA32        2.8100   -0.6080   -3.8270 h1        1 GTS      0.027700
@<TRIPOS>BOND
     1    1    2 1   
     2    1   24 1   
     3    1   25 1   
     4    2    3 1   
     5    2    6 1   
     6    2   26 1   
     7    3    4 1   
     8    3    5 1   
     9    6    7 1   
    10    6   27 1   
    11    6   28 1   
    12    7    8 1   
    13    7   29 1   
    14    7   30 1   
    15    8    9 2   
    16    8   10 1   
    17   10   11 1   
    18   10   31 1   
    19   11   12 1   
    20   11   14 1   
    21   11   32 1   
    22   12   13 2   
    23   12   19 1   
    24   14   15 1   
    25   14   33 1   
    26   14   34 1   
    27   15   16 1   
    28   15   17 1   
    29   15   18 1   
    30   19   20 1   
    31   19   35 1   
    32   20   21 1   
    33   20   36 1   
    34   20   37 1   
    35   21   22 1   
    36   21   23 1   
@<TRIPOS>SUBSTRUCTURE
     1 GTS         1 TEMP              0 ****  ****    0 ROOT
