@<TRIPOS>MOLECULE
GTS
   37    36     1     0     0
SMALL
bcc


@<TRIPOS>ATOM
      1 N1         -0.0060   -0.4700   -0.5130 n3        1 GTS     -0.901800
      2 CA1         1.1150    0.2340    0.1010 c3        1 GTS      0.029500
      3 C1          0.9420    0.4740    1.6350 c         1 GTS      0.891600
      4 O11        -0.1880    0.2420    2.1650 o         1 GTS     -0.859300
      5 O12         1.9500    0.8480    2.2980 o         1 GTS     -0.859300
      6 CB1         1.4660    1.5600   -0.5830 c3        1 GTS     -0.060400
      7 CG1         1.9860    1.3490   -1.9900 c3        1 GTS     -0.147400
      8 CD1         2.1470    2.6520   -2.7630 c         1 GTS      0.667100
      9 OE1         1.8930    3.7670   -2.2570 o         1 GTS     -0.647100
     10 N2          2.5910    2.5330   -4.0640 n         1 GTS     -0.556900
     11 CA2         2.7720    3.6460   -4.9580 c3        1 GTS      0.110700
     12 C2          1.4620    4.0280   -5.7140 c         1 GTS      0.633100
     13 O2          0.5990    3.1670   -6.0080 o         1 GTS     -0.673100
     14 CB2         3.8080    3.3770   -6.0480 c3        1 GTS     -0.306600
     15 SG2         5.3130    2.5110   -5.6630 s6        1 GTS      1.423800
     16 O1S         6.0170    3.2870   -4.7150 o         1 GTS     -0.755533
     17 O2S         4.9170    1.2290   -5.2000 o         1 GTS     -0.755533
     18 O3S         5.9830    2.4470   -6.9180 o         1 GTS     -0.755533
     19 N3          1.3060    5.3410   -6.0760 n         1 GTS     -0.539900
     20 CA3         0.2020    5.7970   -6.8720 c3        1 GTS     -0.023000
     21 C3          0.3480    7.2300   -7.4430 c         1 GTS      0.904600
     22 O31        -0.5970    7.6350   -8.1840 o         1 GTS     -0.858800
     23 O32         1.3620    7.9310   -7.1630 o         1 GTS     -0.858800
     24 HN11       -0.5330   -0.9130    0.2230 hn        1 GTS      0.329300
     25 HN12       -0.6210    0.1990   -0.9420 hn        1 GTS      0.329300
     26 HA1         2.0050   -0.4550   -0.0060 h1        1 GTS      0.040700
     27 HB11        0.5730    2.2380   -0.6090 hc        1 GTS      0.057200
     28 HB12        2.2480    2.0700    0.0390 hc        1 GTS      0.057200
     29 HG11        2.9810    0.8320   -1.9470 hc        1 GTS      0.061700
     30 HG12        1.2840    0.6870   -2.5640 hc        1 GTS      0.061700
     31 HN2         2.8110    1.6300   -4.4240 hn        1 GTS      0.338500
     32 HA2         3.1000    4.5300   -4.3300 h1        1 GTS      0.079700
     33 HB21        4.0870    4.3680   -6.4830 h1        1 GTS      0.081700
     34 HB22        3.3150    2.7940   -6.8680 h1        1 GTS      0.081700
     35 HN3         2.0310    6.0020   -5.9130 hn        1 GTS      0.326500
     36 HA31        0.0430    5.0910   -7.7360 h1        1 GTS      0.027700
     37 HA32       -0.7360    5.7710   -6.2480 h1        1 GTS      0.027700
@<TRIPOS>BOND
     1    1    2 1   
     2    1   24 1   
     3    1   25 1   
     4    2    3 1   
     5    2    6 1   
     6    2   26 1   
     7    3    4 1   
     8    3    5 1   
     9    6    7 1   
    10    6   27 1   
    11    6   28 1   
    12    7    8 1   
    13    7   29 1   
    14    7   30 1   
    15    8    9 2   
    16    8   10 1   
    17   10   11 1   
    18   10   31 1   
    19   11   12 1   
    20   11   14 1   
    21   11   32 1   
    22   12   13 2   
    23   12   19 1   
    24   14   15 1   
    25   14   33 1   
    26   14   34 1   
    27   15   16 1   
    28   15   17 1   
    29   15   18 1   
    30   19   20 1   
    31   19   35 1   
    32   20   21 1   
    33   20   36 1   
    34   20   37 1   
    35   21   22 1   
    36   21   23 1   
@<TRIPOS>SUBSTRUCTURE
     1 GTS         1 TEMP              0 ****  ****    0 ROOT
