@<TRIPOS>MOLECULE
GTT
   36    35     1     0     0
SMALL
bcc


@<TRIPOS>ATOM
      1 N1          0.2320    1.8370   -1.7270 n4        1 GTT     -0.836600
      2 CA1         0.7520    0.5030   -1.3080 c3        1 GTT     -0.056500
      3 C1         -0.1760   -0.1170   -0.1650 c         1 GTT      0.930600
      4 O11        -1.1590    0.5880    0.1850 o         1 GTT     -0.778800
      5 O12         0.1660   -1.2430    0.2470 o         1 GTT     -0.778800
      6 CB1         2.1870    0.5380   -0.8050 c3        1 GTT     -0.084400
      7 CG1         3.2170    0.7100   -1.9000 c3        1 GTT     -0.163400
      8 CD1         3.2310    2.1310   -2.4360 c         1 GTT      0.643100
      9 OE1         2.9840    3.1020   -1.6850 o         1 GTT     -0.635100
     10 N2          3.5870    2.3200   -3.7620 n         1 GTT     -0.516900
     11 CA2         3.3030    3.5820   -4.4180 c3        1 GTT      0.008700
     12 C2          1.7760    3.8300   -4.6050 c         1 GTT      0.641100
     13 O2          0.9460    2.9740   -4.2090 o         1 GTT     -0.711100
     14 CB2         3.9730    3.6670   -5.7970 c3        1 GTT      0.002700
     15 SG2         4.5560    5.3120   -6.1080 sh        1 GTT     -0.471900
     16 N3          1.3990    5.0450   -5.1310 n         1 GTT     -0.474900
     17 CA3         0.2630    5.1190   -6.0270 c3        1 GTT     -0.082000
     18 C3          0.6530    5.0340   -7.5340 c         1 GTT      0.902600
     19 O31         1.8680    4.8140   -7.8300 o         1 GTT     -0.838300
     20 O32        -0.2730    5.1900   -8.3660 o         1 GTT     -0.838300
     21 HN11       -0.0190    1.8370   -2.7190 hn        1 GTT      0.459467
     22 HN12       -0.6140    2.0260   -1.1560 hn        1 GTT      0.459467
     23 HN13        0.9220    2.5770   -1.5680 hn        1 GTT      0.459467
     24 HA1         0.6730   -0.1880   -2.1930 hx        1 GTT      0.083700
     25 HB11        2.3590   -0.4510   -0.2920 hc        1 GTT      0.091200
     26 HB12        2.3160    1.3450   -0.0340 hc        1 GTT      0.091200
     27 HG11        3.0300   -0.0340   -2.7170 hc        1 GTT      0.068700
     28 HG12        4.2390    0.5070   -1.4800 hc        1 GTT      0.068700
     29 HN2         3.5420    1.5220   -4.3560 hn        1 GTT      0.301500
     30 HA2         3.7040    4.4020   -3.7460 h1        1 GTT      0.112700
     31 HB21        3.2520    3.3710   -6.6050 h1        1 GTT      0.099700
     32 HB22        4.8660    2.9980   -5.8510 h1        1 GTT      0.099700
     33 HSG         3.7490    5.6240   -7.1530 hs        1 GTT      0.316800
     34 HN3         2.1720    5.5980   -5.4690 hn        1 GTT      0.305500
     35 HA31       -0.4610    4.2920   -5.8000 h1        1 GTT      0.059200
     36 HA32       -0.2460    6.1040   -5.8470 h1        1 GTT      0.059200
@<TRIPOS>BOND
     1    1    2 1   
     2    1   21 1   
     3    1   22 1   
     4    1   23 1   
     5    2    3 1   
     6    2    6 1   
     7    2   24 1   
     8    3    4 1   
     9    3    5 1   
    10    6    7 1   
    11    6   25 1   
    12    6   26 1   
    13    7    8 1   
    14    7   27 1   
    15    7   28 1   
    16    8    9 2   
    17    8   10 1   
    18   10   11 1   
    19   10   29 1   
    20   11   12 1   
    21   11   14 1   
    22   11   30 1   
    23   12   13 2   
    24   12   16 1   
    25   14   15 1   
    26   14   31 1   
    27   14   32 1   
    28   15   33 1   
    29   16   17 1   
    30   16   34 1   
    31   17   18 1   
    32   17   35 1   
    33   17   36 1   
    34   18   19 1   
    35   18   20 1   
@<TRIPOS>SUBSTRUCTURE
     1 GTT         1 TEMP              0 ****  ****    0 ROOT
