@<TRIPOS>MOLECULE
GTT
   36    35     1     0     0
SMALL
bcc


@<TRIPOS>ATOM
      1 N1         -2.3150    1.8600    0.3570 n4        1 GTT     -0.836600
      2 CA1        -3.4050    1.4610   -0.5800 c3        1 GTT     -0.056500
      3 C1         -4.6850    2.3930   -0.3650 c         1 GTT      0.930600
      4 O11        -4.5750    3.2800    0.5210 o         1 GTT     -0.778800
      5 O12        -5.6520    2.1510   -1.1130 o         1 GTT     -0.778800
      6 CB1        -3.8320    0.0090   -0.4370 c3        1 GTT     -0.084400
      7 CG1        -2.8390   -0.9810   -1.0090 c3        1 GTT     -0.163400
      8 CD1        -1.6120   -1.1160   -0.1240 c         1 GTT      0.643100
      9 OE1        -1.7040   -1.0070    1.1200 o         1 GTT     -0.635100
     10 N2         -0.4060   -1.4260   -0.7310 n         1 GTT     -0.516900
     11 CA2         0.8390   -1.2440   -0.0100 c3        1 GTT      0.008700
     12 C2          1.1580    0.2560    0.2650 c         1 GTT      0.641100
     13 O2          0.3720    1.1510   -0.1350 o         1 GTT     -0.711100
     14 CB2         2.0280   -1.8520   -0.7690 c3        1 GTT      0.002700
     15 SG2         3.1790   -2.5870    0.3610 sh        1 GTT     -0.471900
     16 N3          2.2700    0.5310    1.0290 n         1 GTT     -0.474900
     17 CA3         3.0790    1.6940    0.7290 c3        1 GTT     -0.082000
     18 C3          4.2860    1.3870   -0.2090 c         1 GTT      0.902600
     19 O31         4.3920    0.2160   -0.6890 o         1 GTT     -0.838300
     20 O32         5.0830    2.3300   -0.4290 o         1 GTT     -0.838300
     21 HN11       -2.0550    1.0900    0.9810 hn        1 GTT      0.459467
     22 HN12       -1.4810    2.1570   -0.1560 hn        1 GTT      0.459467
     23 HN13       -2.6750    2.6540    0.9210 hn        1 GTT      0.459467
     24 HA1        -3.0420    1.6540   -1.6280 hx        1 GTT      0.083700
     25 HB11       -4.0360   -0.2400    0.6390 hc        1 GTT      0.091200
     26 HB12       -4.8050   -0.0840   -0.9980 hc        1 GTT      0.091200
     27 HG11       -3.3190   -1.9950   -1.0640 hc        1 GTT      0.068700
     28 HG12       -2.5600   -0.6790   -2.0520 hc        1 GTT      0.068700
     29 HN2        -0.3460   -1.2700   -1.7130 hn        1 GTT      0.301500
     30 HA2         0.7200   -1.7590    0.9920 h1        1 GTT      0.112700
     31 HB21        1.6910   -2.6680   -1.4540 h1        1 GTT      0.099700
     32 HB22        2.5540   -1.0670   -1.3740 h1        1 GTT      0.099700
     33 HSG         4.2380   -1.7680    0.1400 hs        1 GTT      0.316800
     34 HN3         2.8420   -0.2790    1.2160 hn        1 GTT      0.305500
     35 HA31        2.4490    2.4880    0.2480 h1        1 GTT      0.059200
     36 HA32        3.4770    2.0890    1.7020 h1        1 GTT      0.059200
@<TRIPOS>BOND
     1    1    2 1   
     2    1   21 1   
     3    1   22 1   
     4    1   23 1   
     5    2    3 1   
     6    2    6 1   
     7    2   24 1   
     8    3    4 1   
     9    3    5 1   
    10    6    7 1   
    11    6   25 1   
    12    6   26 1   
    13    7    8 1   
    14    7   27 1   
    15    7   28 1   
    16    8    9 2   
    17    8   10 1   
    18   10   11 1   
    19   10   29 1   
    20   11   12 1   
    21   11   14 1   
    22   11   30 1   
    23   12   13 2   
    24   12   16 1   
    25   14   15 1   
    26   14   31 1   
    27   14   32 1   
    28   15   33 1   
    29   16   17 1   
    30   16   34 1   
    31   17   18 1   
    32   17   35 1   
    33   17   36 1   
    34   18   19 1   
    35   18   20 1   
@<TRIPOS>SUBSTRUCTURE
     1 GTT         1 TEMP              0 ****  ****    0 ROOT
