@<TRIPOS>MOLECULE
GTX
   54    53     1     0     0
SMALL
bcc


@<TRIPOS>ATOM
      1 N1         -4.1140   -0.5170   -0.7130 n4        1 GTX     -0.835600
      2 CA1        -5.2320    0.0420    0.1000 c3        1 GTX     -0.055500
      3 C1         -6.6340   -0.4920   -0.4490 c         1 GTX      0.929600
      4 O11        -6.5770   -1.2680   -1.4380 o         1 GTX     -0.779800
      5 O12        -7.6370   -0.0930    0.1750 o         1 GTX     -0.779800
      6 CB1        -5.2670    1.5620    0.1250 c3        1 GTX     -0.084400
      7 CG1        -4.1810    2.1870    0.9750 c3        1 GTX     -0.164400
      8 CD1        -2.8260    2.1190    0.2910 c         1 GTX      0.645100
      9 OE1        -2.7330    2.1760   -0.9560 o         1 GTX     -0.635100
     10 N2         -1.6980    2.0580    1.0950 n         1 GTX     -0.515900
     11 CA2        -0.4240    1.6560    0.5310 c3        1 GTX      0.017700
     12 C2         -0.3990    0.1480    0.1370 c         1 GTX      0.648100
     13 O2         -1.4580   -0.5270    0.1790 o         1 GTX     -0.713100
     14 CB2         0.7350    1.9450    1.4930 c3        1 GTX     -0.040300
     15 SG2         2.0710    2.6430    0.5580 ss        1 GTX     -0.351200
     16 C1S         3.5010    1.7810    1.1670 c3        1 GTX     -0.027300
     17 C2S         4.5270    1.7530    0.0650 c3        1 GTX     -0.063400
     18 C3S         5.7860    1.0450    0.5250 c3        1 GTX     -0.082400
     19 C4S         6.8200    0.9980   -0.5790 c3        1 GTX     -0.076400
     20 C5S         8.0760    0.2860   -0.1240 c3        1 GTX     -0.082400
     21 C6S         9.1110    0.2330   -1.2180 c3        1 GTX     -0.090100
     22 N3          0.7830   -0.3600   -0.3540 n         1 GTX     -0.472900
     23 CA3         1.1390   -1.7370   -0.0770 c3        1 GTX     -0.079000
     24 C3          1.9940   -1.9180    1.2120 c         1 GTX      0.899600
     25 O31         2.0870   -0.9420    2.0180 o         1 GTX     -0.835800
     26 O32         2.5450   -3.0360    1.3700 o         1 GTX     -0.835800
     27 HN11       -3.4870   -1.0820   -0.1350 hn        1 GTX      0.459800
     28 HN12       -4.5400   -1.1150   -1.4460 hn        1 GTX      0.459800
     29 HN13       -3.5610    0.2230   -1.1560 hn        1 GTX      0.459800
     30 HA1        -5.1250   -0.3560    1.1470 hx        1 GTX      0.082700
     31 HB11       -6.2720    1.8410    0.5510 hc        1 GTX      0.091200
     32 HB12       -5.2160    1.9760   -0.9180 hc        1 GTX      0.091200
     33 HG11       -4.1560    1.6940    1.9820 hc        1 GTX      0.069200
     34 HG12       -4.4160    3.2740    1.1330 hc        1 GTX      0.069200
     35 HN2        -1.8370    1.7900    2.0440 hn        1 GTX      0.303500
     36 HA2        -0.2850    2.2480   -0.4270 h1        1 GTX      0.111700
     37 HB21        1.0670    1.0060    2.0200 h1        1 GTX      0.108200
     38 HB22        0.4410    2.6890    2.2730 h1        1 GTX      0.108200
     39 HS11        3.2290    0.7350    1.4860 h1        1 GTX      0.100200
     40 HS12        3.8980    2.3190    2.0610 h1        1 GTX      0.100200
     41 HS21        4.7780    2.7990   -0.2560 hc        1 GTX      0.042700
     42 HS22        4.1060    1.2200   -0.8300 hc        1 GTX      0.042700
     43 HS31        5.5280    0.0020    0.8490 hc        1 GTX      0.051200
     44 HS32        6.2100    1.5750    1.4180 hc        1 GTX      0.051200
     45 HS41        7.0760    2.0420   -0.9030 hc        1 GTX      0.035700
     46 HS42        6.3920    0.4700   -1.4710 hc        1 GTX      0.035700
     47 HS51        7.8150   -0.7570    0.2000 hc        1 GTX      0.041200
     48 HS52        8.5000    0.8120    0.7720 hc        1 GTX      0.041200
     49 HS61       10.0270   -0.2950   -0.8620 hc        1 GTX      0.027700
     50 HS62        8.7140   -0.3110   -2.1090 hc        1 GTX      0.027700
     51 HS63        9.3990    1.2630   -1.5380 hc        1 GTX      0.027700
     52 HN3         1.5690    0.2600   -0.2500 hn        1 GTX      0.303500
     53 HA31        0.2090   -2.3570    0.0290 h1        1 GTX      0.059200
     54 HA32        1.7270   -2.1160   -0.9560 h1        1 GTX      0.059200
@<TRIPOS>BOND
     1    1    2 1   
     2    1   27 1   
     3    1   28 1   
     4    1   29 1   
     5    2    3 1   
     6    2    6 1   
     7    2   30 1   
     8    3    4 1   
     9    3    5 1   
    10    6    7 1   
    11    6   31 1   
    12    6   32 1   
    13    7    8 1   
    14    7   33 1   
    15    7   34 1   
    16    8    9 2   
    17    8   10 1   
    18   10   11 1   
    19   10   35 1   
    20   11   12 1   
    21   11   14 1   
    22   11   36 1   
    23   12   13 2   
    24   12   22 1   
    25   14   15 1   
    26   14   37 1   
    27   14   38 1   
    28   15   16 1   
    29   16   17 1   
    30   16   39 1   
    31   16   40 1   
    32   17   18 1   
    33   17   41 1   
    34   17   42 1   
    35   18   19 1   
    36   18   43 1   
    37   18   44 1   
    38   19   20 1   
    39   19   45 1   
    40   19   46 1   
    41   20   21 1   
    42   20   47 1   
    43   20   48 1   
    44   21   49 1   
    45   21   50 1   
    46   21   51 1   
    47   22   23 1   
    48   22   52 1   
    49   23   24 1   
    50   23   53 1   
    51   23   54 1   
    52   24   25 1   
    53   24   26 1   
@<TRIPOS>SUBSTRUCTURE
     1 GTX         1 TEMP              0 ****  ****    0 ROOT
