@<TRIPOS>MOLECULE
GTX
   56    55     1     0     0
SMALL
bcc


@<TRIPOS>ATOM
      1 N1          2.5540   -1.5250   -2.7110 n4        1 GTX     -0.824600
      2 CA1         1.6310   -0.3710   -2.9370 c3        1 GTX     -0.044500
      3 C1          2.0090    0.3090   -4.3040 c         1 GTX      0.890600
      4 O11         1.0670    0.7700   -4.9860 o         1 GTX     -0.777800
      5 O12         3.2430    0.4220   -4.5400 o         1 GTX     -0.777800
      6 CB1         1.7360    0.6810   -1.8290 c3        1 GTX     -0.084400
      7 CG1         1.1730    2.0220   -2.2750 c3        1 GTX     -0.149400
      8 CD1         2.2600    2.9330   -2.7960 c         1 GTX      0.563100
      9 OE1         3.1020    3.4940   -2.1050 o         1 GTX     -0.442100
     10 N2          2.3140    3.1650   -4.2740 n4        1 GTX     -0.685800
     11 CA2         2.5390    4.5940   -4.6560 c3        1 GTX      0.055500
     12 C2          1.2160    5.3950   -4.5900 c         1 GTX      0.642100
     13 O2          0.1380    4.8100   -4.3710 o         1 GTX     -0.589100
     14 CB2         3.1240    4.7100   -6.0660 c3        1 GTX     -0.069300
     15 SG2         4.4690    3.5850   -6.2530 ss        1 GTX     -0.270200
     16 C1S         4.0270    2.6110   -7.6780 c3        1 GTX     -0.000300
     17 C2S         4.7530    1.2980   -7.5320 c3        1 GTX     -0.087400
     18 C3S         4.5870    0.4570   -8.7820 c3        1 GTX     -0.075400
     19 C4S         5.3180   -0.8630   -8.6470 c3        1 GTX     -0.076400
     20 C5S         5.1490   -1.7120   -9.8890 c3        1 GTX     -0.081400
     21 C6S         5.8760   -3.0250   -9.7620 c3        1 GTX     -0.093100
     22 N3          1.3200    6.7640   -4.7060 n         1 GTX     -0.502900
     23 CA3         0.1540    7.5660   -4.9710 c3        1 GTX     -0.025000
     24 C3         -0.0160    7.9210   -6.4390 c         1 GTX      0.598100
     25 O31         0.7570    7.6280   -7.3510 o         1 GTX     -0.490000
     26 O32        -1.1060    8.6350   -6.8200 oh        1 GTX     -0.545100
     27 HN11        2.6190   -1.7680   -1.7230 hn        1 GTX      0.460800
     28 HN12        3.4860   -1.2480   -3.0700 hn        1 GTX      0.460800
     29 HN13        2.2260   -2.3310   -3.2480 hn        1 GTX      0.460800
     30 HA1         0.5760   -0.7650   -2.9990 hx        1 GTX      0.122700
     31 HB11        1.1510    0.3350   -0.9350 hc        1 GTX      0.077200
     32 HB12        2.8040    0.8160   -1.5040 hc        1 GTX      0.077200
     33 HG11        0.3480    1.8740   -3.0280 hc        1 GTX      0.125200
     34 HG12        0.7280    2.5510   -1.3840 hc        1 GTX      0.125200
     35 HN2         3.1100    2.5880   -4.6870 hn        1 GTX      0.513300
     36 HA2         3.2770    5.0260   -3.9090 hx        1 GTX      0.139700
     37 HB21        2.3360    4.5420   -6.8430 h1        1 GTX      0.113200
     38 HB22        3.5120    5.7530   -6.2010 h1        1 GTX      0.113200
     39 HS11        4.3510    3.1480   -8.6020 h1        1 GTX      0.078700
     40 HS12        2.9240    2.4530   -7.7310 h1        1 GTX      0.078700
     41 HS21        4.3510    0.7390   -6.6420 hc        1 GTX      0.069200
     42 HS22        5.8450    1.4850   -7.3500 hc        1 GTX      0.069200
     43 HS31        3.4970    0.2670   -8.9660 hc        1 GTX      0.046700
     44 HS32        4.9840    1.0160   -9.6710 hc        1 GTX      0.046700
     45 HS41        4.9260   -1.4190   -7.7550 hc        1 GTX      0.039200
     46 HS42        6.4090   -0.6730   -8.4660 hc        1 GTX      0.039200
     47 HS51        4.0580   -1.9000  -10.0690 hc        1 GTX      0.043200
     48 HS52        5.5390   -1.1510  -10.7800 hc        1 GTX      0.043200
     49 HS61        5.7400   -3.6340  -10.6890 hc        1 GTX      0.035033
     50 HS62        5.4860   -3.6110   -8.8960 hc        1 GTX      0.035033
     51 HS63        6.9700   -2.8590   -9.6080 hc        1 GTX      0.035033
     52 HN3        -1.6700    8.8260   -6.0550 ho        1 GTX      0.436000
     53 HA31       -0.7700    7.0210   -4.6180 h1        1 GTX      0.108700
     54 HA32        0.2550    8.5280   -4.3860 h1        1 GTX      0.108700
     55 H22         1.4320    2.8210   -4.7060 hn        1 GTX      0.513300
     56 H32         2.1800    7.1380   -5.0510 hn        1 GTX      0.329500
@<TRIPOS>BOND
     1    1    2 1   
     2    1   27 1   
     3    1   28 1   
     4    1   29 1   
     5    2    3 1   
     6    2    6 1   
     7    2   30 1   
     8    3    4 1   
     9    3    5 1   
    10    6    7 1   
    11    6   31 1   
    12    6   32 1   
    13    7    8 1   
    14    7   33 1   
    15    7   34 1   
    16    8    9 2   
    17    8   10 1   
    18   10   11 1   
    19   10   35 1   
    20   10   55 1   
    21   11   12 1   
    22   11   14 1   
    23   11   36 1   
    24   12   13 2   
    25   12   22 1   
    26   14   15 1   
    27   14   37 1   
    28   14   38 1   
    29   15   16 1   
    30   16   17 1   
    31   16   39 1   
    32   16   40 1   
    33   17   18 1   
    34   17   41 1   
    35   17   42 1   
    36   18   19 1   
    37   18   43 1   
    38   18   44 1   
    39   19   20 1   
    40   19   45 1   
    41   19   46 1   
    42   20   21 1   
    43   20   47 1   
    44   20   48 1   
    45   21   49 1   
    46   21   50 1   
    47   21   51 1   
    48   22   23 1   
    49   22   56 1   
    50   23   24 1   
    51   23   53 1   
    52   23   54 1   
    53   24   25 2   
    54   24   26 1   
    55   26   52 1   
@<TRIPOS>SUBSTRUCTURE
     1 GTX         1 TEMP              0 ****  ****    0 ROOT
