@<TRIPOS>MOLECULE
GTX
   56    55     1     0     0
SMALL
bcc


@<TRIPOS>ATOM
      1 N1          2.5130   -1.5130   -2.7000 nz        1 GTX     -0.824600
      2 CA1         1.6060   -0.3460   -2.9240 c3        1 GTX     -0.044500
      3 C1          1.9870    0.3240   -4.2950 c         1 GTX      0.890600
      4 O11         1.0480    0.7970   -4.9730 o         1 GTX     -0.777800
      5 O12         3.2210    0.4180   -4.5380 o         1 GTX     -0.777800
      6 CB1         1.7330    0.7080   -1.8200 c3        1 GTX     -0.084400
      7 CG1         1.1870    2.0550   -2.2660 c3        1 GTX     -0.149400
      8 CD1         2.2840    2.9490   -2.7960 c         1 GTX      0.563100
      9 OE1         3.1380    3.5000   -2.1110 o         1 GTX     -0.442100
     10 N2          2.3340    3.1750   -4.2760 ny        1 GTX     -0.685800
     11 CA2         2.5790    4.6000   -4.6630 c3        1 GTX      0.055500
     12 C2          1.2690    5.4210   -4.5930 c         1 GTX      0.642100
     13 O2          0.1830    4.8540   -4.3670 o         1 GTX     -0.589100
     14 CB2         3.1580    4.7020   -6.0770 c3        1 GTX     -0.069300
     15 SG2         4.4860    3.5570   -6.2670 ss        1 GTX     -0.270200
     16 C1S         4.0220    2.5850   -7.6850 c3        1 GTX     -0.000300
     17 C2S         4.7310    1.2620   -7.5400 c3        1 GTX     -0.087400
     18 C3S         4.5490    0.4200   -8.7870 c3        1 GTX     -0.075400
     19 C4S         5.2630   -0.9080   -8.6510 c3        1 GTX     -0.076400
     20 C5S         5.0770   -1.7580   -9.8900 c3        1 GTX     -0.081400
     21 C6S         5.7890   -3.0800   -9.7640 c3        1 GTX     -0.093100
     22 N3          1.3940    6.7890   -4.7120 ns        1 GTX     -0.502900
     23 CA3         0.2400    7.6080   -4.9720 c3        1 GTX     -0.025000
     24 C3          0.0680    7.9630   -6.4400 c         1 GTX      0.598100
     25 O31         0.8320    7.6570   -7.3560 o         1 GTX     -0.490000
     26 O32        -1.0120    8.6940   -6.8170 oh        1 GTX     -0.545100
     27 HN11        2.5790   -1.7530   -1.7110 hn        1 GTX      0.460800
     28 HN12        2.1690   -2.3160   -3.2320 hn        1 GTX      0.460800
     29 HN13        3.4470   -1.2500   -3.0650 hn        1 GTX      0.460800
     30 HA1         0.5450   -0.7240   -2.9790 hx        1 GTX      0.122700
     31 HB11        2.8040    0.8280   -1.5010 hc        1 GTX      0.077200
     32 HB12        1.1470    0.3740   -0.9210 hc        1 GTX      0.077200
     33 HG11        0.3560    1.9180   -3.0150 hc        1 GTX      0.125200
     34 HG12        0.7550    2.5940   -1.3750 hc        1 GTX      0.125200
     35 HN2         1.4450    2.8440   -4.7020 hn        1 GTX      0.513300
     36 HA2         3.3280    5.0220   -3.9210 hx        1 GTX      0.139700
     37 HB21        3.5600    5.7380   -6.2180 h1        1 GTX      0.113200
     38 HB22        2.3630    4.5430   -6.8480 h1        1 GTX      0.113200
     39 HS11        4.3470    3.1140   -8.6140 h1        1 GTX      0.078700
     40 HS12        2.9170    2.4410   -7.7310 h1        1 GTX      0.078700
     41 HS21        5.8270    1.4350   -7.3640 hc        1 GTX      0.068700
     42 HS22        4.3270    0.7110   -6.6460 hc        1 GTX      0.068700
     43 HS31        3.4550    0.2440   -8.9640 hc        1 GTX      0.046700
     44 HS32        4.9470    0.9710   -9.6790 hc        1 GTX      0.046700
     45 HS41        4.8700   -1.4570   -7.7560 hc        1 GTX      0.039200
     46 HS42        6.3570   -0.7320   -8.4780 hc        1 GTX      0.039200
     47 HS51        3.9830   -1.9340  -10.0630 hc        1 GTX      0.043200
     48 HS52        5.4680   -1.2050  -10.7850 hc        1 GTX      0.043200
     49 HS61        6.8860   -2.9260   -9.6170 hc        1 GTX      0.035033
     50 HS62        5.3970   -3.6590   -8.8930 hc        1 GTX      0.035033
     51 HS63        5.6400   -3.6900  -10.6880 hc        1 GTX      0.035033
     52 HN3         2.2580    7.1490   -5.0620 hn        1 GTX      0.329500
     53 HA31        0.3580    8.5690   -4.3890 h1        1 GTX      0.108700
     54 HA32       -0.6910    7.0770   -4.6140 h1        1 GTX      0.108700
     55 H22         3.1190    2.5850   -4.6900 hn        1 GTX      0.513300
     56 H32        -1.5700    8.8940   -6.0500 ho        1 GTX      0.436000
@<TRIPOS>BOND
     1    1    2 1   
     2    1   27 1   
     3    1   28 1   
     4    1   29 1   
     5    2    3 1   
     6    2    6 1   
     7    2   30 1   
     8    3    4 1   
     9    3    5 1   
    10    6    7 1   
    11    6   31 1   
    12    6   32 1   
    13    7    8 1   
    14    7   33 1   
    15    7   34 1   
    16    8    9 2   
    17    8   10 1   
    18   10   11 1   
    19   10   35 1   
    20   10   55 1   
    21   11   12 1   
    22   11   14 1   
    23   11   36 1   
    24   12   13 2   
    25   12   22 1   
    26   14   15 1   
    27   14   37 1   
    28   14   38 1   
    29   15   16 1   
    30   16   17 1   
    31   16   39 1   
    32   16   40 1   
    33   17   18 1   
    34   17   41 1   
    35   17   42 1   
    36   18   19 1   
    37   18   43 1   
    38   18   44 1   
    39   19   20 1   
    40   19   45 1   
    41   19   46 1   
    42   20   21 1   
    43   20   47 1   
    44   20   48 1   
    45   21   49 1   
    46   21   50 1   
    47   21   51 1   
    48   22   23 1   
    49   22   52 1   
    50   23   24 1   
    51   23   53 1   
    52   23   54 1   
    53   24   25 2   
    54   24   26 1   
    55   26   56 1   
@<TRIPOS>SUBSTRUCTURE
     1 GTX         1 TEMP              0 ****  ****    0 ROOT
