@<TRIPOS>MOLECULE
GTX
   56    55     1     0     0
SMALL
bcc


@<TRIPOS>ATOM
      1 N1          1.9380   -1.4960   -2.3740 n4        1 GTX     -0.825600
      2 CA1         1.1470   -0.2460   -2.5920 c3        1 GTX     -0.042500
      3 C1          1.5160    0.3370   -4.0040 c         1 GTX      0.889600
      4 O11         0.5960    0.8860   -4.6500 o         1 GTX     -0.777300
      5 O12         2.7380    0.2980   -4.3150 o         1 GTX     -0.777300
      6 CB1         1.4500    0.8230   -1.5370 c3        1 GTX     -0.084400
      7 CG1         0.9620    2.1950   -1.9740 c3        1 GTX     -0.151400
      8 CD1         2.0840    3.0300   -2.5480 c         1 GTX      0.561100
      9 OE1         2.9300    3.6220   -1.8900 o         1 GTX     -0.438100
     10 N2          2.1680    3.1300   -4.0390 n4        1 GTX     -0.686800
     11 CA2         2.5560    4.4820   -4.5480 c3        1 GTX      0.052500
     12 C2          1.3310    5.4290   -4.5800 c         1 GTX      0.642100
     13 O2          0.1910    4.9880   -4.3380 o         1 GTX     -0.589100
     14 CB2         3.1560    4.3870   -5.9540 c3        1 GTX     -0.068300
     15 SG2         4.4160    3.1560   -6.0080 ss        1 GTX     -0.273200
     16 C1S         3.7700    1.9040   -7.1000 c3        1 GTX     -0.015300
     17 C2S         4.9550    1.2490   -7.7610 c3        1 GTX     -0.072400
     18 C3S         4.5130    0.0680   -8.6020 c3        1 GTX     -0.076400
     19 C4S         5.6980   -0.5900   -9.2770 c3        1 GTX     -0.080400
     20 C5S         5.2630   -1.7690  -10.1210 c3        1 GTX     -0.079400
     21 C6S         6.4390   -2.4290  -10.7930 c3        1 GTX     -0.094100
     22 N3          1.5920    6.7630   -4.8060 n         1 GTX     -0.503900
     23 CA3         0.5290    7.6680   -5.1550 c3        1 GTX     -0.025000
     24 C3          0.4330    7.9430   -6.6470 c         1 GTX      0.598100
     25 O31         1.1960    7.5180   -7.5140 o         1 GTX     -0.489000
     26 O32        -0.5690    8.7360   -7.1050 oh        1 GTX     -0.546100
     27 HN11        2.8730   -1.3460   -2.7970 hn        1 GTX      0.461133
     28 HN12        2.0350   -1.7120   -1.3830 hn        1 GTX      0.461133
     29 HN13        1.4830   -2.2730   -2.8580 hn        1 GTX      0.461133
     30 HA1         0.0510   -0.5100   -2.5740 hx        1 GTX      0.122700
     31 HB11        2.5510    0.8660   -1.3210 hc        1 GTX      0.076700
     32 HB12        0.9270    0.5540   -0.5790 hc        1 GTX      0.076700
     33 HG11        0.5880    2.7600   -1.0730 hc        1 GTX      0.126200
     34 HG12        0.1010    2.1010   -2.6960 hc        1 GTX      0.126200
     35 HN2         2.8940    2.4370   -4.3870 hn        1 GTX      0.512300
     36 HA2         3.3340    4.8980   -3.8340 hx        1 GTX      0.140700
     37 HB21        3.6340    5.3710   -6.1990 h1        1 GTX      0.114700
     38 HB22        2.3590    4.2020   -6.7170 h1        1 GTX      0.114700
     39 HS11        3.1930    1.1580   -6.4940 h1        1 GTX      0.087200
     40 HS12        3.0880    2.3500   -7.8630 h1        1 GTX      0.087200
     41 HS21        5.4920    1.9920   -8.4090 hc        1 GTX      0.060200
     42 HS22        5.6820    0.9000   -6.9790 hc        1 GTX      0.060200
     43 HS31        3.9830   -0.6790   -7.9550 hc        1 GTX      0.044200
     44 HS32        3.7810    0.4130   -9.3790 hc        1 GTX      0.044200
     45 HS41        6.2280    0.1590   -9.9230 hc        1 GTX      0.043700
     46 HS42        6.4310   -0.9340   -8.5000 hc        1 GTX      0.043700
     47 HS51        4.7300   -2.5150   -9.4750 hc        1 GTX      0.039200
     48 HS52        4.5300   -1.4230  -10.8980 hc        1 GTX      0.039200
     49 HS61        6.9670   -1.7070  -11.4620 hc        1 GTX      0.037033
     50 HS62        7.1690   -2.8030  -10.0360 hc        1 GTX      0.037033
     51 HS63        6.0960   -3.2950  -11.4100 hc        1 GTX      0.037033
     52 HN3        -1.1310    9.0290   -6.3720 ho        1 GTX      0.436000
     53 HA31       -0.4590    7.2510   -4.7960 h1        1 GTX      0.108200
     54 HA32        0.7220    8.6490   -4.6290 h1        1 GTX      0.108200
     55 H22         1.2520    2.8540   -4.4520 hn        1 GTX      0.512300
     56 H32         2.4930    7.0080   -5.1610 hn        1 GTX      0.330500
@<TRIPOS>BOND
     1    1    2 1   
     2    1   27 1   
     3    1   28 1   
     4    1   29 1   
     5    2    3 1   
     6    2    6 1   
     7    2   30 1   
     8    3    4 1   
     9    3    5 1   
    10    6    7 1   
    11    6   31 1   
    12    6   32 1   
    13    7    8 1   
    14    7   33 1   
    15    7   34 1   
    16    8    9 2   
    17    8   10 1   
    18   10   11 1   
    19   10   35 1   
    20   10   55 1   
    21   11   12 1   
    22   11   14 1   
    23   11   36 1   
    24   12   13 2   
    25   12   22 1   
    26   14   15 1   
    27   14   37 1   
    28   14   38 1   
    29   15   16 1   
    30   16   17 1   
    31   16   39 1   
    32   16   40 1   
    33   17   18 1   
    34   17   41 1   
    35   17   42 1   
    36   18   19 1   
    37   18   43 1   
    38   18   44 1   
    39   19   20 1   
    40   19   45 1   
    41   19   46 1   
    42   20   21 1   
    43   20   47 1   
    44   20   48 1   
    45   21   49 1   
    46   21   50 1   
    47   21   51 1   
    48   22   23 1   
    49   22   56 1   
    50   23   24 1   
    51   23   53 1   
    52   23   54 1   
    53   24   25 2   
    54   24   26 1   
    55   26   52 1   
@<TRIPOS>SUBSTRUCTURE
     1 GTX         1 TEMP              0 ****  ****    0 ROOT
