@<TRIPOS>MOLECULE
GTY
   59    58     1     0     0
SMALL
bcc


@<TRIPOS>ATOM
      1 N1         -4.5710   -2.4880    6.2660 n3        1 GTY     -0.895800
      2 CA1        -3.4930   -2.5730    5.3290 c3        1 GTY      0.019500
      3 C1         -2.3020   -3.2370    5.9880 c         1 GTY      0.888600
      4 O11        -1.8260   -2.7610    7.0470 o         1 GTY     -0.845800
      5 O12        -1.7950   -4.2710    5.4770 o         1 GTY     -0.845800
      6 CB1        -3.1120   -1.1890    4.8780 c3        1 GTY     -0.062400
      7 CG1        -3.6850   -0.9300    3.4900 c3        1 GTY     -0.146400
      8 CD1        -3.0150    0.3250    2.8820 c         1 GTY      0.661100
      9 OE1        -2.2350    0.9630    3.5350 o         1 GTY     -0.639100
     10 N2         -3.2760    0.6950    1.4930 n         1 GTY     -0.549900
     11 CA2        -2.5610    1.7880    0.8990 c3        1 GTY      0.030700
     12 C2         -3.4940    2.9650    0.7220 c         1 GTY      0.611100
     13 O2         -4.6230    2.7920    0.2700 o         1 GTY     -0.645100
     14 CB2        -2.0210    1.3690   -0.4420 c3        1 GTY     -0.013300
     15 SG2        -0.2570    1.0350   -0.3020 ss        1 GTY     -0.348200
     16 C1S         0.3980    0.5400   -1.9330 c3        1 GTY     -0.024300
     17 C2S         1.9130    0.2940   -1.8270 c3        1 GTY     -0.050400
     18 C3S         2.4350   -0.3110   -3.1570 c3        1 GTY     -0.099400
     19 C4S         3.8370   -0.9690   -2.9160 c3        1 GTY     -0.069400
     20 C5S         4.4810   -1.2850   -4.2350 c3        1 GTY     -0.082400
     21 C6S         5.7020   -2.1940   -4.0010 c3        1 GTY     -0.077400
     22 C7S         6.4710   -2.3570   -5.3030 c3        1 GTY     -0.082400
     23 C8S         7.6720   -3.3190   -5.0810 c3        1 GTY     -0.089100
     24 N3         -3.0390    4.3010    1.0370 n         1 GTY     -0.510900
     25 CA3        -3.8680    5.4140    0.7620 c3        1 GTY     -0.058000
     26 C3         -3.2230    6.6970    1.3500 c         1 GTY      0.903600
     27 O31        -3.4470    7.0250    2.5580 o         1 GTY     -0.847800
     28 O32        -2.4660    7.4040    0.6360 o         1 GTY     -0.847800
     29 HN11       -4.3260   -2.9200    7.0710 hn        1 GTY      0.331300
     30 HN12       -5.3090   -2.8920    5.9170 hn        1 GTY      0.331300
     31 HA1        -3.7720   -3.1010    4.5580 h1        1 GTY      0.040700
     32 HB11       -2.1340   -1.1110    4.8490 hc        1 GTY      0.056200
     33 HB12       -3.4730   -0.5310    5.5070 hc        1 GTY      0.056200
     34 HG11       -3.5090   -1.7100    2.9110 hc        1 GTY      0.065200
     35 HG12       -4.6440   -0.7850    3.5570 hc        1 GTY      0.065200
     36 HN2        -3.8680    0.1980    0.9850 hn        1 GTY      0.323500
     37 HA2        -1.8050    2.0510    1.4930 h1        1 GTY      0.109700
     38 HB21       -2.4850    0.5580   -0.7420 h1        1 GTY      0.084700
     39 HB22       -2.1690    2.1010   -1.1030 h1        1 GTY      0.084700
     40 H1S1       -0.0400   -0.2710   -2.2220 h1        1 GTY      0.094200
     41 H1S2        0.2280    1.2520   -2.5830 h1        1 GTY      0.094200
     42 H2S1        2.0910   -0.3270   -1.0960 hc        1 GTY      0.031200
     43 H2S2        2.3720    1.1440   -1.6530 hc        1 GTY      0.031200
     44 H3S1        1.7990   -0.9990   -3.4800 hc        1 GTY      0.073700
     45 H3S2        2.5180    0.4070   -3.8360 hc        1 GTY      0.073700
     46 H4S1        3.7250   -1.7930   -2.4050 hc        1 GTY      0.025700
     47 H4S2        4.4070   -0.3510   -2.4160 hc        1 GTY      0.025700
     48 H5S1        4.7690   -0.4590   -4.6620 hc        1 GTY      0.047700
     49 H5S2        3.8390   -1.7420   -4.8100 hc        1 GTY      0.047700
     50 H6S1        5.3980   -3.0800   -3.6840 hc        1 GTY      0.031700
     51 H6S2        6.2880   -1.7870   -3.3230 hc        1 GTY      0.031700
     52 H7S1        6.8040   -1.4810   -5.5980 hc        1 GTY      0.040200
     53 H7S2        5.8680   -2.7330   -5.9990 hc        1 GTY      0.040200
     54 H8S1        8.2330   -2.9800   -4.3440 hc        1 GTY      0.024700
     55 H8S2        7.3350   -4.2200   -4.8530 hc        1 GTY      0.024700
     56 H8S3        8.2140   -3.3700   -5.9120 hc        1 GTY      0.024700
     57 HN3        -2.2360    4.4220    1.4690 hn        1 GTY      0.313500
     58 HA31       -3.9690    5.5120   -0.1950 h1        1 GTY      0.047200
     59 HA32       -4.7510    5.2740    1.1720 h1        1 GTY      0.047200
@<TRIPOS>BOND
     1    1    2 1   
     2    1   29 1   
     3    1   30 1   
     4    2    3 1   
     5    2    6 1   
     6    2   31 1   
     7    3    4 1   
     8    3    5 1   
     9    6    7 1   
    10    6   32 1   
    11    6   33 1   
    12    7    8 1   
    13    7   34 1   
    14    7   35 1   
    15    8    9 2   
    16    8   10 1   
    17   10   11 1   
    18   10   36 1   
    19   11   12 1   
    20   11   14 1   
    21   11   37 1   
    22   12   13 2   
    23   12   24 1   
    24   14   15 1   
    25   14   38 1   
    26   14   39 1   
    27   15   16 1   
    28   16   17 1   
    29   16   40 1   
    30   16   41 1   
    31   17   18 1   
    32   17   42 1   
    33   17   43 1   
    34   18   19 1   
    35   18   44 1   
    36   18   45 1   
    37   19   20 1   
    38   19   46 1   
    39   19   47 1   
    40   20   21 1   
    41   20   48 1   
    42   20   49 1   
    43   21   22 1   
    44   21   50 1   
    45   21   51 1   
    46   22   23 1   
    47   22   52 1   
    48   22   53 1   
    49   23   54 1   
    50   23   55 1   
    51   23   56 1   
    52   24   25 1   
    53   24   57 1   
    54   25   26 1   
    55   25   58 1   
    56   25   59 1   
    57   26   27 1   
    58   26   28 1   
@<TRIPOS>SUBSTRUCTURE
     1 GTY         1 TEMP              0 ****  ****    0 ROOT
