@<TRIPOS>MOLECULE
GTY
   62    61     1     0     0
SMALL
bcc


@<TRIPOS>ATOM
      1 N1          1.9570   -1.6650   -2.9290 n4        1 GTY     -0.825600
      2 CA1         1.1700   -0.3980   -3.0350 c3        1 GTY     -0.042500
      3 C1          1.5500    0.3130   -4.3840 c         1 GTY      0.889600
      4 O11         2.7740    0.2980   -4.6900 o         1 GTY     -0.777300
      5 O12         0.6360    0.9220   -4.9820 o         1 GTY     -0.777300
      6 CB1         1.4690    0.5670   -1.8830 c3        1 GTY     -0.084400
      7 CG1         0.9890    1.9760   -2.1940 c3        1 GTY     -0.151400
      8 CD1         2.1170    2.8560   -2.6810 c         1 GTY      0.561100
      9 OE1         2.9600    3.3820   -1.9650 o         1 GTY     -0.438100
     10 N2          2.2110    3.0940   -4.1560 n4        1 GTY     -0.686800
     11 CA2         2.6060    4.4870   -4.5350 c3        1 GTY      0.052500
     12 C2          1.3840    5.4360   -4.4860 c         1 GTY      0.642100
     13 O2          0.2410    4.9790   -4.2930 o         1 GTY     -0.589100
     14 CB2         3.2150    4.5200   -5.9400 c3        1 GTY     -0.068300
     15 SG2         4.4710    3.2950   -6.1000 ss        1 GTY     -0.273200
     16 C1S         3.8280    2.1520   -7.3070 c3        1 GTY     -0.015300
     17 C2S         5.0170    1.5520   -8.0140 c3        1 GTY     -0.072400
     18 C3S         4.5760    0.4550   -8.9630 c3        1 GTY     -0.076400
     19 C4S         5.7640   -0.1470   -9.6820 c3        1 GTY     -0.079400
     20 C5S         5.3300   -1.2420  -10.6320 c3        1 GTY     -0.078400
     21 C6S         6.5160   -1.8480  -11.3500 c3        1 GTY     -0.079400
     22 C7S         6.0840   -2.9430  -12.3020 c3        1 GTY     -0.079400
     23 C8S         7.2630   -3.5500  -13.0180 c3        1 GTY     -0.094100
     24 N3          1.6510    6.7850   -4.5860 n         1 GTY     -0.503900
     25 CA3         0.5920    7.7220   -4.8550 c3        1 GTY     -0.025000
     26 C3          0.5070    8.1350   -6.3160 c         1 GTY      0.598100
     27 O31         1.2740    7.7900   -7.2140 o         1 GTY     -0.489000
     28 O32        -0.4900    8.9710   -6.7040 oh        1 GTY     -0.546100
     29 HN11        2.8940   -1.4800   -3.3310 hn        1 GTY      0.461133
     30 HN12        2.0460   -1.9730   -1.9610 hn        1 GTY      0.461133
     31 HA1         0.0730   -0.6580   -3.0470 hx        1 GTY      0.122700
     32 HB11        2.5700    0.5870   -1.6570 hc        1 GTY      0.076700
     33 HB12        0.9400    0.2130   -0.9570 hc        1 GTY      0.076700
     34 HG11        0.1320    1.9530   -2.9270 hc        1 GTY      0.126200
     35 HG12        0.6100    2.4560   -1.2460 hc        1 GTY      0.126200
     36 HN2         2.9370    2.4340   -4.5620 hn        1 GTY      0.512300
     37 HA2         3.3810    4.8320   -3.7810 hx        1 GTY      0.140700
     38 HB21        3.6970    5.5210   -6.0900 h1        1 GTY      0.114700
     39 HB22        2.4210    4.4090   -6.7210 h1        1 GTY      0.114700
     40 H1S1        3.2420    1.3570   -6.7760 h1        1 GTY      0.087200
     41 H1S2        3.1560    2.6700   -8.0320 h1        1 GTY      0.087200
     42 H2S1        5.5630    2.3480   -8.5870 hc        1 GTY      0.060200
     43 H2S2        5.7340    1.1300   -7.2600 hc        1 GTY      0.060200
     44 H3S1        3.8540    0.8730   -9.7120 hc        1 GTY      0.044700
     45 H3S2        4.0360   -0.3440   -8.3900 hc        1 GTY      0.044700
     46 H4S1        6.3040    0.6530  -10.2530 hc        1 GTY      0.043700
     47 H4S2        6.4870   -0.5640   -8.9320 hc        1 GTY      0.043700
     48 H5S1        4.6090   -0.8250  -11.3840 hc        1 GTY      0.040200
     49 H5S2        4.7860   -2.0420  -10.0630 hc        1 GTY      0.040200
     50 H6S1        7.2380   -2.2660  -10.6000 hc        1 GTY      0.041700
     51 H6S2        7.0590   -1.0490  -11.9210 hc        1 GTY      0.041700
     52 H7S1        5.5390   -3.7410  -11.7310 hc        1 GTY      0.038700
     53 H7S2        5.3630   -2.5230  -13.0520 hc        1 GTY      0.038700
     54 H8S1        7.9820   -3.9950  -12.2890 hc        1 GTY      0.035367
     55 H8S2        6.9220   -4.3540  -13.7140 hc        1 GTY      0.035367
     56 H8S3        7.8040   -2.7750  -13.6130 hc        1 GTY      0.035367
     57 HN3         2.5540    7.0590   -4.9110 hn        1 GTY      0.330500
     58 HA31        0.7850    8.6490   -4.2390 h1        1 GTY      0.108200
     59 HA32       -0.3990    7.2770   -4.5430 h1        1 GTY      0.108200
     60 H13         1.5020   -2.3920   -3.4860 hn        1 GTY      0.461133
     61 H22         1.2960    2.8610   -4.5980 hn        1 GTY      0.512300
     62 H32        -1.0560    9.1960   -5.9500 ho        1 GTY      0.436000
@<TRIPOS>BOND
     1    1    2 1   
     2    1   29 1   
     3    1   30 1   
     4    1   60 1   
     5    2    3 1   
     6    2    6 1   
     7    2   31 1   
     8    3    4 1   
     9    3    5 1   
    10    6    7 1   
    11    6   32 1   
    12    6   33 1   
    13    7    8 1   
    14    7   34 1   
    15    7   35 1   
    16    8    9 2   
    17    8   10 1   
    18   10   11 1   
    19   10   36 1   
    20   10   61 1   
    21   11   12 1   
    22   11   14 1   
    23   11   37 1   
    24   12   13 2   
    25   12   24 1   
    26   14   15 1   
    27   14   38 1   
    28   14   39 1   
    29   15   16 1   
    30   16   17 1   
    31   16   40 1   
    32   16   41 1   
    33   17   18 1   
    34   17   42 1   
    35   17   43 1   
    36   18   19 1   
    37   18   44 1   
    38   18   45 1   
    39   19   20 1   
    40   19   46 1   
    41   19   47 1   
    42   20   21 1   
    43   20   48 1   
    44   20   49 1   
    45   21   22 1   
    46   21   50 1   
    47   21   51 1   
    48   22   23 1   
    49   22   52 1   
    50   22   53 1   
    51   23   54 1   
    52   23   55 1   
    53   23   56 1   
    54   24   25 1   
    55   24   57 1   
    56   25   26 1   
    57   25   58 1   
    58   25   59 1   
    59   26   27 2   
    60   26   28 1   
    61   28   62 1   
@<TRIPOS>SUBSTRUCTURE
     1 GTY         1 TEMP              0 ****  ****    0 ROOT
