@<TRIPOS>MOLECULE
GTY
   62    61     1     0     0
SMALL
bcc


@<TRIPOS>ATOM
      1 N1          1.9350   -1.6630   -2.9330 nz        1 GTY     -0.825600
      2 CA1         1.1500   -0.3940   -3.0430 c3        1 GTY     -0.042500
      3 C1          1.5370    0.3150   -4.3910 c         1 GTY      0.889600
      4 O11         2.7620    0.2990   -4.6910 o         1 GTY     -0.777300
      5 O12         0.6260    0.9250   -4.9930 o         1 GTY     -0.777300
      6 CB1         1.4460    0.5710   -1.8900 c3        1 GTY     -0.084400
      7 CG1         0.9680    1.9800   -2.2040 c3        1 GTY     -0.151400
      8 CD1         2.0990    2.8590   -2.6860 c         1 GTY      0.561100
      9 OE1         2.9410    3.3840   -1.9670 o         1 GTY     -0.438100
     10 N2          2.2000    3.0950   -4.1600 ny        1 GTY     -0.686800
     11 CA2         2.5990    4.4870   -4.5380 c3        1 GTY      0.052500
     12 C2          1.3780    5.4390   -4.4960 c         1 GTY      0.642100
     13 O2          0.2340    4.9830   -4.3080 o         1 GTY     -0.589100
     14 CB2         3.2140    4.5190   -5.9400 c3        1 GTY     -0.068300
     15 SG2         4.4700    3.2930   -6.0940 ss        1 GTY     -0.273200
     16 C1S         3.8320    2.1500   -7.3040 c3        1 GTY     -0.015300
     17 C2S         5.0230    1.5490   -8.0050 c3        1 GTY     -0.072400
     18 C3S         4.5860    0.4520   -8.9560 c3        1 GTY     -0.076400
     19 C4S         5.7770   -0.1510   -9.6700 c3        1 GTY     -0.079400
     20 C5S         5.3450   -1.2460  -10.6220 c3        1 GTY     -0.078400
     21 C6S         6.5350   -1.8520  -11.3350 c3        1 GTY     -0.079400
     22 C7S         6.1060   -2.9470  -12.2890 c3        1 GTY     -0.079400
     23 C8S         7.2870   -3.5540  -13.0000 c3        1 GTY     -0.094100
     24 N3          1.6470    6.7870   -4.5950 ns        1 GTY     -0.503900
     25 CA3         0.5900    7.7250   -4.8690 c3        1 GTY     -0.025000
     26 C3          0.5120    8.1370   -6.3300 c         1 GTY      0.598100
     27 O31         1.2840    7.7920   -7.2250 o         1 GTY     -0.489000
     28 O32        -0.4820    8.9740   -6.7240 oh        1 GTY     -0.546100
     29 HN11        2.8740   -1.4790   -3.3310 hn        1 GTY      0.461133
     30 HN12        2.0200   -1.9700   -1.9650 hn        1 GTY      0.461133
     31 HA1         0.0530   -0.6540   -3.0600 hx        1 GTY      0.122700
     32 HB11        2.5460    0.5890   -1.6590 hc        1 GTY      0.076700
     33 HB12        0.9130    0.2170   -0.9660 hc        1 GTY      0.076700
     34 HG11        0.5860    2.4610   -1.2580 hc        1 GTY      0.126200
     35 HG12        0.1150    1.9570   -2.9400 hc        1 GTY      0.126200
     36 HN2         2.9280    2.4340   -4.5630 hn        1 GTY      0.512300
     37 HA2         3.3710    4.8320   -3.7810 hx        1 GTY      0.140700
     38 HB21        2.4240    4.4090   -6.7260 h1        1 GTY      0.114700
     39 HB22        3.6980    5.5200   -6.0880 h1        1 GTY      0.114700
     40 H1S1        3.2430    1.3570   -6.7750 h1        1 GTY      0.087200
     41 H1S2        3.1640    2.6690   -8.0320 h1        1 GTY      0.087200
     42 H2S1        5.5730    2.3440   -8.5760 hc        1 GTY      0.060200
     43 H2S2        5.7370    1.1260   -7.2480 hc        1 GTY      0.060200
     44 H3S1        3.8680    0.8720   -9.7090 hc        1 GTY      0.044700
     45 H3S2        4.0420   -0.3460   -8.3860 hc        1 GTY      0.044700
     46 H4S1        6.3200    0.6490  -10.2380 hc        1 GTY      0.043700
     47 H4S2        6.4960   -0.5690   -8.9170 hc        1 GTY      0.043700
     48 H5S1        4.6280   -0.8270  -11.3770 hc        1 GTY      0.040200
     49 H5S2        4.7990   -2.0450  -10.0550 hc        1 GTY      0.040200
     50 H6S1        7.2530   -2.2710  -10.5810 hc        1 GTY      0.041700
     51 H6S2        7.0810   -1.0530  -11.9020 hc        1 GTY      0.041700
     52 H7S1        5.3880   -2.5260  -13.0420 hc        1 GTY      0.038700
     53 H7S2        5.5570   -3.7440  -11.7200 hc        1 GTY      0.038700
     54 H8S1        7.8320   -2.7790  -13.5920 hc        1 GTY      0.035367
     55 H8S2        8.0020   -4.0000  -12.2670 hc        1 GTY      0.035367
     56 H8S3        6.9490   -4.3580  -13.6970 hc        1 GTY      0.035367
     57 HN3        -1.0510    9.2010   -5.9730 ho        1 GTY      0.436000
     58 HA31        0.7810    8.6520   -4.2530 h1        1 GTY      0.108200
     59 HA32       -0.4020    7.2810   -4.5610 h1        1 GTY      0.108200
     60 H13         1.4820   -2.3900   -3.4920 hn        1 GTY      0.461133
     61 H22         1.2880    2.8640   -4.6060 hn        1 GTY      0.512300
     62 H32         2.5520    7.0600   -4.9160 hn        1 GTY      0.330500
@<TRIPOS>BOND
     1    1    2 1   
     2    1   29 1   
     3    1   30 1   
     4    1   60 1   
     5    2    3 1   
     6    2    6 1   
     7    2   31 1   
     8    3    4 1   
     9    3    5 1   
    10    6    7 1   
    11    6   32 1   
    12    6   33 1   
    13    7    8 1   
    14    7   34 1   
    15    7   35 1   
    16    8    9 2   
    17    8   10 1   
    18   10   11 1   
    19   10   36 1   
    20   10   61 1   
    21   11   12 1   
    22   11   14 1   
    23   11   37 1   
    24   12   13 2   
    25   12   24 1   
    26   14   15 1   
    27   14   38 1   
    28   14   39 1   
    29   15   16 1   
    30   16   17 1   
    31   16   40 1   
    32   16   41 1   
    33   17   18 1   
    34   17   42 1   
    35   17   43 1   
    36   18   19 1   
    37   18   44 1   
    38   18   45 1   
    39   19   20 1   
    40   19   46 1   
    41   19   47 1   
    42   20   21 1   
    43   20   48 1   
    44   20   49 1   
    45   21   22 1   
    46   21   50 1   
    47   21   51 1   
    48   22   23 1   
    49   22   52 1   
    50   22   53 1   
    51   23   54 1   
    52   23   55 1   
    53   23   56 1   
    54   24   25 1   
    55   24   62 1   
    56   25   26 1   
    57   25   58 1   
    58   25   59 1   
    59   26   27 2   
    60   26   28 1   
    61   28   57 1   
@<TRIPOS>SUBSTRUCTURE
     1 GTY         1 TEMP              0 ****  ****    0 ROOT
