@<TRIPOS>MOLECULE
GTY
   62    61     1     0     0
SMALL
bcc


@<TRIPOS>ATOM
      1 N1          1.9730   -1.6630   -2.9340 n4        1 GTY     -0.825600
      2 CA1         1.1840   -0.3970   -3.0360 c3        1 GTY     -0.042500
      3 C1          1.5570    0.3150   -4.3860 c         1 GTY      0.889600
      4 O11         2.7800    0.3020   -4.6970 o         1 GTY     -0.777300
      5 O12         0.6400    0.9230   -4.9800 o         1 GTY     -0.777300
      6 CB1         1.4860    0.5680   -1.8850 c3        1 GTY     -0.084400
      7 CG1         1.0010    1.9760   -2.1930 c3        1 GTY     -0.151400
      8 CD1         2.1260    2.8580   -2.6840 c         1 GTY      0.561100
      9 OE1         2.9710    3.3850   -1.9710 o         1 GTY     -0.438100
     10 N2          2.2150    3.0970   -4.1590 n4        1 GTY     -0.686800
     11 CA2         2.6060    4.4900   -4.5390 c3        1 GTY      0.052500
     12 C2          1.3830    5.4380   -4.4850 c         1 GTY      0.642100
     13 O2          0.2410    4.9790   -4.2900 o         1 GTY     -0.589100
     14 CB2         3.2090    4.5240   -5.9460 c3        1 GTY     -0.068300
     15 SG2         4.4680    3.3030   -6.1110 ss        1 GTY     -0.273200
     16 C1S         3.8240    2.1580   -7.3160 c3        1 GTY     -0.015300
     17 C2S         5.0110    1.5570   -8.0230 c3        1 GTY     -0.072400
     18 C3S         4.5700    0.4570   -8.9670 c3        1 GTY     -0.076400
     19 C4S         5.7580   -0.1480   -9.6850 c3        1 GTY     -0.079400
     20 C5S         5.3230   -1.2470  -10.6310 c3        1 GTY     -0.078400
     21 C6S         6.5100   -1.8550  -11.3470 c3        1 GTY     -0.079400
     22 C7S         6.0770   -2.9540  -12.2940 c3        1 GTY     -0.079400
     23 C8S         7.2550   -3.5640  -13.0080 c3        1 GTY     -0.094100
     24 N3          1.6480    6.7870   -4.5830 n         1 GTY     -0.503900
     25 CA3         0.5870    7.7230   -4.8470 c3        1 GTY     -0.025000
     26 C3          0.4980    8.1400   -6.3060 c         1 GTY      0.598100
     27 O31         1.2640    7.7990   -7.2070 o         1 GTY     -0.489000
     28 O32        -0.5010    8.9760   -6.6900 oh        1 GTY     -0.546100
     29 HN11        2.0670   -1.9710   -1.9660 hn        1 GTY      0.461133
     30 HN12        2.9090   -1.4760   -3.3390 hn        1 GTY      0.461133
     31 HA1         0.0870   -0.6600   -3.0440 hx        1 GTY      0.122700
     32 HB11        2.5870    0.5890   -1.6630 hc        1 GTY      0.076700
     33 HB12        0.9610    0.2120   -0.9570 hc        1 GTY      0.076700
     34 HG11        0.1420    1.9520   -2.9230 hc        1 GTY      0.126200
     35 HG12        0.6260    2.4550   -1.2440 hc        1 GTY      0.126200
     36 HN2         1.2990    2.8630   -4.5980 hn        1 GTY      0.512300
     37 HA2         3.3840    4.8360   -3.7880 hx        1 GTY      0.140700
     38 HB21        2.4130    4.4120   -6.7250 h1        1 GTY      0.115200
     39 HB22        3.6880    5.5270   -6.0980 h1        1 GTY      0.115200
     40 H1S1        3.1510    2.6750   -8.0400 h1        1 GTY      0.087200
     41 H1S2        3.2380    1.3650   -6.7830 h1        1 GTY      0.087200
     42 H2S1        5.7300    1.1370   -7.2680 hc        1 GTY      0.060200
     43 H2S2        5.5570    2.3510   -8.5990 hc        1 GTY      0.060200
     44 H3S1        3.8480    0.8730   -9.7180 hc        1 GTY      0.044700
     45 H3S2        4.0300   -0.3410   -8.3920 hc        1 GTY      0.044700
     46 H4S1        6.4820   -0.5620   -8.9350 hc        1 GTY      0.043700
     47 H4S2        6.2980    0.6510  -10.2600 hc        1 GTY      0.043700
     48 H5S1        4.7790   -2.0440  -10.0590 hc        1 GTY      0.040200
     49 H5S2        4.6020   -0.8320  -11.3840 hc        1 GTY      0.040200
     50 H6S1        7.0520   -1.0580  -11.9210 hc        1 GTY      0.041700
     51 H6S2        7.2310   -2.2700  -10.5950 hc        1 GTY      0.041700
     52 H7S1        5.3550   -2.5370  -13.0460 hc        1 GTY      0.038700
     53 H7S2        5.5310   -3.7500  -11.7200 hc        1 GTY      0.038700
     54 H8S1        6.9140   -4.3710  -13.7000 hc        1 GTY      0.035367
     55 H8S2        7.7960   -2.7920  -13.6070 hc        1 GTY      0.035367
     56 H8S3        7.9740   -4.0070  -12.2770 hc        1 GTY      0.035367
     57 HN3        -1.0660    9.1980   -5.9350 ho        1 GTY      0.436000
     58 HA31       -0.4020    7.2760   -4.5340 h1        1 GTY      0.108200
     59 HA32        0.7800    8.6490   -4.2290 h1        1 GTY      0.108200
     60 H13         1.5180   -2.3910   -3.4890 hn        1 GTY      0.461133
     61 H22         2.9400    2.4380   -4.5680 hn        1 GTY      0.512300
     62 H32         2.5500    7.0630   -4.9100 hn        1 GTY      0.330500
@<TRIPOS>BOND
     1    1    2 1   
     2    1   29 1   
     3    1   30 1   
     4    1   60 1   
     5    2    3 1   
     6    2    6 1   
     7    2   31 1   
     8    3    4 1   
     9    3    5 1   
    10    6    7 1   
    11    6   32 1   
    12    6   33 1   
    13    7    8 1   
    14    7   34 1   
    15    7   35 1   
    16    8    9 2   
    17    8   10 1   
    18   10   11 1   
    19   10   36 1   
    20   10   61 1   
    21   11   12 1   
    22   11   14 1   
    23   11   37 1   
    24   12   13 2   
    25   12   24 1   
    26   14   15 1   
    27   14   38 1   
    28   14   39 1   
    29   15   16 1   
    30   16   17 1   
    31   16   40 1   
    32   16   41 1   
    33   17   18 1   
    34   17   42 1   
    35   17   43 1   
    36   18   19 1   
    37   18   44 1   
    38   18   45 1   
    39   19   20 1   
    40   19   46 1   
    41   19   47 1   
    42   20   21 1   
    43   20   48 1   
    44   20   49 1   
    45   21   22 1   
    46   21   50 1   
    47   21   51 1   
    48   22   23 1   
    49   22   52 1   
    50   22   53 1   
    51   23   54 1   
    52   23   55 1   
    53   23   56 1   
    54   24   25 1   
    55   24   62 1   
    56   25   26 1   
    57   25   58 1   
    58   25   59 1   
    59   26   27 2   
    60   26   28 1   
    61   28   57 1   
@<TRIPOS>SUBSTRUCTURE
     1 GTY         1 TEMP              0 ****  ****    0 ROOT
