@<TRIPOS>MOLECULE
GTY
   59    58     1     0     0
SMALL
bcc


@<TRIPOS>ATOM
      1 N1         -7.3470    2.5120   -0.5340 n3        1 GTY     -0.894800
      2 CA1        -6.5890    2.2670    0.6870 c3        1 GTY      0.020500
      3 C1         -6.8970    3.2720    1.8460 c         1 GTY      0.888600
      4 O11        -7.7750    4.1620    1.6460 o         1 GTY     -0.845800
      5 O12        -6.2750    3.1230    2.9330 o         1 GTY     -0.845800
      6 CB1        -5.0740    2.2270    0.4680 c3        1 GTY     -0.063400
      7 CG1        -4.6680    1.0930   -0.4480 c3        1 GTY     -0.145400
      8 CD1        -3.1700    1.0580   -0.6910 c         1 GTY      0.663100
      9 OE1        -2.6790    1.4160   -1.7830 o         1 GTY     -0.642100
     10 N2         -2.3670    0.6100    0.3400 n         1 GTY     -0.562900
     11 CA2        -0.9440    0.4250    0.2130 c3        1 GTY      0.039700
     12 C2         -0.5630   -1.0450    0.5590 c         1 GTY      0.614100
     13 O2         -1.0410   -1.5780    1.5880 o         1 GTY     -0.652100
     14 CB2        -0.1380    1.3350    1.1570 c3        1 GTY     -0.021300
     15 SG2         1.3480    1.9640    0.4370 ss        1 GTY     -0.348200
     16 C1S         2.5930    0.7740    0.8710 c3        1 GTY     -0.022300
     17 C2S         3.9240    1.3450    0.4530 c3        1 GTY     -0.050400
     18 C3S         4.9910    0.2690    0.5090 c3        1 GTY     -0.101400
     19 C4S         6.3110    0.7780   -0.0290 c3        1 GTY     -0.068400
     20 C5S         7.3700   -0.3020    0.0240 c3        1 GTY     -0.082400
     21 C6S         8.6860    0.1860   -0.5430 c3        1 GTY     -0.076400
     22 C7S         9.7450   -0.8950   -0.4880 c3        1 GTY     -0.082400
     23 C8S        11.0570   -0.4180   -1.0560 c3        1 GTY     -0.089100
     24 N3          0.2390   -1.7200   -0.3260 n         1 GTY     -0.505900
     25 CA3         0.8700   -2.9710    0.0210 c3        1 GTY     -0.060000
     26 C3          2.3860   -3.0380   -0.3050 c         1 GTY      0.901600
     27 O31         2.9580   -4.1430   -0.1010 o         1 GTY     -0.845800
     28 O32         2.9710   -2.0060   -0.7500 o         1 GTY     -0.845800
     29 HN11       -8.2570    2.8450   -0.2580 hn        1 GTY      0.331300
     30 HN12       -6.9120    3.2650   -1.0380 hn        1 GTY      0.331300
     31 HA1        -6.9150    1.2520    1.0590 h1        1 GTY      0.040700
     32 HB11       -4.5980    2.1070    1.4780 hc        1 GTY      0.055200
     33 HB12       -4.7210    3.2010    0.0420 hc        1 GTY      0.055200
     34 HG11       -5.1600    1.2120   -1.4500 hc        1 GTY      0.064700
     35 HG12       -5.0080    0.1150   -0.0160 hc        1 GTY      0.064700
     36 HN2        -2.7850    0.2790    1.1790 hn        1 GTY      0.326500
     37 HA2        -0.6560    0.6750   -0.8550 h1        1 GTY      0.110700
     38 HB21        0.0770    0.7980    2.1120 h1        1 GTY      0.083700
     39 HB22       -0.7290    2.2550    1.4030 h1        1 GTY      0.083700
     40 H1S1        2.4210   -0.2010    0.3370 h1        1 GTY      0.090200
     41 H1S2        2.5690    0.5760    1.9680 h1        1 GTY      0.090200
     42 H2S1        4.2070    2.2030    1.1170 hc        1 GTY      0.033200
     43 H2S2        3.8490    1.7400   -0.5950 hc        1 GTY      0.033200
     44 H3S1        4.6460   -0.6260   -0.0860 hc        1 GTY      0.076200
     45 H3S2        5.1230   -0.0720    1.5690 hc        1 GTY      0.076200
     46 H4S1        6.6490    1.6690    0.5650 hc        1 GTY      0.024700
     47 H4S2        6.1760    1.1200   -1.0890 hc        1 GTY      0.024700
     48 H5S1        7.0150   -1.1970   -0.5540 hc        1 GTY      0.049200
     49 H5S2        7.5160   -0.6330    1.0850 hc        1 GTY      0.049200
     50 H6S1        9.0360    1.0830    0.0330 hc        1 GTY      0.031200
     51 H6S2        8.5390    0.5130   -1.6060 hc        1 GTY      0.031200
     52 H7S1        9.3890   -1.7920   -1.0620 hc        1 GTY      0.040700
     53 H7S2        9.8900   -1.2210    0.5750 hc        1 GTY      0.040700
     54 H8S1       11.8220   -1.2300   -1.0050 hc        1 GTY      0.024033
     55 H8S2       10.9360   -0.1140   -2.1230 hc        1 GTY      0.024033
     56 H8S3       11.4380    0.4610   -0.4830 hc        1 GTY      0.024033
     57 HN3         0.7630   -1.1740   -0.9820 hn        1 GTY      0.321500
     58 HA31        0.7370   -3.1830    1.1170 h1        1 GTY      0.048200
     59 HA32        0.3550   -3.7890   -0.5550 h1        1 GTY      0.048200
@<TRIPOS>BOND
     1    1    2 1   
     2    1   29 1   
     3    1   30 1   
     4    2    3 1   
     5    2    6 1   
     6    2   31 1   
     7    3    4 1   
     8    3    5 1   
     9    6    7 1   
    10    6   32 1   
    11    6   33 1   
    12    7    8 1   
    13    7   34 1   
    14    7   35 1   
    15    8    9 2   
    16    8   10 1   
    17   10   11 1   
    18   10   36 1   
    19   11   12 1   
    20   11   14 1   
    21   11   37 1   
    22   12   13 2   
    23   12   24 1   
    24   14   15 1   
    25   14   38 1   
    26   14   39 1   
    27   15   16 1   
    28   16   17 1   
    29   16   40 1   
    30   16   41 1   
    31   17   18 1   
    32   17   42 1   
    33   17   43 1   
    34   18   19 1   
    35   18   44 1   
    36   18   45 1   
    37   19   20 1   
    38   19   46 1   
    39   19   47 1   
    40   20   21 1   
    41   20   48 1   
    42   20   49 1   
    43   21   22 1   
    44   21   50 1   
    45   21   51 1   
    46   22   23 1   
    47   22   52 1   
    48   22   53 1   
    49   23   54 1   
    50   23   55 1   
    51   23   56 1   
    52   24   25 1   
    53   24   57 1   
    54   25   26 1   
    55   25   58 1   
    56   25   59 1   
    57   26   27 1   
    58   26   28 1   
@<TRIPOS>SUBSTRUCTURE
     1 GTY         1 TEMP              0 ****  ****    0 ROOT
