@<TRIPOS>MOLECULE
GTZ
   24    25     1     0     0
SMALL
bcc


@<TRIPOS>ATOM
      1 C1          0.0590    0.0100    0.0070 cc        1 GTZ      0.349800
      2 C2          1.5510    0.0360    0.0850 c3        1 GTZ      0.095800
      3 C3          1.9970    0.0270    1.5640 c3        1 GTZ      0.107100
      4 C4          1.2160    1.0640    2.3920 c3        1 GTZ      0.138100
      5 C5         -0.3030    0.7630    2.4040 c3        1 GTZ      0.024000
      6 C6         -1.0580    1.9670    3.0090 c3        1 GTZ      0.138400
      7 N1         -0.7810   -0.3020   -1.0240 nd        1 GTZ     -0.371000
      8 O2          2.1480   -1.0990   -0.5080 oh        1 GTZ     -0.593800
      9 O3          3.3590    0.4080    1.6520 oh        1 GTZ     -0.604800
     10 O4          1.3960    2.3710    1.8810 oh        1 GTZ     -0.596800
     11 N5         -0.7780    0.3840    1.0790 na        1 GTZ     -0.057400
     12 O6         -2.2780    1.5590    3.5770 oh        1 GTZ     -0.594800
     13 NA         -2.0520    0.2890    0.6500 nc        1 GTZ     -0.194800
     14 NB         -2.0190   -0.1130   -0.5690 nd        1 GTZ     -0.042000
     15 H2          1.9180    0.9790   -0.4190 h1        1 GTZ      0.086700
     16 H3          1.8530   -1.0020    1.9940 h1        1 GTZ      0.074700
     17 H4          1.5850    1.0220    3.4570 h1        1 GTZ      0.074700
     18 H5         -0.4720   -0.1320    3.0800 h1        1 GTZ      0.094700
     19 H61        -0.4520    2.3630    3.8690 h1        1 GTZ      0.073200
     20 H62        -1.1960    2.7780    2.2480 h1        1 GTZ      0.073200
     21 HO2         1.8350   -1.1560   -1.4210 ho        1 GTZ      0.437000
     22 HO3         3.8590   -0.2260    1.1190 ho        1 GTZ      0.434000
     23 HO4         2.3520    2.5170    1.8220 ho        1 GTZ      0.432000
     24 HO6        -2.9140    1.4230    2.8640 ho        1 GTZ      0.421000
@<TRIPOS>BOND
     1    1    2 1   
     2    1    7 2   
     3    1   11 1   
     4    2    3 1   
     5    2    8 1   
     6    2   15 1   
     7    3    4 1   
     8    3    9 1   
     9    3   16 1   
    10    4    5 1   
    11    4   10 1   
    12    4   17 1   
    13    5    6 1   
    14    5   11 1   
    15    5   18 1   
    16    6   12 1   
    17    6   19 1   
    18    6   20 1   
    19    7   14 1   
    20    8   21 1   
    21    9   22 1   
    22   10   23 1   
    23   11   13 1   
    24   12   24 1   
    25   13   14 2   
@<TRIPOS>SUBSTRUCTURE
     1 GTZ         1 TEMP              0 ****  ****    0 ROOT
