@<TRIPOS>MOLECULE
GTZ
   24    25     1     0     0
SMALL
bcc


@<TRIPOS>ATOM
      1 C1          0.0620    0.0160    0.0040 cc        1 GTZ      0.349800
      2 C2          1.5540    0.0490    0.0810 c3        1 GTZ      0.095800
      3 C3          2.0000    0.0340    1.5600 c3        1 GTZ      0.107100
      4 C4          1.2140    1.0620    2.3940 c3        1 GTZ      0.138100
      5 C5         -0.3030    0.7530    2.4050 c3        1 GTZ      0.024000
      6 C6         -1.0640    1.9510    3.0160 c3        1 GTZ      0.138400
      7 N1         -0.7770   -0.2940   -1.0290 nd        1 GTZ     -0.371000
      8 O2          2.1560   -1.0800   -0.5180 oh        1 GTZ     -0.593800
      9 O3          3.3600    0.4210    1.6500 oh        1 GTZ     -0.604800
     10 O4          1.3880    2.3730    1.8900 oh        1 GTZ     -0.596800
     11 N5         -0.7770    0.3800    1.0780 na        1 GTZ     -0.057400
     12 O6         -2.2810    1.5330    3.5830 oh        1 GTZ     -0.594800
     13 NA         -2.0500    0.2810    0.6480 nc        1 GTZ     -0.194800
     14 NB         -2.0150   -0.1140   -0.5720 nd        1 GTZ     -0.042000
     15 H2          1.9160    0.9960   -0.4170 h1        1 GTZ      0.086700
     16 H3          1.8610   -0.9990    1.9840 h1        1 GTZ      0.074700
     17 H4          1.5840    1.0160    3.4590 h1        1 GTZ      0.074700
     18 H5         -0.4670   -0.1460    3.0760 h1        1 GTZ      0.094700
     19 H61        -0.4600    2.3450    3.8790 h1        1 GTZ      0.073200
     20 H62        -1.2060    2.7650    2.2600 h1        1 GTZ      0.073200
     21 HO2         1.8430   -1.1340   -1.4310 ho        1 GTZ      0.437000
     22 HO3         3.8640   -0.2070    1.1140 ho        1 GTZ      0.434000
     23 HO4         2.3430    2.5240    1.8320 ho        1 GTZ      0.432000
     24 HO6        -2.9170    1.3990    2.8690 ho        1 GTZ      0.421000
@<TRIPOS>BOND
     1    1    2 1   
     2    1    7 2   
     3    1   11 1   
     4    2    3 1   
     5    2    8 1   
     6    2   15 1   
     7    3    4 1   
     8    3    9 1   
     9    3   16 1   
    10    4    5 1   
    11    4   10 1   
    12    4   17 1   
    13    5    6 1   
    14    5   11 1   
    15    5   18 1   
    16    6   12 1   
    17    6   19 1   
    18    6   20 1   
    19    7   14 1   
    20    8   21 1   
    21    9   22 1   
    22   10   23 1   
    23   11   13 1   
    24   12   24 1   
    25   13   14 2   
@<TRIPOS>SUBSTRUCTURE
     1 GTZ         1 TEMP              0 ****  ****    0 ROOT
