@<TRIPOS>MOLECULE
GTZ
   24    24     1     0     0
SMALL
bcc


@<TRIPOS>ATOM
      1 C1         -0.7560   -0.5670   -1.5700 c1        1 GTZ     -0.096000
      2 C2          0.8590   -0.5670   -1.5700 c2        1 GTZ      0.079000
      3 C3          1.4900   -0.5670   -0.2980 c3        1 GTZ     -0.004000
      4 C4          0.8250    0.1960    0.7660 c3        1 GTZ      0.027000
      5 C5         -0.5760   -0.0950    1.0010 c3        1 GTZ      0.004000
      6 C6         -1.1920    1.1010    1.6950 c3        1 GTZ     -0.012000
      7 N1         -1.6810   -0.7610   -2.5030 n2        1 GTZ     -0.108000
      8 O2          1.3070   -1.7470   -2.2930 oh        1 GTZ     -0.321000
      9 O3          2.8950    0.0030   -0.4740 oh        1 GTZ     -0.332000
     10 O4          0.9400    1.6650    0.4240 oh        1 GTZ     -0.324000
     11 N5         -1.4490   -0.4250   -0.2650 n3        1 GTZ     -0.158000
     12 O6         -2.4330    0.7320    2.2540 oh        1 GTZ     -0.322000
     13 NA         -2.7560   -0.5400   -0.4830 n2        1 GTZ     -0.025000
     14 NB         -2.9530   -0.7530   -1.8710 n2        1 GTZ     -0.042000
     15 H2          1.1610    0.2220   -2.0570 h4        1 GTZ      0.126000
     16 H3          1.5710   -1.4940   -0.0010 h1        1 GTZ      0.114000
     17 H4          1.3100    0.0390    1.5990 h1        1 GTZ      0.114000
     18 H5         -0.6270   -0.8580    1.6080 h1        1 GTZ      0.134000
     19 H61        -1.3280    1.8180    1.0470 h1        1 GTZ      0.112500
     20 H62        -0.5950    1.4100    2.4030 h1        1 GTZ      0.112500
     21 HO2         1.5600   -1.5140   -3.1110 ho        1 GTZ      0.236000
     22 HO3         3.4930   -0.5940   -0.2010 ho        1 GTZ      0.233000
     23 HO4         1.5460    2.0450    0.9500 ho        1 GTZ      0.231000
     24 HO6        -2.6100    1.2520    2.9520 ho        1 GTZ      0.220000
@<TRIPOS>BOND
     1    1    7 1   
     2    1   11 1   
     3    2    3 1   
     4    2    8 1   
     5    2   15 1   
     6    3    4 1   
     7    3    9 1   
     8    3   16 1   
     9    4    5 1   
    10    4   10 1   
    11    4   17 1   
    12    5    6 1   
    13    5   11 1   
    14    5   18 1   
    15    6   12 1   
    16    6   19 1   
    17    6   20 1   
    18    7   14 1   
    19    8   21 1   
    20    9   22 1   
    21   10   23 1   
    22   11   13 1   
    23   12   24 1   
    24   13   14 1   
@<TRIPOS>SUBSTRUCTURE
     1 GTZ         1 TEMP              0 ****  ****    0 ROOT
