@<TRIPOS>MOLECULE
GTZ
   24    25     1     0     0
SMALL
bcc


@<TRIPOS>ATOM
      1 C1         -0.3000    1.2120   -0.1480 cc        1 GTZ      0.349800
      2 C2         -1.6510    0.5780   -0.2130 c3        1 GTZ      0.095800
      3 C3         -1.6280   -0.7760    0.5300 c3        1 GTZ      0.107100
      4 C4         -0.4140   -1.6260    0.1120 c3        1 GTZ      0.138100
      5 C5          0.9230   -0.9280    0.4600 c3        1 GTZ      0.024000
      6 C6          2.0860   -1.6850   -0.2180 c3        1 GTZ      0.138400
      7 N1          0.0990    2.5010   -0.3640 nd        1 GTZ     -0.371000
      8 O2         -2.6480    1.3520    0.4210 oh        1 GTZ     -0.593800
      9 O3         -2.7720   -1.5330    0.1740 oh        1 GTZ     -0.604800
     10 O4         -0.4220   -1.8830   -1.2800 oh        1 GTZ     -0.596800
     11 N5          0.8810    0.4910    0.1300 na        1 GTZ     -0.057400
     12 O6          3.2860   -1.4970    0.4920 oh        1 GTZ     -0.594800
     13 NA          1.9100    1.3590    0.0610 nc        1 GTZ     -0.194800
     14 NB          1.4240    2.5110   -0.2230 nd        1 GTZ     -0.042000
     15 H2         -1.9160    0.4130   -1.2990 h1        1 GTZ      0.086700
     16 H3         -1.6130   -0.5960    1.6400 h1        1 GTZ      0.074700
     17 H4         -0.4510   -2.6030    0.6750 h1        1 GTZ      0.074700
     18 H5          1.0670   -0.9980    1.5830 h1        1 GTZ      0.094700
     19 H61         1.8740   -2.7870   -0.1480 h1        1 GTZ      0.073200
     20 H62         2.1820   -1.3930   -1.2960 h1        1 GTZ      0.073200
     21 HO2        -2.6420    2.2310    0.0180 ho        1 GTZ      0.437000
     22 HO3        -3.5430   -1.0010    0.4150 ho        1 GTZ      0.434000
     23 HO4        -1.2890   -2.2610   -1.4880 ho        1 GTZ      0.432000
     24 HO6         3.6320   -0.6220    0.2760 ho        1 GTZ      0.421000
@<TRIPOS>BOND
     1    1    2 1   
     2    1    7 2   
     3    1   11 1   
     4    2    3 1   
     5    2    8 1   
     6    2   15 1   
     7    3    4 1   
     8    3    9 1   
     9    3   16 1   
    10    4    5 1   
    11    4   10 1   
    12    4   17 1   
    13    5    6 1   
    14    5   11 1   
    15    5   18 1   
    16    6   12 1   
    17    6   19 1   
    18    6   20 1   
    19    7   14 1   
    20    8   21 1   
    21    9   22 1   
    22   10   23 1   
    23   11   13 1   
    24   12   24 1   
    25   13   14 2   
@<TRIPOS>SUBSTRUCTURE
     1 GTZ         1 TEMP              0 ****  ****    0 ROOT
