@<TRIPOS>MOLECULE
GU0
   33    30     1     0     0
SMALL
bcc


@<TRIPOS>ATOM
      1 O1         -2.2190    1.5730   -1.1960 oh        1 GU0     -0.376000
      2 C1         -0.9360    1.5060   -0.8130 c3        1 GU0      0.100000
      3 C2         -0.8500    0.6860    0.5820 c3        1 GU0      0.091000
      4 O2         -1.5110    1.2300    1.4780 os        1 GU0     -0.737000
      5 S2         -2.6960    0.4380    2.0080 s4        1 GU0      2.088800
      6 O23        -3.5240    1.2660    2.9750 o         1 GU0     -0.695400
      7 O24        -3.7000    0.1660    0.9230 o         1 GU0     -0.695400
      8 O22        -2.2240   -0.8380    2.6480 os        1 GU0     -1.089000
      9 C3          0.7200    0.8660    0.8090 c3        1 GU0      0.087000
     10 O3          1.0730    0.2810    2.0420 os        1 GU0     -0.760000
     11 S3          1.7940    1.2120    3.0490 s4        1 GU0      2.093800
     12 O26         1.3230    0.9670    4.4570 o         1 GU0     -0.695400
     13 O27         3.2600    0.8630    3.1670 o         1 GU0     -0.695400
     14 O25         1.6040    2.6670    2.6480 os        1 GU0     -1.089000
     15 O5         -0.1460    0.8950   -1.8990 os        1 GU0     -0.301000
     16 C5          0.7940    0.0390   -1.4230 c3        1 GU0      0.034000
     17 C6         -0.0140   -1.4720   -1.1920 c3        1 GU0      0.037000
     18 O6         -0.5300   -1.9170   -2.4140 os        1 GU0     -0.743000
     19 S6         -0.1270   -3.2950   -2.8280 s4        1 GU0      2.083800
     20 O29        -0.6810   -3.6460   -4.1820 o         1 GU0     -0.697900
     21 O30         1.3560   -3.3750   -3.0880 o         1 GU0     -0.697900
     22 O28        -0.5540   -4.2970   -1.7870 os        1 GU0     -1.089000
     23 C4          1.5450    0.2470   -0.2760 c3        1 GU0     -0.017000
     24 O4          2.6850    1.1530   -0.6010 oh        1 GU0     -0.359000
     25 HO1        -2.3630    2.3460   -1.6170 ho        1 GU0      0.205000
     26 H1         -0.6070    2.4150   -0.6610 h2        1 GU0      0.138000
     27 H2         -1.0960   -0.2680    0.4640 h1        1 GU0      0.110000
     28 H3          0.9210    1.8210    0.8460 h1        1 GU0      0.109000
     29 H5          1.4460   -0.0920   -2.1600 h1        1 GU0      0.116000
     30 H61        -0.7290   -1.3600   -0.5660 h1        1 GU0      0.062000
     31 H62         0.6250   -2.1360   -0.8460 h1        1 GU0      0.062000
     32 H4          1.8990   -0.6190    0.0410 h1        1 GU0      0.083000
     33 HO4         3.4640    0.6780   -0.5890 ho        1 GU0      0.237000
@<TRIPOS>BOND
     1    1    2 1   
     2    1   25 1   
     3    2    3 1   
     4    2   15 1   
     5    2   26 1   
     6    3    4 1   
     7    3    9 1   
     8    3   27 1   
     9    4    5 1   
    10    5    6 1   
    11    5    7 1   
    12    9   10 1   
    13    9   23 1   
    14    9   28 1   
    15   10   11 1   
    16   11   12 1   
    17   11   13 1   
    18   15   16 1   
    19   16   17 1   
    20   16   23 1   
    21   16   29 1   
    22   17   18 1   
    23   17   30 1   
    24   17   31 1   
    25   18   19 1   
    26   19   20 1   
    27   19   21 1   
    28   23   24 1   
    29   23   32 1   
    30   24   33 1   
@<TRIPOS>SUBSTRUCTURE
     1 GU0         1 TEMP              0 ****  ****    0 ROOT
