@<TRIPOS>MOLECULE
GU0
   33    33     1     0     0
SMALL
bcc


@<TRIPOS>ATOM
      1 O1         -0.4690    1.4860   -2.1400 oh        1 GU0     -0.642800
      2 C1         -0.2450    1.5970   -0.7510 c3        1 GU0      0.303900
      3 C2         -1.3130    0.8110    0.0390 c3        1 GU0      0.169100
      4 O2         -1.3180    1.1920    1.3790 os        1 GU0     -0.595500
      5 S2         -2.2990    2.4860    1.9600 s6        1 GU0      1.692300
      6 O23        -2.1230    2.4010    3.3430 o         1 GU0     -0.762200
      7 O24        -1.7470    3.6180    1.3510 o         1 GU0     -0.762200
      8 O22        -3.5860    2.1730    1.5130 o         1 GU0     -0.762200
      9 C3         -1.0880   -0.7150   -0.0740 c3        1 GU0      0.180100
     10 O3         -1.7550   -1.1450   -1.2340 os        1 GU0     -0.633500
     11 S3         -2.4460   -2.6980   -1.4470 s6        1 GU0      1.702300
     12 O26        -1.7200   -3.4830   -0.5400 o         1 GU0     -0.765533
     13 O27        -3.8000   -2.5550   -1.1460 o         1 GU0     -0.765533
     14 O25        -2.1780   -2.9510   -2.7960 o         1 GU0     -0.765533
     15 O5          1.1020    1.1850   -0.6130 os        1 GU0     -0.442600
     16 C5          1.3410    0.0520    0.2250 c3        1 GU0      0.151100
     17 C6          2.8090   -0.3500   -0.0080 c3        1 GU0      0.205400
     18 O6          3.6580    0.3490    0.8530 os        1 GU0     -0.600500
     19 S6          5.3560    0.1830    0.7250 s6        1 GU0      1.688300
     20 O29         5.8370    1.3210    1.3860 o         1 GU0     -0.770200
     21 O30         5.6380   -1.0250    1.3770 o         1 GU0     -0.770200
     22 O28         5.6060    0.1530   -0.6550 o         1 GU0     -0.770200
     23 C4          0.4070   -1.0970   -0.1930 c3        1 GU0      0.094100
     24 O4          0.7040   -2.2160    0.6270 oh        1 GU0     -0.625800
     25 HO1        -0.5910    0.5460   -2.3380 ho        1 GU0      0.420000
     26 H1         -0.2810    2.6970   -0.5060 h2        1 GU0      0.102700
     27 H2         -2.3150    1.0480   -0.4310 h1        1 GU0      0.061700
     28 H3         -1.5270   -1.2130    0.8370 h1        1 GU0      0.058700
     29 H5          1.1600    0.3390    1.2950 h1        1 GU0      0.087700
     30 H61         2.9060   -1.4540    0.1970 h1        1 GU0      0.027700
     31 H62         3.0910   -0.1340   -1.0750 h1        1 GU0      0.027700
     32 H4          0.6200   -1.3630   -1.2690 h1        1 GU0      0.033700
     33 HO4         0.0270   -2.8840    0.4380 ho        1 GU0      0.433000
@<TRIPOS>BOND
     1    1    2 1   
     2    1   25 1   
     3    2    3 1   
     4    2   15 1   
     5    2   26 1   
     6    3    4 1   
     7    3    9 1   
     8    3   27 1   
     9    4    5 1   
    10    5    6 1   
    11    5    7 1   
    12    5    8 1   
    13    9   10 1   
    14    9   23 1   
    15    9   28 1   
    16   10   11 1   
    17   11   12 1   
    18   11   13 1   
    19   11   14 1   
    20   15   16 1   
    21   16   17 1   
    22   16   23 1   
    23   16   29 1   
    24   17   18 1   
    25   17   30 1   
    26   17   31 1   
    27   18   19 1   
    28   19   20 1   
    29   19   21 1   
    30   19   22 1   
    31   23   24 1   
    32   23   32 1   
    33   24   33 1   
@<TRIPOS>SUBSTRUCTURE
     1 GU0         1 TEMP              0 ****  ****    0 ROOT
