@<TRIPOS>MOLECULE
GU1
   28    28     1     0     0
SMALL
bcc


@<TRIPOS>ATOM
      1 O1         -1.5300    0.9720   -1.3810 oh        1 GU1     -0.658800
      2 C1         -0.1390    0.9720   -1.3810 c3        1 GU1      0.338900
      3 C2          0.3420    0.9720    0.0350 c3        1 GU1      0.084100
      4 O2          1.7870    1.2120    0.0390 os        1 GU1     -0.421600
      5 C7          2.1520    2.4900    0.5100 c3        1 GU1      0.116700
      6 C3          0.0750   -0.2880    0.7310 c3        1 GU1      0.151100
      7 O3         -1.3700   -0.4180    0.9300 os        1 GU1     -0.410600
      8 C8         -1.7590   -0.4530    2.2850 c3        1 GU1      0.118700
      9 O5          0.3410   -0.2060   -2.1580 os        1 GU1     -0.437600
     10 C5          0.0460   -1.5190   -1.4980 c3        1 GU1     -0.010900
     11 C6         -1.3980   -1.8600   -1.5910 c         1 GU1      0.905600
     12 O38        -1.9010   -2.6930   -0.7920 o         1 GU1     -0.830300
     13 O37        -2.1180   -1.3180   -2.4710 o         1 GU1     -0.830300
     14 C4          0.5630   -1.4780   -0.0240 c3        1 GU1      0.094100
     15 O4          1.9780   -1.4580   -0.0390 oh        1 GU1     -0.630800
     16 HO1        -1.8260    1.6750   -1.8350 ho        1 GU1      0.463000
     17 H1          0.1750    1.7860   -1.8190 h2        1 GU1      0.069700
     18 H2         -0.0990    1.6970    0.5170 h1        1 GU1      0.114700
     19 H71         1.8930    2.5780    1.4470 h1        1 GU1      0.031700
     20 H72         3.1180    2.6030    0.4280 h1        1 GU1      0.031700
     21 H73         1.6990    3.1740   -0.0190 h1        1 GU1      0.031700
     22 H3          0.5130   -0.2660    1.6030 h1        1 GU1      0.057700
     23 H81        -1.6820    0.4410    2.6690 h1        1 GU1      0.026700
     24 H82        -2.6840   -0.7560    2.3500 h1        1 GU1      0.026700
     25 H83        -1.1790   -1.0680    2.7740 h1        1 GU1      0.026700
     26 H5          0.4480   -2.2630   -1.9860 h1        1 GU1      0.066700
     27 H4          0.2650   -2.2860    0.4350 h1        1 GU1      0.073700
     28 HO4         2.2880   -2.2420    0.2380 ho        1 GU1      0.402000
@<TRIPOS>BOND
     1    1    2 1   
     2    1   16 1   
     3    2    3 1   
     4    2    9 1   
     5    2   17 1   
     6    3    4 1   
     7    3    6 1   
     8    3   18 1   
     9    4    5 1   
    10    5   19 1   
    11    5   20 1   
    12    5   21 1   
    13    6    7 1   
    14    6   14 1   
    15    6   22 1   
    16    7    8 1   
    17    8   23 1   
    18    8   24 1   
    19    8   25 1   
    20    9   10 1   
    21   10   11 1   
    22   10   14 1   
    23   10   26 1   
    24   11   12 1   
    25   11   13 1   
    26   14   15 1   
    27   14   27 1   
    28   15   28 1   
@<TRIPOS>SUBSTRUCTURE
     1 GU1         1 TEMP              0 ****  ****    0 ROOT
