@<TRIPOS>MOLECULE
GU1
   28    28     1     0     0
SMALL
bcc


@<TRIPOS>ATOM
      1 O1         -1.3310    2.6700   -0.2880 oh        1 GU1     -0.631800
      2 C1         -0.8120    1.5220    0.3480 c3        1 GU1      0.318900
      3 C2         -1.5420    0.2560   -0.1490 c3        1 GU1      0.095100
      4 O2         -2.7950    0.1420    0.5340 os        1 GU1     -0.421600
      5 C7         -3.8240    0.9200   -0.0510 c3        1 GU1      0.117700
      6 C3         -0.7650   -1.0230    0.1970 c3        1 GU1      0.139100
      7 O3         -1.3120   -2.0260   -0.6700 os        1 GU1     -0.428600
      8 C8         -1.1340   -3.3460   -0.1910 c3        1 GU1      0.120700
      9 O5          0.5450    1.5440   -0.0370 os        1 GU1     -0.412600
     10 C5          1.3000    0.4520    0.4770 c3        1 GU1     -0.015900
     11 C6          2.7880    0.6700    0.0550 c         1 GU1      0.931600
     12 O38         3.4450   -0.3790   -0.2130 o         1 GU1     -0.818800
     13 O37         3.2510    1.8340    0.0530 o         1 GU1     -0.818800
     14 C4          0.7450   -0.8740   -0.0600 c3        1 GU1      0.122100
     15 O4          1.3640   -1.9660    0.6030 oh        1 GU1     -0.651800
     16 HO1        -0.6690    2.9890   -0.9200 ho        1 GU1      0.432000
     17 H1         -0.9470    1.6480    1.4580 h2        1 GU1      0.057700
     18 H2         -1.7030    0.3180   -1.2590 h1        1 GU1      0.066700
     19 H71        -4.7010    0.7780    0.6280 h1        1 GU1      0.030033
     20 H72        -3.5280    1.9980   -0.0970 h1        1 GU1      0.030033
     21 H73        -4.0610    0.5450   -1.0770 h1        1 GU1      0.030033
     22 H3         -0.9450   -1.3030    1.2700 h1        1 GU1      0.061700
     23 H81        -0.0500   -3.5710   -0.0350 h1        1 GU1      0.030367
     24 H82        -1.6960   -3.4920    0.7660 h1        1 GU1      0.030367
     25 H83        -1.5640   -3.9940   -0.9960 h1        1 GU1      0.030367
     26 H5          1.2510    0.4560    1.6000 h1        1 GU1      0.036700
     27 H4          0.9470   -0.9430   -1.1650 h1        1 GU1      0.060700
     28 HO4         2.3230   -1.8640    0.4630 ho        1 GU1      0.458000
@<TRIPOS>BOND
     1    1    2 1   
     2    1   16 1   
     3    2    3 1   
     4    2    9 1   
     5    2   17 1   
     6    3    4 1   
     7    3    6 1   
     8    3   18 1   
     9    4    5 1   
    10    5   19 1   
    11    5   20 1   
    12    5   21 1   
    13    6    7 1   
    14    6   14 1   
    15    6   22 1   
    16    7    8 1   
    17    8   23 1   
    18    8   24 1   
    19    8   25 1   
    20    9   10 1   
    21   10   11 1   
    22   10   14 1   
    23   10   26 1   
    24   11   12 1   
    25   11   13 1   
    26   14   15 1   
    27   14   27 1   
    28   15   28 1   
@<TRIPOS>SUBSTRUCTURE
     1 GU1         1 TEMP              0 ****  ****    0 ROOT
