@<TRIPOS>MOLECULE
GU2
   28    28     1     0     0
SMALL
bcc


@<TRIPOS>ATOM
      1 O1          3.3940   -3.5990   -1.1190 oh        1 GU2     -0.664800
      2 C1          2.7530   -3.4190    0.1320 c3        1 GU2      0.307900
      3 C2          3.7580   -2.8150    1.1380 c3        1 GU2      0.104100
      4 O2          4.3940   -3.8840    1.8460 os        1 GU2     -0.417600
      5 C7          5.4250   -4.5030    1.0960 c3        1 GU2      0.115700
      6 C3          3.0480   -1.9640    2.1980 c3        1 GU2      0.123100
      7 O3          4.0830   -1.2370    2.8710 os        1 GU2     -0.426600
      8 C8          3.6660   -0.7440    4.1320 c3        1 GU2      0.119700
      9 O5          1.6230   -2.6260   -0.1360 os        1 GU2     -0.404600
     10 C5          1.8420   -1.2310    0.0890 c3        1 GU2     -0.033900
     11 C6          0.6470   -0.4650   -0.5660 c         1 GU2      0.936600
     12 O49        -0.4760   -0.4930    0.0050 o         1 GU2     -0.814300
     13 O48         0.9160    0.1530   -1.6280 o         1 GU2     -0.814300
     14 C4          2.0320   -0.9690    1.5830 c3        1 GU2      0.124100
     15 O4          0.8630   -1.0780    2.3730 oh        1 GU2     -0.647800
     16 HO1         2.9900   -2.9900   -1.7540 ho        1 GU2      0.433000
     17 H1          2.3850   -4.4250    0.4780 h2        1 GU2      0.080700
     18 H2          4.5260   -2.2000    0.5950 h1        1 GU2      0.067700
     19 H71         6.2820   -3.7970    0.9590 h1        1 GU2      0.031367
     20 H72         5.0450   -4.8370    0.0980 h1        1 GU2      0.031367
     21 H73         5.7370   -5.3780    1.7170 h1        1 GU2      0.031367
     22 H3          2.5200   -2.6390    2.9270 h1        1 GU2      0.070700
     23 H81         4.4790   -0.0430    4.4450 h1        1 GU2      0.029700
     24 H82         3.5760   -1.5870    4.8620 h1        1 GU2      0.029700
     25 H83         2.6870   -0.2080    4.0500 h1        1 GU2      0.029700
     26 H5          2.7830   -0.9180   -0.4470 h1        1 GU2      0.040700
     27 H4          2.4240    0.0810    1.7100 h1        1 GU2      0.051700
     28 HO4         0.0920   -1.1040    1.7790 ho        1 GU2      0.465000
@<TRIPOS>BOND
     1    1    2 1   
     2    1   16 1   
     3    2    3 1   
     4    2    9 1   
     5    2   17 1   
     6    3    4 1   
     7    3    6 1   
     8    3   18 1   
     9    4    5 1   
    10    5   19 1   
    11    5   20 1   
    12    5   21 1   
    13    6    7 1   
    14    6   14 1   
    15    6   22 1   
    16    7    8 1   
    17    8   23 1   
    18    8   24 1   
    19    8   25 1   
    20    9   10 1   
    21   10   11 1   
    22   10   14 1   
    23   10   26 1   
    24   11   12 1   
    25   11   13 1   
    26   14   15 1   
    27   14   27 1   
    28   15   28 1   
@<TRIPOS>SUBSTRUCTURE
     1 GU2         1 TEMP              0 ****  ****    0 ROOT
