@<TRIPOS>MOLECULE
GU2
   28    28     1     0     0
SMALL
bcc


@<TRIPOS>ATOM
      1 O1         -1.7590    1.0890   -1.2940 oh        1 GU2     -0.666800
      2 C1         -0.3680    1.0890   -1.2940 c3        1 GU2      0.311900
      3 C2          0.1130    1.0890    0.1220 c3        1 GU2      0.078100
      4 O2          1.5580    1.3290    0.1260 os        1 GU2     -0.430600
      5 C7          1.9220    2.6160    0.5730 c3        1 GU2      0.114700
      6 C3         -0.1550   -0.1710    0.8180 c3        1 GU2      0.127100
      7 O3         -1.5990   -0.3010    1.0170 os        1 GU2     -0.421600
      8 C8         -1.9770   -0.4640    2.3660 c3        1 GU2      0.118700
      9 O5          0.1110   -0.0890   -2.0710 os        1 GU2     -0.403600
     10 C5         -0.1830   -1.4020   -1.4120 c3        1 GU2     -0.035900
     11 C6          0.3830   -2.5370   -2.1870 c         1 GU2      0.937600
     12 O49         1.3330   -2.3400   -2.9890 o         1 GU2     -0.815300
     13 O48        -0.0880   -3.6960   -2.0420 o         1 GU2     -0.815300
     14 C4          0.3340   -1.3610    0.0620 c3        1 GU2      0.150100
     15 O4          1.7480   -1.3410    0.0470 oh        1 GU2     -0.644800
     16 HO1        -2.0550    1.5340   -2.0030 ho        1 GU2      0.433000
     17 H1         -0.0540    1.9030   -1.7320 h2        1 GU2      0.078700
     18 H2         -0.3280    1.8140    0.6040 h1        1 GU2      0.064700
     19 H71         2.8800    2.7460    0.4440 h1        1 GU2      0.031700
     20 H72         1.4300    3.2880    0.0640 h1        1 GU2      0.031700
     21 H73         1.7060    2.7040    1.5210 h1        1 GU2      0.031700
     22 H3          0.2840   -0.1490    1.6900 h1        1 GU2      0.075700
     23 H81        -2.3640    0.3680    2.6980 h1        1 GU2      0.027367
     24 H82        -1.1920   -0.6940    2.8990 h1        1 GU2      0.027367
     25 H83        -2.6380   -1.1800    2.4340 h1        1 GU2      0.027367
     26 H5         -1.1360   -1.6110   -1.4390 h1        1 GU2      0.040700
     27 H4          0.0360   -2.1690    0.5220 h1        1 GU2      0.060700
     28 HO4         2.0590   -2.0650    0.4560 ho        1 GU2      0.464000
@<TRIPOS>BOND
     1    1    2 1   
     2    1   16 1   
     3    2    3 1   
     4    2    9 1   
     5    2   17 1   
     6    3    4 1   
     7    3    6 1   
     8    3   18 1   
     9    4    5 1   
    10    5   19 1   
    11    5   20 1   
    12    5   21 1   
    13    6    7 1   
    14    6   14 1   
    15    6   22 1   
    16    7    8 1   
    17    8   23 1   
    18    8   24 1   
    19    8   25 1   
    20    9   10 1   
    21   10   11 1   
    22   10   14 1   
    23   10   26 1   
    24   11   12 1   
    25   11   13 1   
    26   14   15 1   
    27   14   27 1   
    28   15   28 1   
@<TRIPOS>SUBSTRUCTURE
     1 GU2         1 TEMP              0 ****  ****    0 ROOT
