@<TRIPOS>MOLECULE
GU3
   36    36     1     0     0
SMALL
bcc


@<TRIPOS>ATOM
      1 O4          1.0200    2.5290   -0.6680 oh        1 GU3     -0.636800
      2 O50         5.3680   -0.4450   -0.0420 o         1 GU3     -0.757200
      3 S6          5.0850    0.8890    0.2530 s6        1 GU3      1.701300
      4 O51         5.1980    1.2300    1.6010 o         1 GU3     -0.757200
      5 O52         5.5660    1.8330   -0.6530 o         1 GU3     -0.757200
      6 O6          3.3820    1.0000   -0.0270 os        1 GU3     -0.625500
      7 C6          2.4980    0.1170    0.5880 c3        1 GU3      0.202400
      8 C5          1.1510    0.1530   -0.1580 c3        1 GU3      0.105100
      9 O5          0.4150   -0.9560    0.3680 os        1 GU3     -0.439600
     10 C1         -0.8930   -1.0900   -0.1470 c3        1 GU3      0.289900
     11 O1         -0.7130   -1.3000   -1.5380 os        1 GU3     -0.434600
     12 C8         -1.0700   -2.6050   -1.9650 c3        1 GU3      0.117700
     13 C2         -1.7680    0.1600    0.1120 c3        1 GU3      0.206100
     14 O2         -2.9960    0.0270   -0.5220 os        1 GU3     -0.594500
     15 S2         -4.2610   -0.9750    0.0970 s6        1 GU3      1.698300
     16 O54        -5.3270   -0.6440   -0.7370 o         1 GU3     -0.758867
     17 O55        -3.7200   -2.2530   -0.0860 o         1 GU3     -0.758867
     18 O53        -4.3740   -0.5800    1.4290 o         1 GU3     -0.758867
     19 C3         -1.0560    1.4150   -0.4220 c3        1 GU3      0.138100
     20 O3         -1.7600    2.5400    0.1140 os        1 GU3     -0.411600
     21 C7         -1.7800    3.6530   -0.7590 c3        1 GU3      0.125700
     22 C4          0.4060    1.4780    0.0650 c3        1 GU3      0.111100
     23 HO4         1.9800    2.4230   -0.5770 ho        1 GU3      0.442000
     24 H6          2.9070   -0.9310    0.5550 h1        1 GU3      0.026700
     25 H6A         2.3460    0.4210    1.6590 h1        1 GU3      0.026700
     26 H5          1.3170    0.0040   -1.2600 h1        1 GU3      0.069700
     27 H1         -1.3330   -1.9870    0.3760 h2        1 GU3      0.097700
     28 H8         -0.3460   -3.3540   -1.5570 h1        1 GU3      0.032033
     29 H8A        -2.1130   -2.8530   -1.6410 h1        1 GU3      0.032033
     30 H8B        -0.9960   -2.5640   -3.0800 h1        1 GU3      0.032033
     31 H2         -1.9120    0.2580    1.2270 h1        1 GU3      0.054700
     32 H3         -1.0890    1.4130   -1.5440 h1        1 GU3      0.071700
     33 H7         -0.7400    3.9790   -1.0120 h1        1 GU3      0.022033
     34 H7A        -2.3420    3.4090   -1.6950 h1        1 GU3      0.022033
     35 H7B        -2.3160    4.4500   -0.1850 h1        1 GU3      0.022033
     36 H4          0.4190    1.7420    1.1600 h1        1 GU3      0.042700
@<TRIPOS>BOND
     1    1   22 1   
     2    1   23 1   
     3    2    3 1   
     4    3    4 1   
     5    3    5 1   
     6    3    6 1   
     7    6    7 1   
     8    7    8 1   
     9    7   24 1   
    10    7   25 1   
    11    8    9 1   
    12    8   22 1   
    13    8   26 1   
    14    9   10 1   
    15   10   11 1   
    16   10   13 1   
    17   10   27 1   
    18   11   12 1   
    19   12   28 1   
    20   12   29 1   
    21   12   30 1   
    22   13   14 1   
    23   13   19 1   
    24   13   31 1   
    25   14   15 1   
    26   15   16 1   
    27   15   17 1   
    28   15   18 1   
    29   19   20 1   
    30   19   22 1   
    31   19   32 1   
    32   20   21 1   
    33   21   33 1   
    34   21   34 1   
    35   21   35 1   
    36   22   36 1   
@<TRIPOS>SUBSTRUCTURE
     1 GU3         1 TEMP              0 ****  ****    0 ROOT
