@<TRIPOS>MOLECULE
GU5
   33    33     1     0     0
SMALL
bcc


@<TRIPOS>ATOM
      1 O1         -3.4220    1.1950   -3.5360 oh        1 GU5     -0.599800
      2 C1         -2.8470    0.9480   -2.2810 c3        1 GU5      0.347900
      3 C2         -1.7850    2.0040   -1.9120 c3        1 GU5      0.075100
      4 O2         -0.9150    2.1220   -3.0390 os        1 GU5     -0.424600
      5 C7         -0.2330    3.3620   -3.1040 c3        1 GU5      0.119700
      6 C3         -0.9970    1.5590   -0.6670 c3        1 GU5      0.095100
      7 O3         -1.8690    1.8220    0.4280 os        1 GU5     -0.428600
      8 C8         -1.2280    1.7920    1.6970 c3        1 GU5      0.093700
      9 O5         -2.2790   -0.3380   -2.4470 os        1 GU5     -0.454600
     10 C5         -1.6490   -0.8570   -1.2730 c3        1 GU5      0.091100
     11 C6         -2.6790   -1.2100   -0.1860 c3        1 GU5      0.195400
     12 O6         -2.2900   -2.3720    0.4630 os        1 GU5     -0.605500
     13 S6         -1.8160   -2.3590    2.1290 s6        1 GU5      1.703300
     14 O32        -2.9920   -1.9850    2.7720 o         1 GU5     -0.754867
     15 O33        -0.8270   -1.3670    2.1120 o         1 GU5     -0.754867
     16 O31        -1.3820   -3.6640    2.3120 o         1 GU5     -0.754867
     17 C4         -0.5540    0.0860   -0.7600 c3        1 GU5      0.078100
     18 O4          0.5880    0.0200   -1.6010 oh        1 GU5     -0.602800
     19 HO1        -2.7410    1.0220   -4.2010 ho        1 GU5      0.421000
     20 H1         -3.6740    0.9500   -1.5190 h2        1 GU5      0.093700
     21 H2         -2.2990    2.9830   -1.7100 h1        1 GU5      0.060700
     22 H71         0.4230    3.5040   -2.2110 h1        1 GU5      0.030367
     23 H72        -0.9610    4.2080   -3.1800 h1        1 GU5      0.030367
     24 H73         0.3840    3.2900   -4.0340 h1        1 GU5      0.030367
     25 H3         -0.0670    2.1890   -0.5700 h1        1 GU5      0.042700
     26 H81        -0.4120    2.5570    1.7350 h1        1 GU5      0.051700
     27 H82        -0.8280    0.7700    1.9240 h1        1 GU5      0.051700
     28 H83        -2.0460    2.0570    2.4130 h1        1 GU5      0.051700
     29 H5         -1.1680   -1.8090   -1.6460 h1        1 GU5      0.102700
     30 H61        -3.6710   -1.3990   -0.6820 h1        1 GU5      0.030200
     31 H62        -2.7830   -0.3560    0.5410 h1        1 GU5      0.030200
     32 H4         -0.2020   -0.2890    0.2480 h1        1 GU5      0.150700
     33 HO4         0.2870    0.2390   -2.4940 ho        1 GU5      0.403000
@<TRIPOS>BOND
     1    1    2 1   
     2    1   19 1   
     3    2    3 1   
     4    2    9 1   
     5    2   20 1   
     6    3    4 1   
     7    3    6 1   
     8    3   21 1   
     9    4    5 1   
    10    5   22 1   
    11    5   23 1   
    12    5   24 1   
    13    6    7 1   
    14    6   17 1   
    15    6   25 1   
    16    7    8 1   
    17    8   26 1   
    18    8   27 1   
    19    8   28 1   
    20    9   10 1   
    21   10   11 1   
    22   10   17 1   
    23   10   29 1   
    24   11   12 1   
    25   11   30 1   
    26   11   31 1   
    27   12   13 1   
    28   13   14 1   
    29   13   15 1   
    30   13   16 1   
    31   17   18 1   
    32   17   32 1   
    33   18   33 1   
@<TRIPOS>SUBSTRUCTURE
     1 GU5         1 TEMP              0 ****  ****    0 ROOT
