@<TRIPOS>MOLECULE
GU6
   33    30     1     0     0
SMALL
bcc


@<TRIPOS>ATOM
      1 O1         -1.1200   -2.1460   -1.3800 oh        1 GU6     -0.363000
      2 C1         -0.5980   -1.0530   -1.0040 c3        1 GU6      0.140000
      3 C2         -0.0910   -1.2120    0.4060 c3        1 GU6      0.053000
      4 O2         -0.7510   -2.3670    1.0270 os        1 GU6     -0.750000
      5 S2          0.0850   -3.6740    1.0760 s4        1 GU6      2.089800
      6 O14        -0.6700   -4.8010    1.8410 o         1 GU6     -0.692400
      7 O15         0.4510   -4.1120   -0.3220 os        1 GU6     -1.091667
      8 O13         1.3180   -3.5050    1.9400 o         1 GU6     -0.692400
      9 C3         -0.3410   -0.0560    1.1790 c3        1 GU6      0.073000
     10 O3          0.6660   -0.1530    2.4660 os        1 GU6     -0.768000
     11 S3         -0.0090   -0.1350    3.8570 s4        1 GU6      2.093800
     12 O17        -0.8830    1.0400    3.9840 os        1 GU6     -1.091667
     13 O18         1.0280   -0.1790    4.9780 o         1 GU6     -0.693900
     14 O16        -0.7760   -1.4200    4.1130 o         1 GU6     -0.693900
     15 O5         -1.7440    0.1800   -1.1690 os        1 GU6     -0.309000
     16 C5         -0.7580    1.3940   -0.7290 c3        1 GU6      0.046000
     17 C6          0.3590    1.4360   -1.6330 c3        1 GU6      0.046000
     18 O6         -0.1040    1.6300   -2.9310 os        1 GU6     -0.749000
     19 S6          0.6780    2.5730   -3.7690 s4        1 GU6      2.084800
     20 O20         0.8150    3.9090   -3.1040 o         1 GU6     -0.697400
     21 O21         2.0080    1.9890   -4.0940 os        1 GU6     -1.091667
     22 O19        -0.0460    2.9330   -4.9720 o         1 GU6     -0.697400
     23 C4         -0.2310    1.2680    0.7030 c3        1 GU6     -0.019000
     24 O4          1.1600    1.6490    0.7220 oh        1 GU6     -0.352000
     25 HO1        -1.2960   -2.1050   -2.2340 ho        1 GU6      0.241000
     26 H1          0.1810   -0.8480   -1.6020 h2        1 GU6      0.106000
     27 H2          0.9200   -1.3810    0.3820 h1        1 GU6      0.108000
     28 H3         -1.2680   -0.1480    1.5290 h1        1 GU6      0.104000
     29 H5         -1.2840    2.2920   -0.8110 h1        1 GU6      0.116000
     30 H61         0.9480    2.1670   -1.3870 h1        1 GU6      0.071000
     31 H62         0.8590    0.5780   -1.5850 h1        1 GU6      0.071000
     32 H4         -0.7630    1.8950    1.3140 h1        1 GU6      0.081000
     33 HO4         1.2580    2.3640    1.2080 ho        1 GU6      0.228000
@<TRIPOS>BOND
     1    1    2 1   
     2    1   25 1   
     3    2    3 1   
     4    2   15 1   
     5    2   26 1   
     6    3    4 1   
     7    3    9 1   
     8    3   27 1   
     9    4    5 1   
    10    5    6 1   
    11    5    8 1   
    12    9   10 1   
    13    9   23 1   
    14    9   28 1   
    15   10   11 1   
    16   11   13 1   
    17   11   14 1   
    18   15   16 1   
    19   16   17 1   
    20   16   23 1   
    21   16   29 1   
    22   17   18 1   
    23   17   30 1   
    24   17   31 1   
    25   18   19 1   
    26   19   20 1   
    27   19   22 1   
    28   23   24 1   
    29   23   32 1   
    30   24   33 1   
@<TRIPOS>SUBSTRUCTURE
     1 GU6         1 TEMP              0 ****  ****    0 ROOT
