@<TRIPOS>MOLECULE
GU6
   33    33     1     0     0
SMALL
bcc


@<TRIPOS>ATOM
      1 O1         -0.3200    4.5520    1.1540 oh        1 GU6     -0.623800
      2 C1          0.4660    3.4250    0.8860 c3        1 GU6      0.310900
      3 C2          0.4470    2.9960   -0.6080 c3        1 GU6      0.168100
      4 O2         -0.8660    2.8890   -1.0510 os        1 GU6     -0.591500
      5 S2         -1.6740    4.0840   -1.9900 s6        1 GU6      1.695300
      6 O14        -0.6640    4.8070   -2.6310 o         1 GU6     -0.762533
      7 O15        -2.5260    3.3590   -2.8230 o         1 GU6     -0.762533
      8 O13        -2.3330    4.8020   -0.9780 o         1 GU6     -0.762533
      9 C3          1.2080    1.6510   -0.6700 c3        1 GU6      0.182100
     10 O3          1.2950    1.1510   -1.9660 os        1 GU6     -0.593500
     11 S3          2.7880    0.7220   -2.7030 s6        1 GU6      1.689300
     12 O17         2.9490   -0.5900   -2.2340 o         1 GU6     -0.762867
     13 O18         3.7120    1.6390   -2.1920 o         1 GU6     -0.762867
     14 O16         2.5450    0.8190   -4.0750 o         1 GU6     -0.762867
     15 O5         -0.0990    2.4550    1.7620 os        1 GU6     -0.441600
     16 C5          0.5490    1.1820    1.7040 c3        1 GU6      0.143100
     17 C6         -0.1910    0.2670    2.6930 c3        1 GU6      0.215400
     18 O6          0.4600    0.3010    3.9310 os        1 GU6     -0.616500
     19 S6         -0.1700   -0.4670    5.3210 s6        1 GU6      1.693300
     20 O20         0.4090   -1.7430    5.3050 o         1 GU6     -0.770200
     21 O21         0.2880    0.3530    6.3610 o         1 GU6     -0.770200
     22 O19        -1.5580   -0.4660    5.1320 o         1 GU6     -0.770200
     23 C4          0.4960    0.6420    0.2580 c3        1 GU6      0.098100
     24 O4          1.1150   -0.6340    0.2480 oh        1 GU6     -0.631800
     25 HO1        -1.2110    4.3790    0.8040 ho        1 GU6      0.450000
     26 H1          1.5140    3.6820    1.2100 h2        1 GU6      0.037700
     27 H2          1.0000    3.7650   -1.2200 h1        1 GU6      0.055700
     28 H3          2.2520    1.8390   -0.2730 h1        1 GU6      0.027700
     29 H5          1.6200    1.2940    2.0280 h1        1 GU6      0.046700
     30 H61        -0.1680   -0.7830    2.2910 h1        1 GU6      0.033700
     31 H62        -1.2550    0.6100    2.8110 h1        1 GU6      0.033700
     32 H4         -0.5720    0.5330   -0.0770 h1        1 GU6      0.070700
     33 HO4         1.5010   -0.7590   -0.6340 ho        1 GU6      0.434000
@<TRIPOS>BOND
     1    1    2 1   
     2    1   25 1   
     3    2    3 1   
     4    2   15 1   
     5    2   26 1   
     6    3    4 1   
     7    3    9 1   
     8    3   27 1   
     9    4    5 1   
    10    5    6 1   
    11    5    7 1   
    12    5    8 1   
    13    9   10 1   
    14    9   23 1   
    15    9   28 1   
    16   10   11 1   
    17   11   12 1   
    18   11   13 1   
    19   11   14 1   
    20   15   16 1   
    21   16   17 1   
    22   16   23 1   
    23   16   29 1   
    24   17   18 1   
    25   17   30 1   
    26   17   31 1   
    27   18   19 1   
    28   19   20 1   
    29   19   21 1   
    30   19   22 1   
    31   23   24 1   
    32   23   32 1   
    33   24   33 1   
@<TRIPOS>SUBSTRUCTURE
     1 GU6         1 TEMP              0 ****  ****    0 ROOT
