@<TRIPOS>MOLECULE
GU7
   35    36     1     0     0
SMALL
bcc


@<TRIPOS>ATOM
      1 N9          2.3040   -0.7150    2.4360 nc        1 GU7     -0.644000
      2 C8          2.2540   -0.2100    1.1790 cd        1 GU7      0.443400
      3 N7          1.0360    0.4080    0.8690 na        1 GU7     -0.165900
      4 C5          0.2420    0.2640    2.0090 cd        1 GU7     -0.349200
      5 C6         -1.1070    0.6910    2.3020 c         1 GU7      0.750100
      6 O6         -1.8830    1.3010    1.5410 o         1 GU7     -0.647500
      7 N1         -1.5300    0.3630    3.6040 n         1 GU7     -0.490400
      8 C2         -0.7020   -0.3480    4.5090 cd        1 GU7      0.644800
      9 N2         -1.3020   -0.7320    5.7390 nh        1 GU7     -0.879800
     10 N3          0.5670   -0.7240    4.2580 nc        1 GU7     -0.691700
     11 C4          1.0400   -0.4320    2.9890 cc        1 GU7      0.589300
     12 C10         0.6360    0.9750   -0.3850 c3        1 GU7      0.026300
     13 C11         0.2740   -0.0890   -1.4500 c3        1 GU7      0.143800
     14 N12        -0.0870    0.5370   -2.7060 n3        1 GU7     -0.829200
     15 C13        -0.4370   -0.4230   -3.7490 c3        1 GU7      0.093500
     16 C14        -1.4700    0.1670   -4.7370 c3        1 GU7      0.130900
     17 O15        -1.7000   -0.7170   -5.8100 oh        1 GU7     -0.602800
     18 C16         0.8120   -0.8820   -4.5320 c3        1 GU7      0.130900
     19 O17         1.2140    0.0710   -5.4940 oh        1 GU7     -0.602800
     20 HC8         3.0830   -0.2540    0.4610 h5        1 GU7      0.069100
     21 HN1        -2.4740    0.5710    3.8460 hn        1 GU7      0.339500
     22 HN21       -0.6720   -1.2010    6.3590 hn        1 GU7      0.412800
     23 HN22       -1.8160   -0.0040    6.1860 hn        1 GU7      0.412800
     24 H101       -0.2620    1.6340   -0.1930 h1        1 GU7      0.085700
     25 H102        1.4840    1.6130   -0.7670 h1        1 GU7      0.085700
     26 H111        1.1690   -0.7480   -1.6380 h1        1 GU7      0.044200
     27 H112       -0.5500   -0.7450   -1.0430 h1        1 GU7      0.044200
     28 H12        -0.8380    1.1880   -2.5660 hn        1 GU7      0.368800
     29 H13        -0.8950   -1.3610   -3.3060 h1        1 GU7      0.049700
     30 H141       -2.4680    0.2790   -4.2350 h1        1 GU7      0.051950
     31 H142       -1.1190    1.1640   -5.1170 h1        1 GU7      0.051950
     32 H15        -0.9200   -0.6810   -6.3810 ho        1 GU7      0.415000
     33 H161        1.6610   -1.1180   -3.8370 h1        1 GU7      0.051950
     34 H162        0.5550   -1.7990   -5.1300 h1        1 GU7      0.051950
     35 H17         1.4410    0.8800   -5.0190 ho        1 GU7      0.415000
@<TRIPOS>BOND
     1    1    2 2   
     2    1   11 1   
     3    2    3 1   
     4    2   20 1   
     5    3    4 1   
     6    3   12 1   
     7    4    5 1   
     8    4   11 2   
     9    5    6 2   
    10    5    7 1   
    11    7    8 1   
    12    7   21 1   
    13    8    9 1   
    14    8   10 2   
    15    9   22 1   
    16    9   23 1   
    17   10   11 1   
    18   12   13 1   
    19   12   24 1   
    20   12   25 1   
    21   13   14 1   
    22   13   26 1   
    23   13   27 1   
    24   14   15 1   
    25   14   28 1   
    26   15   16 1   
    27   15   18 1   
    28   15   29 1   
    29   16   17 1   
    30   16   30 1   
    31   16   31 1   
    32   17   32 1   
    33   18   19 1   
    34   18   33 1   
    35   18   34 1   
    36   19   35 1   
@<TRIPOS>SUBSTRUCTURE
     1 GU7         1 TEMP              0 ****  ****    0 ROOT
