@<TRIPOS>MOLECULE
GU7
   36    37     1     0     0
SMALL
bcc


@<TRIPOS>ATOM
      1 N9         -0.6850    0.3410    0.2950 nc        1 GU7     -0.616000
      2 C8          0.5220    0.5330   -0.2550 cd        1 GU7      0.487400
      3 N7          1.5950    0.5410    0.6740 na        1 GU7     -0.231900
      4 C5          0.9870    0.2380    1.9140 cd        1 GU7     -0.422200
      5 C6          1.5210    0.1060    3.2380 c         1 GU7      0.761100
      6 O6          2.7210    0.2750    3.5750 o         1 GU7     -0.747500
      7 N1          0.5730   -0.2120    4.2210 ns        1 GU7     -0.479400
      8 C2         -0.8120   -0.3070    3.9210 cd        1 GU7      0.712800
      9 N2         -1.6840   -0.5280    4.9770 nv        1 GU7     -0.909800
     10 N3         -1.3380   -0.1390    2.6720 nc        1 GU7     -0.695700
     11 C4         -0.4330    0.1290    1.6790 cc        1 GU7      0.663300
     12 C10         2.9500    0.2260    0.3360 c3        1 GU7      0.022300
     13 C11         3.9200    1.4210    0.4650 c3        1 GU7      0.091800
     14 N12         4.1630    1.8100    1.8790 ny        1 GU7     -0.751000
     15 C13         5.0970    2.9720    2.0110 c3        1 GU7      0.077500
     16 C14         5.0360    3.5510    3.4440 c3        1 GU7      0.115900
     17 O15         5.8310    4.7190    3.3930 oh        1 GU7     -0.601300
     18 C16         6.5530    2.5810    1.6710 c3        1 GU7      0.115900
     19 O17         6.8950    1.3780    2.3210 oh        1 GU7     -0.601300
     20 HC8         0.6890    0.7160   -1.3280 h5        1 GU7      0.080100
     21 HN1         0.9020   -0.3300    5.1560 hn        1 GU7      0.349500
     22 HN21       -2.6460   -0.6700    4.7600 hn        1 GU7      0.458800
     23 HN22       -1.3430   -0.9120    5.8250 hn        1 GU7      0.458800
     24 H101        3.0020   -0.1020   -0.7440 h1        1 GU7      0.099700
     25 H102        3.3180   -0.6250    0.9840 h1        1 GU7      0.099700
     26 H111        3.5240    2.3190   -0.0880 hx        1 GU7      0.109700
     27 H112        4.9080    1.1160    0.0120 hx        1 GU7      0.109700
     28 H12         3.2650    2.0230    2.3390 hn        1 GU7      0.475300
     29 H13         4.7690    3.7770    1.2870 hx        1 GU7      0.118700
     30 H141        3.9800    3.7990    3.7350 h1        1 GU7      0.072950
     31 H142        5.4710    2.8190    4.1780 h1        1 GU7      0.072950
     32 H15         5.6750    5.2070    4.2130 ho        1 GU7      0.438500
     33 H161        6.6570    2.3800    0.5700 h1        1 GU7      0.072950
     34 H162        7.2150    3.4410    1.9610 h1        1 GU7      0.072950
     35 H17         7.4260    1.5910    3.1000 ho        1 GU7      0.438500
     36 H122        4.5660    1.0020    2.3890 hn        1 GU7      0.475300
@<TRIPOS>BOND
     1    1    2 2   
     2    1   11 1   
     3    2    3 1   
     4    2   20 1   
     5    3    4 1   
     6    3   12 1   
     7    4    5 1   
     8    4   11 2   
     9    5    6 2   
    10    5    7 1   
    11    7    8 1   
    12    7   21 1   
    13    8    9 1   
    14    8   10 2   
    15    9   22 1   
    16    9   23 1   
    17   10   11 1   
    18   12   13 1   
    19   12   24 1   
    20   12   25 1   
    21   13   14 1   
    22   13   26 1   
    23   13   27 1   
    24   14   15 1   
    25   14   28 1   
    26   14   36 1   
    27   15   16 1   
    28   15   18 1   
    29   15   29 1   
    30   16   17 1   
    31   16   30 1   
    32   16   31 1   
    33   17   32 1   
    34   18   19 1   
    35   18   33 1   
    36   18   34 1   
    37   19   35 1   
@<TRIPOS>SUBSTRUCTURE
     1 GU7         1 TEMP              0 ****  ****    0 ROOT
