@<TRIPOS>MOLECULE
GU7
   37    38     1     0     0
SMALL
bcc


@<TRIPOS>ATOM
      1 N9         -0.1110   -0.5260   -0.1340 nc        1 GU7     -0.559000
      2 C8          1.2330   -0.4060   -0.1340 cd        1 GU7      0.491400
      3 N7          1.7650   -0.0590    1.1310 na        1 GU7     -0.178900
      4 C5          0.6690    0.0370    1.9860 cd        1 GU7     -0.293200
      5 C6          0.5670    0.3710    3.3940 c         1 GU7      0.758100
      6 O6          1.4990    0.6960    4.1450 o         1 GU7     -0.598500
      7 N1         -0.7570    0.3240    3.8990 n         1 GU7     -0.477400
      8 C2         -1.8270    0.0040    3.0460 cd        1 GU7      0.507800
      9 N2         -3.1980   -0.0350    3.6510 n4        1 GU7     -0.795600
     10 N3         -1.7720   -0.2730    1.7460 nc        1 GU7     -0.544700
     11 C4         -0.4980   -0.2600    1.1930 cc        1 GU7      0.559300
     12 C10         3.1470    0.0020    1.4990 c3        1 GU7      0.022300
     13 C11         3.6120    1.4380    1.8560 c3        1 GU7      0.076800
     14 N12         5.0210    1.4580    2.3300 n4        1 GU7     -0.754000
     15 C13         5.5400    2.8620    2.5090 c3        1 GU7      0.088500
     16 C14         6.7790    2.8670    3.4370 c3        1 GU7      0.116400
     17 O15         6.9860    4.2360    3.7200 oh        1 GU7     -0.610800
     18 C16         5.9060    3.5100    1.1540 c3        1 GU7      0.116400
     19 O17         6.6300    2.5750    0.3830 oh        1 GU7     -0.610800
     20 HC8         1.8710   -0.5620   -1.0210 h5        1 GU7      0.109100
     21 HN1        -0.8890    0.5230    4.8700 hn        1 GU7      0.366500
     22 HN21       -3.2330   -0.7530    4.3870 hn        1 GU7      0.494133
     23 HN22       -3.4330    0.8860    4.0440 hn        1 GU7      0.494133
     24 H101        3.7560   -0.3900    0.6320 h1        1 GU7      0.100200
     25 H102        3.3060   -0.6700    2.3940 h1        1 GU7      0.100200
     26 H111        3.5380    2.1080    0.9500 hx        1 GU7      0.126200
     27 H112        2.9600    1.8560    2.6810 hx        1 GU7      0.126200
     28 H12         5.0920    0.9550    3.2220 hn        1 GU7      0.464300
     29 H13         4.7270    3.4810    2.9950 hx        1 GU7      0.129700
     30 H141        7.6670    2.4340    2.9020 h1        1 GU7      0.075700
     31 H142        6.5830    2.2970    4.3850 h1        1 GU7      0.075700
     32 H15         7.7320    4.2950    4.3340 ho        1 GU7      0.456000
     33 H161        4.9750    3.7700    0.5800 h1        1 GU7      0.075700
     34 H162        6.4860    4.4480    1.3750 h1        1 GU7      0.075700
     35 H17         7.4820    2.9650    0.1420 ho        1 GU7      0.456000
     36 H23        -3.8920   -0.2740    2.9180 hn        1 GU7      0.494133
     37 H122        5.6280    0.9910    1.6360 hn        1 GU7      0.464300
@<TRIPOS>BOND
     1    1    2 2   
     2    1   11 1   
     3    2    3 1   
     4    2   20 1   
     5    3    4 1   
     6    3   12 1   
     7    4    5 1   
     8    4   11 2   
     9    5    6 2   
    10    5    7 1   
    11    7    8 1   
    12    7   21 1   
    13    8    9 1   
    14    8   10 2   
    15    9   22 1   
    16    9   23 1   
    17    9   36 1   
    18   10   11 1   
    19   12   13 1   
    20   12   24 1   
    21   12   25 1   
    22   13   14 1   
    23   13   26 1   
    24   13   27 1   
    25   14   15 1   
    26   14   28 1   
    27   14   37 1   
    28   15   16 1   
    29   15   18 1   
    30   15   29 1   
    31   16   17 1   
    32   16   30 1   
    33   16   31 1   
    34   17   32 1   
    35   18   19 1   
    36   18   33 1   
    37   18   34 1   
    38   19   35 1   
@<TRIPOS>SUBSTRUCTURE
     1 GU7         1 TEMP              0 ****  ****    0 ROOT
