@<TRIPOS>MOLECULE
GU7
   35    31     1     0     0
SMALL
bcc


@<TRIPOS>ATOM
      1 N9         -3.0300   -0.8500   -1.8310 n2        1 GU7     -0.119000
      2 C8         -1.6830   -0.8020   -1.8040 c1        1 GU7     -0.049000
      3 N7         -1.2760   -0.9980   -0.5020 n2        1 GU7     -0.119000
      4 C5         -2.3870   -1.1650    0.2640 c1        1 GU7     -0.097000
      5 C6         -2.5580   -1.3670    1.6320 c1        1 GU7      0.386000
      6 O6         -1.5430   -1.5870    2.3720 o         1 GU7     -0.365000
      7 N1         -3.8050   -1.4730    2.1470 n2        1 GU7     -0.331000
      8 C2         -4.9080   -1.3810    1.3160 c1        1 GU7      0.197000
      9 N2         -6.2470   -1.4130    1.7610 n3        1 GU7     -0.318000
     10 N3         -4.7430   -1.1840   -0.0200 n1        1 GU7     -0.185000
     11 C4         -3.4740   -1.0750   -0.5500 c1        1 GU7     -0.097000
     12 C10         0.1840   -1.1420   -0.4770 c2        1 GU7     -0.036000
     13 C11         0.8250    0.2070   -0.5340 c3        1 GU7     -0.088000
     14 N12         2.2900    0.0480   -0.5920 n3        1 GU7     -0.295000
     15 C13         2.9070    1.3000   -0.4020 c3        1 GU7     -0.068000
     16 C14         3.7870    1.2600    0.8780 c3        1 GU7     -0.029500
     17 O15         4.3360    2.5110    1.0950 oh        1 GU7     -0.337000
     18 C16         3.7920    1.6300   -1.6300 c3        1 GU7     -0.029500
     19 O17         4.2440    2.9590   -1.5340 oh        1 GU7     -0.337000
     20 HC8        -1.0950   -0.7410   -2.5860 DU        1 GU7      0.204000
     21 HN1        -3.9210   -1.6020    3.0610 hn        1 GU7      0.252000
     22 HN21       -6.9330   -1.1570    1.1890 hn        1 GU7      0.207000
     23 HN22       -6.4350   -1.6690    2.6060 hn        1 GU7      0.207000
     24 H101        0.4720   -1.6730   -1.2480 ha        1 GU7      0.125000
     25 H102        0.4580   -1.5980    0.3590 ha        1 GU7      0.125000
     26 H111        0.5070    0.6980   -1.3540 h1        1 GU7      0.085500
     27 H112        0.5830    0.7210    0.2720 h1        1 GU7      0.085500
     28 H12         2.5200   -0.2770   -1.3810 hn        1 GU7      0.154000
     29 H13         2.2220    1.9890   -0.3020 h1        1 GU7      0.128000
     30 H141        3.2270    1.0070    1.6560 h1        1 GU7      0.078250
     31 H142        4.5190    0.5910    0.7620 h1        1 GU7      0.078250
     32 H15         4.8200    2.4930    1.8060 ho        1 GU7      0.217000
     33 H161        3.2470    1.5170   -2.4770 h1        1 GU7      0.078250
     34 H162        4.5990    0.9940   -1.6550 h1        1 GU7      0.078250
     35 H17         4.4960    3.2280   -2.2960 ho        1 GU7      0.217000
@<TRIPOS>BOND
     1    1    2 1   
     2    1   11 1   
     3    2    3 1   
     4    3    4 1   
     5    4   11 1   
     6    5    6 1   
     7    5    7 1   
     8    7   21 1   
     9    8    9 1   
    10    8   10 1   
    11    9   22 1   
    12    9   23 1   
    13   12   13 1   
    14   12   24 1   
    15   12   25 1   
    16   13   14 1   
    17   13   26 1   
    18   13   27 1   
    19   14   15 1   
    20   14   28 1   
    21   15   16 1   
    22   15   18 1   
    23   15   29 1   
    24   16   17 1   
    25   16   30 1   
    26   16   31 1   
    27   17   32 1   
    28   18   19 1   
    29   18   33 1   
    30   18   34 1   
    31   19   35 1   
@<TRIPOS>SUBSTRUCTURE
     1 GU7         1 TEMP              0 ****  ****    0 ROOT
