@<TRIPOS>MOLECULE
GU8
   33    33     1     0     0
SMALL
bcc


@<TRIPOS>ATOM
      1 C9         -4.7250   -0.4940   -1.5000 c3        1 GU8      0.117700
      2 O6         -3.2850   -0.3490   -1.5910 os        1 GU8     -0.420600
      3 C6         -2.6350   -0.3790   -0.3480 c3        1 GU8      0.130400
      4 C5         -1.1370   -0.4400   -0.5590 c3        1 GU8      0.156100
      5 O5         -0.7210    0.7310   -1.3120 os        1 GU8     -0.451600
      6 C1          0.7270    0.8520   -1.4200 c3        1 GU8      0.321900
      7 O1          1.0340    2.0870   -2.0050 oh        1 GU8     -0.607800
      8 C2          1.4240    0.7640   -0.0640 c3        1 GU8      0.092100
      9 O2          2.8500    0.7140   -0.2750 os        1 GU8     -0.424600
     10 C7          3.4900    1.9180   -0.0550 c3        1 GU8      0.111700
     11 C3          1.0140   -0.4210    0.7000 c3        1 GU8      0.104100
     12 O3          1.5790   -0.3260    2.0660 os        1 GU8     -0.431600
     13 C8          2.3320   -1.4030    2.4380 c3        1 GU8      0.113700
     14 C4         -0.4500   -0.5340    0.8020 c3        1 GU8      0.115100
     15 O4         -0.7790   -1.8100    1.4060 oh        1 GU8     -0.596800
     16 H91        -5.1080   -0.4550   -2.3840 h1        1 GU8      0.033700
     17 H92        -4.9380   -1.3490   -1.0910 h1        1 GU8      0.033700
     18 H93        -5.0930    0.2300   -0.9540 h1        1 GU8      0.033700
     19 H61        -2.9250   -1.1630    0.1500 h1        1 GU8      0.052200
     20 H62        -2.8600    0.4280    0.1560 h1        1 GU8      0.052200
     21 H5         -0.9190   -1.2470   -1.0810 h1        1 GU8      0.077700
     22 H1          1.0610    0.1360   -1.9970 h2        1 GU8      0.055700
     23 HO1         1.0350    2.0020   -2.9230 ho        1 GU8      0.433000
     24 H2          1.2090    1.5600    0.4520 h1        1 GU8      0.080700
     25 H71         3.0310    2.4100    0.6840 h1        1 GU8      0.043367
     26 H72         3.4610    2.4520   -0.8660 h1        1 GU8      0.043367
     27 H73         4.4230    1.7520    0.1940 h1        1 GU8      0.043367
     28 H3          1.3710   -1.2320    0.2580 h1        1 GU8      0.072700
     29 H81         2.8320   -1.7300    1.6730 h1        1 GU8      0.042700
     30 H82         2.9750   -1.1260    3.1660 h1        1 GU8      0.042700
     31 H83         1.7510   -2.1040    2.7690 h1        1 GU8      0.042700
     32 H4         -0.7930    0.2060    1.3920 h1        1 GU8      0.063700
     33 HO4        -1.2330   -1.6790    2.1190 ho        1 GU8      0.422000
@<TRIPOS>BOND
     1    1    2 1   
     2    1   16 1   
     3    1   17 1   
     4    1   18 1   
     5    2    3 1   
     6    3    4 1   
     7    3   19 1   
     8    3   20 1   
     9    4    5 1   
    10    4   14 1   
    11    4   21 1   
    12    5    6 1   
    13    6    7 1   
    14    6    8 1   
    15    6   22 1   
    16    7   23 1   
    17    8    9 1   
    18    8   11 1   
    19    8   24 1   
    20    9   10 1   
    21   10   25 1   
    22   10   26 1   
    23   10   27 1   
    24   11   12 1   
    25   11   14 1   
    26   11   28 1   
    27   12   13 1   
    28   13   29 1   
    29   13   30 1   
    30   13   31 1   
    31   14   15 1   
    32   14   32 1   
    33   15   33 1   
@<TRIPOS>SUBSTRUCTURE
     1 GU8         1 TEMP              0 ****  ****    0 ROOT
