@<TRIPOS>MOLECULE
GU8
   33    33     1     0     0
SMALL
bcc


@<TRIPOS>ATOM
      1 C9          1.9460    2.7320   -3.7950 c3        1 GU8      0.117700
      2 O6          0.9850    1.7260   -3.5260 os        1 GU8     -0.426600
      3 C6          1.1650    1.1280   -2.2430 c3        1 GU8      0.127400
      4 C5          0.1930   -0.0530   -2.1850 c3        1 GU8      0.115100
      5 O5          0.9850   -1.2310   -2.3070 os        1 GU8     -0.441600
      6 C1          0.2020   -2.4220   -2.3410 c3        1 GU8      0.311900
      7 O1          1.1720   -3.4070   -2.5460 oh        1 GU8     -0.565800
      8 C2         -0.5670   -2.5880   -1.0120 c3        1 GU8      0.087100
      9 O2         -1.2760   -3.8130   -0.9860 os        1 GU8     -0.386600
     10 C7         -2.4790   -3.8560   -1.7350 c3        1 GU8      0.109700
     11 C3         -1.4400   -1.3490   -0.7600 c3        1 GU8      0.085100
     12 O3         -1.9470   -1.4980    0.5630 os        1 GU8     -0.400600
     13 C8         -3.1780   -0.8280    0.7890 c3        1 GU8      0.108700
     14 C4         -0.5860   -0.0710   -0.8580 c3        1 GU8      0.084100
     15 O4         -1.3850    1.0900   -0.7320 oh        1 GU8     -0.582800
     16 H91         1.8790    3.5540   -3.0400 h1        1 GU8      0.035367
     17 H92         1.6750    3.1100   -4.8120 h1        1 GU8      0.035367
     18 H93         2.9780    2.3010   -3.8000 h1        1 GU8      0.035367
     19 H61         2.2230    0.7750   -2.1220 h1        1 GU8      0.054700
     20 H62         0.9120    1.8780   -1.4470 h1        1 GU8      0.054700
     21 H5         -0.5290    0.0040   -3.0490 h1        1 GU8      0.061700
     22 H1         -0.4740   -2.4500   -3.2390 h2        1 GU8      0.079700
     23 HO1         1.8270   -3.3340   -1.8380 ho        1 GU8      0.419000
     24 H2          0.1660   -2.7040   -0.1610 h1        1 GU8      0.100700
     25 H71        -2.3260   -3.5010   -2.7830 h1        1 GU8      0.036033
     26 H72        -3.2690   -3.2470   -1.2300 h1        1 GU8      0.036033
     27 H73        -2.7610   -4.9400   -1.7280 h1        1 GU8      0.036033
     28 H3         -2.2810   -1.2960   -1.5050 h1        1 GU8      0.043700
     29 H81        -3.9750   -1.2420    0.1230 h1        1 GU8      0.040700
     30 H82        -3.0660    0.2720    0.6240 h1        1 GU8      0.040700
     31 H83        -3.4110   -1.0470    1.8610 h1        1 GU8      0.040700
     32 H4          0.1170   -0.0230    0.0220 h1        1 GU8      0.104700
     33 HO4        -1.9270    1.1610   -1.5280 ho        1 GU8      0.400000
@<TRIPOS>BOND
     1    1    2 1   
     2    1   16 1   
     3    1   17 1   
     4    1   18 1   
     5    2    3 1   
     6    3    4 1   
     7    3   19 1   
     8    3   20 1   
     9    4    5 1   
    10    4   14 1   
    11    4   21 1   
    12    5    6 1   
    13    6    7 1   
    14    6    8 1   
    15    6   22 1   
    16    7   23 1   
    17    8    9 1   
    18    8   11 1   
    19    8   24 1   
    20    9   10 1   
    21   10   25 1   
    22   10   26 1   
    23   10   27 1   
    24   11   12 1   
    25   11   14 1   
    26   11   28 1   
    27   12   13 1   
    28   13   29 1   
    29   13   30 1   
    30   13   31 1   
    31   14   15 1   
    32   14   32 1   
    33   15   33 1   
@<TRIPOS>SUBSTRUCTURE
     1 GU8         1 TEMP              0 ****  ****    0 ROOT
