@<TRIPOS>MOLECULE
GU9
   33    33     1     0     0
SMALL
bcc


@<TRIPOS>ATOM
      1 C4         -0.7900   -0.1420   -1.1170 c3        1 GU9      0.102100
      2 C5         -2.0970   -0.7360   -1.6600 c3        1 GU9      0.122100
      3 O5         -2.6900    0.0870   -2.6560 os        1 GU9     -0.440600
      4 C6         -3.1000   -1.0300   -0.5410 c3        1 GU9      0.091400
      5 O6         -2.6720   -2.2450    0.0720 os        1 GU9     -0.422600
      6 C9         -3.5790   -2.6970    1.0630 c3        1 GU9      0.117700
      7 C3         -0.8930    1.3510   -0.7550 c3        1 GU9      0.082100
      8 O3         -1.6040    1.5390    0.4680 os        1 GU9     -0.423600
      9 C8         -0.7840    1.4260    1.6210 c3        1 GU9      0.115700
     10 C2         -1.6580    2.1550   -1.8210 c3        1 GU9      0.075100
     11 O2         -0.8550    2.2720   -2.9940 os        1 GU9     -0.425600
     12 C7         -0.0070    3.4110   -2.9950 c3        1 GU9      0.114700
     13 C1         -2.9480    1.4240   -2.2420 c3        1 GU9      0.343900
     14 O1         -3.5340    1.9810   -3.3810 oh        1 GU9     -0.581800
     15 O4          0.2570   -0.3210   -2.0510 oh        1 GU9     -0.592800
     16 H4         -0.4770   -0.7370   -0.2130 h1        1 GU9      0.096700
     17 H5         -1.8590   -1.6900   -2.2160 h1        1 GU9      0.106700
     18 H61        -4.1270   -1.1560   -0.9750 h1        1 GU9      0.048700
     19 H62        -3.1110   -0.2070    0.2230 h1        1 GU9      0.048700
     20 H91        -4.5820   -2.9060    0.6150 h1        1 GU9      0.034367
     21 H92        -3.6780   -1.9420    1.8810 h1        1 GU9      0.034367
     22 H93        -3.1180   -3.6400    1.4510 h1        1 GU9      0.034367
     23 H3          0.1530    1.7620   -0.6710 h1        1 GU9      0.063700
     24 H81         0.0120    2.2110    1.6160 h1        1 GU9      0.039033
     25 H82        -0.3210    0.4110    1.6820 h1        1 GU9      0.039033
     26 H83        -1.4900    1.5880    2.4740 h1        1 GU9      0.039033
     27 H2         -1.9300    3.1670   -1.4150 h1        1 GU9      0.075700
     28 H71         0.7100    3.3720   -2.1390 h1        1 GU9      0.040033
     29 H72        -0.6120    4.3500   -2.9470 h1        1 GU9      0.040033
     30 H73         0.5400    3.3440   -3.9690 h1        1 GU9      0.040033
     31 H1         -3.7080    1.4640   -1.4150 h2        1 GU9      0.089700
     32 HO1        -2.9240    1.8430   -4.1210 ho        1 GU9      0.430000
     33 HO4        -0.0030    0.1440   -2.8600 ho        1 GU9      0.421000
@<TRIPOS>BOND
     1    1    2 1   
     2    1    7 1   
     3    1   15 1   
     4    1   16 1   
     5    2    3 1   
     6    2    4 1   
     7    2   17 1   
     8    3   13 1   
     9    4    5 1   
    10    4   18 1   
    11    4   19 1   
    12    5    6 1   
    13    6   20 1   
    14    6   21 1   
    15    6   22 1   
    16    7    8 1   
    17    7   10 1   
    18    7   23 1   
    19    8    9 1   
    20    9   24 1   
    21    9   25 1   
    22    9   26 1   
    23   10   11 1   
    24   10   13 1   
    25   10   27 1   
    26   11   12 1   
    27   12   28 1   
    28   12   29 1   
    29   12   30 1   
    30   13   14 1   
    31   13   31 1   
    32   14   32 1   
    33   15   33 1   
@<TRIPOS>SUBSTRUCTURE
     1 GU9         1 TEMP              0 ****  ****    0 ROOT
