@<TRIPOS>MOLECULE
GU9
   33    33     1     0     0
SMALL
bcc


@<TRIPOS>ATOM
      1 C4         -0.6450   -1.0720   -0.7440 c3        1 GU9      0.124100
      2 C5          0.8780   -1.0720   -0.7440 c3        1 GU9      0.120100
      3 O5          1.4370   -1.0720    0.6050 os        1 GU9     -0.441600
      4 C6          1.3630    0.1470   -1.4700 c3        1 GU9      0.093400
      5 O6          2.7260   -0.0320   -1.8400 os        1 GU9     -0.420600
      6 C9          3.1010    0.6700   -3.0160 c3        1 GU9      0.117700
      7 C3         -1.2060    0.0000    0.1030 c3        1 GU9      0.098100
      8 O3         -0.9240    1.2940   -0.5220 os        1 GU9     -0.420600
      9 C8         -2.0830    2.0650   -0.7950 c3        1 GU9      0.114700
     10 C2         -0.6370   -0.0060    1.4610 c3        1 GU9      0.056100
     11 O2         -1.1030   -1.1840    2.1570 os        1 GU9     -0.427600
     12 C7         -1.8060   -0.9020    3.3570 c3        1 GU9      0.112700
     13 C1          0.8860   -0.0120    1.4500 c3        1 GU9      0.325900
     14 O1          1.3450   -0.1890    2.7480 oh        1 GU9     -0.589800
     15 O4         -1.1110   -2.3440   -0.2530 oh        1 GU9     -0.588800
     16 H4         -0.9610   -0.9510   -1.6590 h1        1 GU9      0.106700
     17 H5          1.1930   -1.8670   -1.2150 h1        1 GU9      0.109700
     18 H61         1.2840    0.9260   -0.8880 h1        1 GU9      0.048200
     19 H62         0.8240    0.2840   -2.2720 h1        1 GU9      0.048200
     20 H91         2.8460    1.6090   -2.9290 h1        1 GU9      0.034367
     21 H92         4.0670    0.6050   -3.1400 h1        1 GU9      0.034367
     22 H93         2.6470    0.2800   -3.7870 h1        1 GU9      0.034367
     23 H3         -2.1730   -0.1180    0.1650 h1        1 GU9      0.075700
     24 H81        -2.7580    1.5000   -1.2150 h1        1 GU9      0.037700
     25 H82        -1.8520    2.7990   -1.3960 h1        1 GU9      0.037700
     26 H83        -2.4360    2.4280    0.0400 h1        1 GU9      0.037700
     27 H2         -0.9470    0.7870    1.9380 h1        1 GU9      0.065700
     28 H71        -1.5310   -0.0300    3.6980 h1        1 GU9      0.041700
     29 H72        -2.7650   -0.8940    3.1780 h1        1 GU9      0.041700
     30 H73        -1.6050   -1.5890    4.0210 h1        1 GU9      0.041700
     31 H1          1.2020    0.8510    1.1190 h2        1 GU9      0.084700
     32 HO1         2.2290   -0.1150    2.7630 ho        1 GU9      0.427000
     33 HO4        -1.4850   -2.7980   -0.9180 ho        1 GU9      0.420000
@<TRIPOS>BOND
     1    1    2 1   
     2    1    7 1   
     3    1   15 1   
     4    1   16 1   
     5    2    3 1   
     6    2    4 1   
     7    2   17 1   
     8    3   13 1   
     9    4    5 1   
    10    4   18 1   
    11    4   19 1   
    12    5    6 1   
    13    6   20 1   
    14    6   21 1   
    15    6   22 1   
    16    7    8 1   
    17    7   10 1   
    18    7   23 1   
    19    8    9 1   
    20    9   24 1   
    21    9   25 1   
    22    9   26 1   
    23   10   11 1   
    24   10   13 1   
    25   10   27 1   
    26   11   12 1   
    27   12   28 1   
    28   12   29 1   
    29   12   30 1   
    30   13   14 1   
    31   13   31 1   
    32   14   32 1   
    33   15   33 1   
@<TRIPOS>SUBSTRUCTURE
     1 GU9         1 TEMP              0 ****  ****    0 ROOT
