@<TRIPOS>MOLECULE
GUA
   15    14     1     0     0
SMALL
bcc


@<TRIPOS>ATOM
      1 C1         -0.0160   -0.0000    2.5820 c         1 GUA      0.900600
      2 C2         -0.7600   -0.0000    1.2450 c3        1 GUA     -0.176400
      3 C3          0.1000   -0.0000   -0.0000 c3        1 GUA     -0.047400
      4 C4         -0.7600   -0.0000   -1.2450 c3        1 GUA     -0.176400
      5 C5         -0.0170    0.0000   -2.5820 c         1 GUA      0.900600
      6 O1          1.2480   -0.0000    2.6350 o         1 GUA     -0.878300
      7 O2         -0.7300   -0.0000    3.6380 o         1 GUA     -0.878300
      8 O3          1.2470    0.0000   -2.6360 o         1 GUA     -0.878300
      9 O4         -0.7320    0.0000   -3.6380 o         1 GUA     -0.878300
     10 H21        -1.4280   -0.9010    1.2360 hc        1 GUA      0.007700
     11 H22        -1.4280    0.9010    1.2360 hc        1 GUA      0.007700
     12 H31         0.7720    0.8960   -0.0000 hc        1 GUA      0.041700
     13 H32         0.7720   -0.8960   -0.0000 hc        1 GUA      0.041700
     14 H41        -1.4290   -0.9010   -1.2350 hc        1 GUA      0.007700
     15 H42        -1.4290    0.9010   -1.2350 hc        1 GUA      0.007700
@<TRIPOS>BOND
     1    1    2 1   
     2    1    6 1   
     3    1    7 1   
     4    2    3 1   
     5    2   10 1   
     6    2   11 1   
     7    3    4 1   
     8    3   12 1   
     9    3   13 1   
    10    4    5 1   
    11    4   14 1   
    12    4   15 1   
    13    5    8 1   
    14    5    9 1   
@<TRIPOS>SUBSTRUCTURE
     1 GUA         1 TEMP              0 ****  ****    0 ROOT
