@<TRIPOS>MOLECULE
GUA
   15    14     1     0     0
SMALL
bcc


@<TRIPOS>ATOM
      1 C1         -0.0300    0.1490   -0.0860 c         1 GUA      0.903600
      2 C2          1.4740   -0.1090    0.0460 c3        1 GUA     -0.177400
      3 C3          2.0220    0.1380    1.4350 c3        1 GUA     -0.047400
      4 C4          3.4850   -0.2440    1.5230 c3        1 GUA     -0.177400
      5 C5          4.1360    0.0830    2.8690 c         1 GUA      0.903600
      6 O1         -0.8510   -0.6100    0.5110 o         1 GUA     -0.878800
      7 O2         -0.4180    1.0920   -0.8450 o         1 GUA     -0.878800
      8 O3          4.5500   -0.8770    3.5910 o         1 GUA     -0.878800
      9 O4          4.3010    1.2940    3.2080 o         1 GUA     -0.878800
     10 H21         2.0160    0.5390   -0.6890 hc        1 GUA      0.007700
     11 H22         1.6620   -1.1770   -0.2400 hc        1 GUA      0.007700
     12 H31         1.4280   -0.4570    2.1770 hc        1 GUA      0.038700
     13 H32         1.9070    1.2190    1.7050 hc        1 GUA      0.038700
     14 H41         3.5960   -1.3420    1.3270 hc        1 GUA      0.007700
     15 H42         4.0560    0.3020    0.7270 hc        1 GUA      0.007700
@<TRIPOS>BOND
     1    1    2 1   
     2    1    6 1   
     3    1    7 1   
     4    2    3 1   
     5    2   10 1   
     6    2   11 1   
     7    3    4 1   
     8    3   12 1   
     9    3   13 1   
    10    4    5 1   
    11    4   14 1   
    12    4   15 1   
    13    5    8 1   
    14    5    9 1   
@<TRIPOS>SUBSTRUCTURE
     1 GUA         1 TEMP              0 ****  ****    0 ROOT
