@<TRIPOS>MOLECULE
GUA
   15    13     1     0     0
SMALL
bcc


@<TRIPOS>ATOM
      1 C1         -2.2060    0.0000   -1.1590 c1        1 GUA      0.323000
      2 C2         -0.6930    0.0000   -1.1590 c2        1 GUA     -0.206000
      3 C3         -0.1890    0.0000    0.2670 c3        1 GUA     -0.124000
      4 C4          1.3240   -0.0000    0.2670 c3        1 GUA     -0.206000
      5 C5          1.8280    0.0000    1.6940 c2        1 GUA      0.323000
      6 O1         -2.8360    1.0900   -1.1590 o         1 GUA     -0.613000
      7 O2         -2.8360   -1.0900   -1.1590 o         1 GUA     -0.613000
      8 O3          2.0370   -1.0900    2.2880 o         1 GUA     -0.613000
      9 O4          2.0380    1.0910    2.2870 o         1 GUA     -0.613000
     10 H21        -0.3680    0.7970   -1.6190 ha        1 GUA      0.047000
     11 H22        -0.3680   -0.7970   -1.6190 ha        1 GUA      0.047000
     12 H31        -0.5140    0.7970    0.7280 hc        1 GUA      0.076000
     13 H32        -0.5150   -0.7970    0.7280 hc        1 GUA      0.076000
     14 H41         1.6490   -0.7970   -0.1920 hc        1 GUA      0.047000
     15 H42         1.6490    0.7970   -0.1930 hc        1 GUA      0.047000
@<TRIPOS>BOND
     1    1    6 1   
     2    1    7 1   
     3    2    3 1   
     4    2   10 1   
     5    2   11 1   
     6    3    4 1   
     7    3   12 1   
     8    3   13 1   
     9    4    5 1   
    10    4   14 1   
    11    4   15 1   
    12    5    8 1   
    13    5    9 1   
@<TRIPOS>SUBSTRUCTURE
     1 GUA         1 TEMP              0 ****  ****    0 ROOT
