@<TRIPOS>MOLECULE
GUA
   15    14     1     0     0
SMALL
bcc


@<TRIPOS>ATOM
      1 C1         -0.0180   -0.0600   -0.1150 c         1 GUA      0.903600
      2 C2          1.3980    0.4350    0.1890 c3        1 GUA     -0.177400
      3 C3          2.0510   -0.2490    1.3710 c3        1 GUA     -0.047400
      4 C4          3.4850    0.2060    1.5440 c3        1 GUA     -0.177400
      5 C5          4.1740   -0.3610    2.7890 c         1 GUA      0.903600
      6 O1         -0.9850    0.7540    0.0130 o         1 GUA     -0.878800
      7 O2         -0.1910   -1.2430   -0.5390 o         1 GUA     -0.878800
      8 O3          3.7830   -0.0010    3.9410 o         1 GUA     -0.878800
      9 O4          5.1660   -1.1400    2.6300 o         1 GUA     -0.878800
     10 H21         1.3610    1.5400    0.3720 hc        1 GUA      0.007700
     11 H22         2.0220    0.2640   -0.7270 hc        1 GUA      0.007700
     12 H31         2.0190   -1.3590    1.2180 hc        1 GUA      0.038700
     13 H32         1.4780   -0.0240    2.3080 hc        1 GUA      0.038700
     14 H41         4.0800   -0.0850    0.6400 hc        1 GUA      0.007700
     15 H42         3.5100    1.3240    1.6220 hc        1 GUA      0.007700
@<TRIPOS>BOND
     1    1    2 1   
     2    1    6 1   
     3    1    7 1   
     4    2    3 1   
     5    2   10 1   
     6    2   11 1   
     7    3    4 1   
     8    3   12 1   
     9    3   13 1   
    10    4    5 1   
    11    4   14 1   
    12    4   15 1   
    13    5    8 1   
    14    5    9 1   
@<TRIPOS>SUBSTRUCTURE
     1 GUA         1 TEMP              0 ****  ****    0 ROOT
