@<TRIPOS>MOLECULE
GUB
   48    51     1     0     0
SMALL
bcc


@<TRIPOS>ATOM
      1 C2         -0.0400   -0.2680   -0.0970 c3        1 GUB     -0.051100
      2 C3          1.4680   -0.0170    0.0190 c3        1 GUB      0.219800
      3 C5          3.2560    0.0920    1.7150 ca        1 GUB      0.764200
      4 O18         6.1120   -0.1260    9.7780 oh        1 GUB     -0.597800
      5 C17         7.0900    0.4980    8.9740 c3        1 GUB      0.141400
      6 C16         6.4910    0.9520    7.6440 c3        1 GUB      0.093100
      7 C19         7.4520    1.7960    6.7860 c3        1 GUB      0.131100
      8 O20         8.7700    1.6140    7.2580 oh        1 GUB     -0.590800
      9 O15         6.1690   -0.2390    6.8990 os        1 GUB     -0.423600
     10 C14         6.4390   -0.0550    5.5070 c3        1 GUB      0.233800
     11 C21         7.2250    1.2890    5.3440 c3        1 GUB      0.084100
     12 O22         8.4770    1.0490    4.7450 oh        1 GUB     -0.598800
     13 N13         5.2020   -0.0960    4.7600 na        1 GUB     -0.293000
     14 C12         3.9160   -0.4840    5.2100 cc        1 GUB      0.425700
     15 N11         2.9900   -0.4890    4.2400 nd        1 GUB     -0.548100
     16 C10         3.6720   -0.0940    3.0790 ca        1 GUB     -0.226200
     17 C9          5.0740    0.1570    3.3860 ca        1 GUB      0.448800
     18 N6          4.1950    0.4790    0.7860 nb        1 GUB     -0.790000
     19 C7          5.4680    0.6770    1.2200 ca        1 GUB      0.690900
     20 N8          5.9990    0.5510    2.4580 nb        1 GUB     -0.768000
     21 N4          1.9390   -0.0940    1.3770 nu        1 GUB     -0.859900
     22 C1         -0.4720   -0.1360   -1.5150 ca        1 GUB     -0.084300
     23 C23        -0.7900   -1.2700   -2.2700 ca        1 GUB     -0.123000
     24 C24        -1.2080   -1.1390   -3.5930 ca        1 GUB     -0.127500
     25 C25        -1.3100    0.1260   -4.1730 ca        1 GUB     -0.127000
     26 C26        -0.9950    1.2600   -3.4250 ca        1 GUB     -0.127500
     27 C27        -0.5780    1.1310   -2.1020 ca        1 GUB     -0.123000
     28 H2         -0.6020    0.4720    0.5330 hc        1 GUB      0.055700
     29 H2A        -0.2880   -1.2940    0.2870 hc        1 GUB      0.055700
     30 H3          2.0170   -0.7690   -0.6180 h1        1 GUB      0.060200
     31 H3A         1.7020    1.0090   -0.3920 h1        1 GUB      0.060200
     32 HO18        5.8390   -0.9290    9.3170 ho        1 GUB      0.408000
     33 H17         7.4310    1.3950    9.5550 h1        1 GUB      0.070200
     34 H17A        7.9580   -0.1890    8.7890 h1        1 GUB      0.070200
     35 H16         5.5310    1.5100    7.8140 h1        1 GUB      0.069700
     36 H19         7.1920    2.8880    6.8560 h1        1 GUB      0.060700
     37 HO20        9.3760    1.8060    6.5290 ho        1 GUB      0.433000
     38 H14         7.0820   -0.9320    5.1930 h2        1 GUB      0.102700
     39 H21         6.6430    2.0470    4.7540 h1        1 GUB      0.077700
     40 HO22        8.3180    0.9120    3.8000 ho        1 GUB      0.442000
     41 H12         3.7510   -0.7460    6.2640 h5        1 GUB      0.086800
     42 H7          6.1800    0.9910    0.4260 h5        1 GUB      0.051100
     43 HN4         1.3290   -0.4520    2.0770 hn        1 GUB      0.456800
     44 H23        -0.7110   -2.2700   -1.8170 ha        1 GUB      0.132500
     45 H24        -1.4560   -2.0350   -4.1800 ha        1 GUB      0.133000
     46 H25        -1.6400    0.2280   -5.2170 ha        1 GUB      0.133000
     47 H26        -1.0750    2.2590   -3.8800 ha        1 GUB      0.133000
     48 H27        -0.3290    2.0270   -1.5130 ha        1 GUB      0.132500
@<TRIPOS>BOND
     1    1    2 1   
     2    1   22 1   
     3    1   28 1   
     4    1   29 1   
     5    2   21 1   
     6    2   30 1   
     7    2   31 1   
     8    3   16 ar  
     9    3   18 ar  
    10    3   21 1   
    11    4    5 1   
    12    4   32 1   
    13    5    6 1   
    14    5   33 1   
    15    5   34 1   
    16    6    7 1   
    17    6    9 1   
    18    6   35 1   
    19    7    8 1   
    20    7   11 1   
    21    7   36 1   
    22    8   37 1   
    23    9   10 1   
    24   10   11 1   
    25   10   13 1   
    26   10   38 1   
    27   11   12 1   
    28   11   39 1   
    29   12   40 1   
    30   13   14 1   
    31   13   17 1   
    32   14   15 2   
    33   14   41 1   
    34   15   16 1   
    35   16   17 ar  
    36   17   20 ar  
    37   18   19 ar  
    38   19   20 ar  
    39   19   42 1   
    40   21   43 1   
    41   22   23 ar  
    42   22   27 ar  
    43   23   24 ar  
    44   23   44 1   
    45   24   25 ar  
    46   24   45 1   
    47   25   26 ar  
    48   25   46 1   
    49   26   27 ar  
    50   26   47 1   
    51   27   48 1   
@<TRIPOS>SUBSTRUCTURE
     1 GUB         1 TEMP              0 ****  ****    0 ROOT
