@<TRIPOS>MOLECULE
GUB
   48    51     1     0     0
SMALL
bcc


@<TRIPOS>ATOM
      1 C2         -0.0440   -0.2580   -0.0940 c3        1 GUB     -0.051100
      2 C3          1.4640   -0.0110    0.0210 c3        1 GUB      0.219800
      3 C5          3.2530    0.0950    1.7160 ca        1 GUB      0.764200
      4 O18         6.1130   -0.1160    9.7780 oh        1 GUB     -0.597800
      5 C17         7.0940    0.4990    8.9730 c3        1 GUB      0.141400
      6 C16         6.4970    0.9530    7.6410 c3        1 GUB      0.093100
      7 C19         7.4610    1.7900    6.7810 c3        1 GUB      0.131100
      8 O20         8.7780    1.6020    7.2530 oh        1 GUB     -0.590800
      9 O15         6.1670   -0.2380    6.8990 os        1 GUB     -0.423600
     10 C14         6.4380   -0.0580    5.5070 c3        1 GUB      0.233800
     11 C21         7.2310    1.2800    5.3400 c3        1 GUB      0.084100
     12 O22         8.4810    1.0320    4.7410 oh        1 GUB     -0.598800
     13 N13         5.2000   -0.0950    4.7610 na        1 GUB     -0.293000
     14 C12         3.9130   -0.4760    5.2130 cc        1 GUB      0.425700
     15 N11         2.9860   -0.4780    4.2430 nd        1 GUB     -0.548100
     16 C10         3.6690   -0.0900    3.0810 ca        1 GUB     -0.226200
     17 C9          5.0720    0.1550    3.3860 ca        1 GUB      0.448800
     18 N6          4.1940    0.4740    0.7860 nb        1 GUB     -0.790000
     19 C7          5.4680    0.6670    1.2180 ca        1 GUB      0.690900
     20 N8          6.0000    0.5410    2.4570 nb        1 GUB     -0.768000
     21 N4          1.9360   -0.0860    1.3800 nh        1 GUB     -0.859900
     22 C1         -0.4750   -0.1290   -1.5130 ca        1 GUB     -0.084300
     23 C23        -0.7960   -1.2660   -2.2630 ca        1 GUB     -0.123000
     24 C24        -1.2130   -1.1380   -3.5870 ca        1 GUB     -0.127500
     25 C25        -1.3130    0.1240   -4.1710 ca        1 GUB     -0.127000
     26 C26        -0.9950    1.2610   -3.4280 ca        1 GUB     -0.127500
     27 C27        -0.5780    1.1360   -2.1040 ca        1 GUB     -0.123000
     28 H2         -0.6030    0.4870    0.5340 hc        1 GUB      0.055700
     29 H2A        -0.2950   -1.2810    0.2940 hc        1 GUB      0.055700
     30 H3          2.0110   -0.7670   -0.6140 h1        1 GUB      0.060200
     31 H3A         1.7020    1.0120   -0.3930 h1        1 GUB      0.060200
     32 HO18        5.8350   -0.9190    9.3200 ho        1 GUB      0.408000
     33 H17         7.9570   -0.1920    8.7890 h1        1 GUB      0.070200
     34 H17A        7.4390    1.3970    9.5510 h1        1 GUB      0.070200
     35 H16         5.5390    1.5170    7.8110 h1        1 GUB      0.069700
     36 H19         7.2070    2.8830    6.8480 h1        1 GUB      0.060700
     37 HO20        9.3850    1.7890    6.5230 ho        1 GUB      0.433000
     38 H14         7.0760   -0.9400    5.1950 h2        1 GUB      0.103700
     39 H21         6.6530    2.0400    4.7480 h1        1 GUB      0.077700
     40 HO22        8.3210    0.8940    3.7970 ho        1 GUB      0.442000
     41 H12         3.7470   -0.7340    6.2670 h5        1 GUB      0.086800
     42 H7          6.1820    0.9750    0.4230 h5        1 GUB      0.051100
     43 HN4         1.3250   -0.4390    2.0800 hn        1 GUB      0.456800
     44 H23        -0.7190   -2.2640   -1.8070 ha        1 GUB      0.132500
     45 H24        -1.4630   -2.0360   -4.1710 ha        1 GUB      0.133000
     46 H25        -1.6420    0.2240   -5.2160 ha        1 GUB      0.133000
     47 H26        -1.0730    2.2580   -3.8860 ha        1 GUB      0.133000
     48 H27        -0.3280    2.0330   -1.5180 ha        1 GUB      0.132500
@<TRIPOS>BOND
     1    1    2 1   
     2    1   22 1   
     3    1   28 1   
     4    1   29 1   
     5    2   21 1   
     6    2   30 1   
     7    2   31 1   
     8    3   16 ar  
     9    3   18 ar  
    10    3   21 1   
    11    4    5 1   
    12    4   32 1   
    13    5    6 1   
    14    5   33 1   
    15    5   34 1   
    16    6    7 1   
    17    6    9 1   
    18    6   35 1   
    19    7    8 1   
    20    7   11 1   
    21    7   36 1   
    22    8   37 1   
    23    9   10 1   
    24   10   11 1   
    25   10   13 1   
    26   10   38 1   
    27   11   12 1   
    28   11   39 1   
    29   12   40 1   
    30   13   14 1   
    31   13   17 1   
    32   14   15 2   
    33   14   41 1   
    34   15   16 1   
    35   16   17 ar  
    36   17   20 ar  
    37   18   19 ar  
    38   19   20 ar  
    39   19   42 1   
    40   21   43 1   
    41   22   23 ar  
    42   22   27 ar  
    43   23   24 ar  
    44   23   44 1   
    45   24   25 ar  
    46   24   45 1   
    47   25   26 ar  
    48   25   46 1   
    49   26   27 ar  
    50   26   47 1   
    51   27   48 1   
@<TRIPOS>SUBSTRUCTURE
     1 GUB         1 TEMP              0 ****  ****    0 ROOT
