@<TRIPOS>MOLECULE
GUB
   48    45     1     0     0
SMALL
bcc


@<TRIPOS>ATOM
      1 C2         -3.6760   -0.5990   -2.6530 c3        1 GUB     -0.138000
      2 C3         -2.1430   -0.3920   -2.6890 c3        1 GUB     -0.015000
      3 C5         -0.2770   -0.0750   -1.0520 c1        1 GUB      0.245000
      4 O18         2.2760   -0.4090    6.4860 oh        1 GUB     -0.325000
      5 C17         3.2330    0.4470    5.9670 c3        1 GUB     -0.009000
      6 C16         2.8030    0.9040    4.6290 c3        1 GUB     -0.018000
      7 C19         3.6510    1.8190    4.1550 c3        1 GUB      0.020000
      8 O20         5.0010    1.6160    4.7240 oh        1 GUB     -0.318000
      9 O15         2.8360   -0.3530    3.5650 os        1 GUB     -0.280000
     10 C14         2.9340    0.1670    2.4040 c3        1 GUB      0.142000
     11 C21         3.6760    1.5870    2.6390 c3        1 GUB     -0.027000
     12 O22         4.9080    1.5320    2.2100 oh        1 GUB     -0.326000
     13 N13         1.6470    0.3670    1.8460 n3        1 GUB     -0.210000
     14 C12         0.4180    0.3100    2.4190 c1        1 GUB     -0.030000
     15 N11        -0.4970    0.1360    1.4350 n2        1 GUB     -0.122000
     16 C10         0.1630    0.0850    0.2520 c1        1 GUB     -0.236000
     17 C9          1.4910    0.2280    0.5060 c1        1 GUB      0.057000
     18 N6          0.6070   -0.0880   -2.0600 n1        1 GUB     -0.265000
     19 C7          1.9400    0.0550   -1.8030 c1        1 GUB      0.028000
     20 N8          2.3780    0.2140   -0.5120 n1        1 GUB     -0.243000
     21 N4         -1.6730   -0.0350   -1.3540 n3        1 GUB     -0.306000
     22 C1         -4.1770   -1.0640   -4.0510 c2        1 GUB     -0.077000
     23 C23        -4.3080   -2.4400   -4.3280 c2        1 GUB     -0.124000
     24 C24        -4.8550   -2.8570   -5.5400 c1        1 GUB     -0.127000
     25 C25        -5.2680   -1.9250   -6.4680 c1        1 GUB     -0.127500
     26 C26        -5.1410   -0.5610   -6.1970 c1        1 GUB     -0.127500
     27 C27        -4.5920   -0.1340   -4.9810 c1        1 GUB     -0.122000
     28 H2         -3.8950   -1.2790   -1.9880 hc        1 GUB      0.094500
     29 H2A        -4.1010    0.2210   -2.4210 hc        1 GUB      0.094500
     30 H3         -1.9360    0.2920   -3.2830 h1        1 GUB      0.099000
     31 H3A        -1.7120   -1.2130   -2.9770 h1        1 GUB      0.099000
     32 HO18        2.5020   -0.6380    7.2880 ho        1 GUB      0.207000
     33 H17         3.3310    1.1900    6.5380 h1        1 GUB      0.109500
     34 H17A        4.0860   -0.0210    5.8940 h1        1 GUB      0.109500
     35 H16         1.9390    1.2620    4.6760 h1        1 GUB      0.109000
     36 H19         3.3160    2.7460    4.3610 h1        1 GUB      0.100000
     37 HO20        5.3520    2.4130    4.9560 ho        1 GUB      0.232000
     38 H14         3.4710   -0.4030    1.8220 h2        1 GUB      0.142000
     39 H21         3.2020    2.2840    2.1920 h1        1 GUB      0.117000
     40 HO22        5.0770    2.2540    1.6610 ho        1 GUB      0.241000
     41 H12         0.2260    0.3900    3.3730 DU        1 GUB      0.216000
     42 H7          2.5960    0.0450   -2.5540 ha        1 GUB      0.188000
     43 HN4        -2.2590    0.1380   -0.7100 hn        1 GUB      0.253000
     44 H23        -4.0230   -3.0860   -3.6860 ha        1 GUB      0.133000
     45 H24        -4.9480   -3.8430   -5.7400 ha        1 GUB      0.133000
     46 H25        -5.6490   -2.2180   -7.3130 ha        1 GUB      0.133000
     47 H26        -5.4320    0.0880   -6.8490 ha        1 GUB      0.133000
     48 H27        -4.5000    0.8450   -4.7880 ha        1 GUB      0.133000
@<TRIPOS>BOND
     1    1    2 1   
     2    1   22 1   
     3    1   28 1   
     4    1   29 1   
     5    2   21 1   
     6    2   30 1   
     7    2   31 1   
     8    3   16 1   
     9    3   21 1   
    10    4    5 1   
    11    4   32 1   
    12    5    6 1   
    13    5   33 1   
    14    5   34 1   
    15    6    7 1   
    16    6    9 1   
    17    6   35 1   
    18    7    8 1   
    19    7   11 1   
    20    7   36 1   
    21    8   37 1   
    22    9   10 1   
    23   10   11 1   
    24   10   13 1   
    25   10   38 1   
    26   11   12 1   
    27   11   39 1   
    28   12   40 1   
    29   13   14 1   
    30   13   17 1   
    31   14   15 1   
    32   15   16 1   
    33   17   20 1   
    34   18   19 1   
    35   19   42 1   
    36   21   43 1   
    37   22   23 1   
    38   22   27 1   
    39   23   24 1   
    40   23   44 1   
    41   24   45 1   
    42   25   26 1   
    43   25   46 1   
    44   26   47 1   
    45   27   48 1   
@<TRIPOS>SUBSTRUCTURE
     1 GUB         1 TEMP              0 ****  ****    0 ROOT
