@<TRIPOS>MOLECULE
GUB
   49    52     1     0     0
SMALL
bcc


@<TRIPOS>ATOM
      1 C2         -0.2000    0.6770   -0.0780 c3        1 GUB     -0.050100
      2 C3          1.2820    0.8060    0.2780 c3        1 GUB      0.107800
      3 C5          2.9250    1.7520    1.8480 ca        1 GUB      0.534200
      4 O18         5.9610   -1.4810    9.0440 oh        1 GUB     -0.610800
      5 C17         7.0720   -0.9970    8.3060 c3        1 GUB      0.139400
      6 C16         6.5090   -0.0020    7.2960 c3        1 GUB      0.132100
      7 C19         7.5090    1.0830    6.8520 c3        1 GUB      0.131100
      8 O20         8.8170    0.6100    7.0770 oh        1 GUB     -0.577800
      9 O15         6.1520   -0.7510    6.1090 os        1 GUB     -0.399600
     10 C14         6.3760    0.0240    4.9420 c3        1 GUB      0.214800
     11 C21         7.1900    1.2970    5.3510 c3        1 GUB      0.081100
     12 O22         8.4020    1.3380    4.6400 oh        1 GUB     -0.575800
     13 N13         5.0820    0.3160    4.3280 na        1 GUB     -0.273000
     14 C12         3.8410   -0.2750    4.6470 cc        1 GUB      0.520700
     15 N11         2.8270    0.1120    3.8460 nd        1 GUB     -0.593100
     16 C10         3.4060    1.0010    2.9360 ca        1 GUB     -0.130200
     17 C9          4.8540    1.1480    3.2260 ca        1 GUB      0.446800
     18 N6          3.7420    2.5540    1.1180 nb        1 GUB     -0.685000
     19 C7          5.0530    2.6020    1.4880 ca        1 GUB      0.669900
     20 N8          5.6760    1.9490    2.5030 nb        1 GUB     -0.649000
     21 N4          1.4950    1.6640    1.4890 n4        1 GUB     -0.744700
     22 C1         -0.3270   -0.1810   -1.2870 ca        1 GUB     -0.127300
     23 C23        -0.5960   -1.5480   -1.1550 ca        1 GUB     -0.115500
     24 C24        -0.7370   -2.3450   -2.2900 ca        1 GUB     -0.118500
     25 C25        -0.6100   -1.7820   -3.5610 ca        1 GUB     -0.100000
     26 C26        -0.3440   -0.4180   -3.6950 ca        1 GUB     -0.118500
     27 C27        -0.2040    0.3820   -2.5630 ca        1 GUB     -0.115500
     28 H2         -0.6400    1.6900   -0.2830 hc        1 GUB      0.069200
     29 H2A        -0.7680    0.2210    0.7780 hc        1 GUB      0.069200
     30 H3          1.8470    1.2690   -0.5820 hx        1 GUB      0.117700
     31 H3A         1.7180   -0.2110    0.4950 hx        1 GUB      0.117700
     32 HO18        6.2960   -2.1750    9.6240 ho        1 GUB      0.419000
     33 H17         7.5960   -1.8350    7.7760 h1        1 GUB      0.062700
     34 H17A        7.7910   -0.4680    8.9860 h1        1 GUB      0.062700
     35 H16         5.5690    0.4720    7.6920 h1        1 GUB      0.080700
     36 H19         7.3490    2.0380    7.4220 h1        1 GUB      0.071700
     37 HO20        9.4250    1.1670    6.5690 ho        1 GUB      0.437000
     38 H14         6.9630   -0.6240    4.2230 h2        1 GUB      0.122700
     39 H21         6.6010    2.2410    5.2070 h1        1 GUB      0.068700
     40 HO22        8.2220    1.7350    3.7770 ho        1 GUB      0.432000
     41 H12         3.7580   -0.9890    5.4890 h5        1 GUB      0.125800
     42 H7          5.6960    3.2700    0.8680 h5        1 GUB      0.095100
     43 HN4         1.1280    2.6070    1.3020 hn        1 GUB      0.469300
     44 H23        -0.7080   -1.9960   -0.1560 ha        1 GUB      0.133000
     45 H24        -0.9530   -3.4190   -2.1820 ha        1 GUB      0.150000
     46 H25        -0.7240   -2.4120   -4.4570 ha        1 GUB      0.151000
     47 H26        -0.2510    0.0290   -4.6970 ha        1 GUB      0.150000
     48 H27        -0.0060    1.4580   -2.6740 ha        1 GUB      0.133000
     49 H42         0.9840    1.2640    2.2880 hn        1 GUB      0.469300
@<TRIPOS>BOND
     1    1    2 1   
     2    1   22 1   
     3    1   28 1   
     4    1   29 1   
     5    2   21 1   
     6    2   30 1   
     7    2   31 1   
     8    3   16 ar  
     9    3   18 ar  
    10    3   21 1   
    11    4    5 1   
    12    4   32 1   
    13    5    6 1   
    14    5   33 1   
    15    5   34 1   
    16    6    7 1   
    17    6    9 1   
    18    6   35 1   
    19    7    8 1   
    20    7   11 1   
    21    7   36 1   
    22    8   37 1   
    23    9   10 1   
    24   10   11 1   
    25   10   13 1   
    26   10   38 1   
    27   11   12 1   
    28   11   39 1   
    29   12   40 1   
    30   13   14 1   
    31   13   17 1   
    32   14   15 2   
    33   14   41 1   
    34   15   16 1   
    35   16   17 ar  
    36   17   20 ar  
    37   18   19 ar  
    38   19   20 ar  
    39   19   42 1   
    40   21   43 1   
    41   21   49 1   
    42   22   23 ar  
    43   22   27 ar  
    44   23   24 ar  
    45   23   44 1   
    46   24   25 ar  
    47   24   45 1   
    48   25   26 ar  
    49   25   46 1   
    50   26   27 ar  
    51   26   47 1   
    52   27   48 1   
@<TRIPOS>SUBSTRUCTURE
     1 GUB         1 TEMP              0 ****  ****    0 ROOT
