@<TRIPOS>MOLECULE
GUB
   48    51     1     0     0
SMALL
bcc


@<TRIPOS>ATOM
      1 C2          4.7970    1.2490    0.2980 c3        1 GUB     -0.051100
      2 C3          3.7710    0.1470    0.0100 c3        1 GUB      0.216800
      3 C5          1.3360   -0.1970   -0.1570 ca        1 GUB      0.757200
      4 O18        -6.7750    2.5230   -0.3980 oh        1 GUB     -0.591800
      5 C17        -6.6570    1.2860    0.2690 c3        1 GUB      0.131400
      6 C16        -5.1960    0.9790    0.6010 c3        1 GUB      0.060100
      7 C19        -4.9900   -0.3770    1.3030 c3        1 GUB      0.081100
      8 O20        -6.1870   -1.0880    1.5430 oh        1 GUB     -0.592800
      9 O15        -4.4820    0.9460   -0.6490 os        1 GUB     -0.419600
     10 C14        -3.5990   -0.1800   -0.7050 c3        1 GUB      0.264800
     11 C21        -4.1390   -1.2230    0.3260 c3        1 GUB      0.127100
     12 O22        -4.9060   -2.1330   -0.4320 oh        1 GUB     -0.579800
     13 N13        -2.2450    0.2540   -0.4370 na        1 GUB     -0.298000
     14 C12        -1.7890    1.5880   -0.2820 cc        1 GUB      0.416700
     15 N11        -0.4600    1.6870   -0.1470 nd        1 GUB     -0.547100
     16 C10         0.0160    0.3700   -0.2250 ca        1 GUB     -0.229200
     17 C9         -1.0970   -0.5530   -0.4170 ca        1 GUB      0.455800
     18 N6          1.4770   -1.5570   -0.2960 nb        1 GUB     -0.788000
     19 C7          0.3470   -2.2940   -0.4690 ca        1 GUB      0.683900
     20 N8         -0.9480   -1.9070   -0.5390 nb        1 GUB     -0.735000
     21 N4          2.4130    0.6240    0.0840 nh        1 GUB     -0.856900
     22 C1          6.1750    0.6890    0.2510 ca        1 GUB     -0.084300
     23 C23         7.0210    0.9730   -0.8270 ca        1 GUB     -0.123500
     24 C24         8.3160    0.4570   -0.8580 ca        1 GUB     -0.127500
     25 C25         8.7750   -0.3460    0.1850 ca        1 GUB     -0.128000
     26 C26         7.9360   -0.6330    1.2620 ca        1 GUB     -0.127500
     27 C27         6.6420   -0.1180    1.2960 ca        1 GUB     -0.123500
     28 H2          4.6920    2.0770   -0.4530 hc        1 GUB      0.055200
     29 H2A         4.6100    1.6900    1.3140 hc        1 GUB      0.055200
     30 H3          3.9740   -0.2860   -1.0130 h1        1 GUB      0.059700
     31 H3A         3.9030   -0.6850    0.7610 h1        1 GUB      0.059700
     32 HO18       -6.2770    2.4500   -1.2230 ho        1 GUB      0.416000
     33 H17        -7.2460    1.4080    1.2160 h1        1 GUB      0.059700
     34 H17A       -7.0900    0.4550   -0.3490 h1        1 GUB      0.059700
     35 H16        -4.7500    1.8170    1.2030 h1        1 GUB      0.070700
     36 H19        -4.4370   -0.2260    2.2700 h1        1 GUB      0.059700
     37 HO20       -6.7040   -0.5710    2.1730 ho        1 GUB      0.418000
     38 H14        -3.6680   -0.5800   -1.7610 h2        1 GUB      0.124700
     39 H21        -3.3270   -1.7720    0.8710 h1        1 GUB      0.087700
     40 HO22       -5.4520   -2.6360    0.1870 ho        1 GUB      0.432000
     41 H12        -2.5010    2.4240   -0.2840 h5        1 GUB      0.083800
     42 H7          0.5200   -3.3870   -0.5730 h5        1 GUB      0.052100
     43 HN4         2.2560    1.6050    0.0330 hn        1 GUB      0.451800
     44 H23         6.6640    1.6060   -1.6530 ha        1 GUB      0.133000
     45 H24         8.9750    0.6850   -1.7080 ha        1 GUB      0.132500
     46 H25         9.7970   -0.7530    0.1590 ha        1 GUB      0.132000
     47 H26         8.2960   -1.2660    2.0870 ha        1 GUB      0.132500
     48 H27         5.9810   -0.3440    2.1460 ha        1 GUB      0.133000
@<TRIPOS>BOND
     1    1    2 1   
     2    1   22 1   
     3    1   28 1   
     4    1   29 1   
     5    2   21 1   
     6    2   30 1   
     7    2   31 1   
     8    3   16 ar  
     9    3   18 ar  
    10    3   21 1   
    11    4    5 1   
    12    4   32 1   
    13    5    6 1   
    14    5   33 1   
    15    5   34 1   
    16    6    7 1   
    17    6    9 1   
    18    6   35 1   
    19    7    8 1   
    20    7   11 1   
    21    7   36 1   
    22    8   37 1   
    23    9   10 1   
    24   10   11 1   
    25   10   13 1   
    26   10   38 1   
    27   11   12 1   
    28   11   39 1   
    29   12   40 1   
    30   13   14 1   
    31   13   17 1   
    32   14   15 2   
    33   14   41 1   
    34   15   16 1   
    35   16   17 ar  
    36   17   20 ar  
    37   18   19 ar  
    38   19   20 ar  
    39   19   42 1   
    40   21   43 1   
    41   22   23 ar  
    42   22   27 ar  
    43   23   24 ar  
    44   23   44 1   
    45   24   25 ar  
    46   24   45 1   
    47   25   26 ar  
    48   25   46 1   
    49   26   27 ar  
    50   26   47 1   
    51   27   48 1   
@<TRIPOS>SUBSTRUCTURE
     1 GUB         1 TEMP              0 ****  ****    0 ROOT
