@<TRIPOS>MOLECULE
GUF
   21    21     1     0     0
SMALL
bcc


@<TRIPOS>ATOM
      1 O6A        -3.0590   -0.4000    0.5820 o         1 GUF     -0.815300
      2 C6         -2.3980    0.6000    0.1770 c         1 GUF      0.933600
      3 O6B        -2.8090    1.7830    0.1510 o         1 GUF     -0.815300
      4 C5         -0.9740    0.2860   -0.3890 c3        1 GUF     -0.024900
      5 O5         -0.1280    1.3810   -0.0470 os        1 GUF     -0.408600
      6 C4         -0.4270   -1.0310    0.1830 c3        1 GUF      0.154100
      7 O4         -1.1410   -2.1270   -0.3620 oh        1 GUF     -0.632800
      8 C3          1.0440   -1.2420   -0.2140 c3        1 GUF      0.110100
      9 O3          1.5480   -2.3210    0.5590 oh        1 GUF     -0.583800
     10 C2          1.8840    0.0230    0.0790 c3        1 GUF      0.072600
     11 F2          3.1690   -0.1330   -0.4200 f         1 GUF     -0.255300
     12 C1          1.1860    1.2600   -0.5440 c3        1 GUF      0.322900
     13 O1          1.7990    2.4520   -0.1170 oh        1 GUF     -0.613800
     14 H2         -1.0500    0.2080   -1.5070 h1        1 GUF      0.037700
     15 H3         -0.5220   -1.0310    1.3030 h1        1 GUF      0.062700
     16 H4         -2.0700   -1.9990   -0.0970 ho        1 GUF      0.455000
     17 H5          1.1090   -1.4950   -1.3080 h1        1 GUF      0.048700
     18 H6          2.4490   -2.4730    0.2480 ho        1 GUF      0.389000
     19 H7          1.9550    0.1680    1.1940 h1        1 GUF      0.073700
     20 H8          1.2340    1.2270   -1.6650 h2        1 GUF      0.059700
     21 H9          1.2560    2.8290    0.5920 ho        1 GUF      0.431000
@<TRIPOS>BOND
     1    1    2 1   
     2    2    3 1   
     3    2    4 1   
     4    4    5 1   
     5    4    6 1   
     6    4   14 1   
     7    5   12 1   
     8    6    7 1   
     9    6    8 1   
    10    6   15 1   
    11    7   16 1   
    12    8    9 1   
    13    8   10 1   
    14    8   17 1   
    15    9   18 1   
    16   10   11 1   
    17   10   12 1   
    18   10   19 1   
    19   12   13 1   
    20   12   20 1   
    21   13   21 1   
@<TRIPOS>SUBSTRUCTURE
     1 GUF         1 TEMP              0 ****  ****    0 ROOT
