@<TRIPOS>MOLECULE
GUF
   21    20     1     0     0
SMALL
bcc


@<TRIPOS>ATOM
      1 O6A        -2.4030   -1.0310   -1.1710 o         1 GUF     -0.561000
      2 C6         -1.1860   -1.3710   -1.1280 c1        1 GUF      0.317000
      3 O6B        -0.6150   -1.7930   -2.1650 o         1 GUF     -0.561000
      4 C5         -0.4780   -1.3790    0.1490 c2        1 GUF     -0.083000
      5 O5          1.0470   -1.4010   -0.0490 os        1 GUF     -0.299000
      6 C4         -0.8570   -0.1640    1.0150 c3        1 GUF     -0.019000
      7 O4         -0.3860   -0.3820    2.3410 oh        1 GUF     -0.340000
      8 C3         -0.2830    1.1140    0.5060 c3        1 GUF     -0.003000
      9 O3         -0.9230    1.4450   -0.7600 oh        1 GUF     -0.348000
     10 C2          1.1800    1.0390    0.2940 c3        1 GUF     -0.033000
     11 F2          1.8030    0.9460    1.5290 f         1 GUF     -0.179000
     12 C1          1.5910   -0.1310   -0.5390 c3        1 GUF      0.147000
     13 O1          1.1470    0.0740   -1.8580 oh        1 GUF     -0.372000
     14 H2         -0.8010   -2.2150    0.5420 h4        1 GUF      0.118000
     15 H3         -1.8360   -0.0840    1.0360 h1        1 GUF      0.147000
     16 H4         -1.0760   -0.5710    2.8740 ho        1 GUF      0.199000
     17 H5         -0.4720    1.8240    1.1510 h1        1 GUF      0.113000
     18 H6         -1.3430    2.2370   -0.6860 ho        1 GUF      0.247000
     19 H7          1.4740    1.8540   -0.1450 h1        1 GUF      0.141000
     20 H8          2.5680   -0.1870   -0.5410 h2        1 GUF      0.106000
     21 H9          1.8500    0.1760   -2.3960 ho        1 GUF      0.263000
@<TRIPOS>BOND
     1    1    2 1   
     2    2    3 1   
     3    4    5 1   
     4    4    6 1   
     5    4   14 1   
     6    5   12 1   
     7    6    7 1   
     8    6    8 1   
     9    6   15 1   
    10    7   16 1   
    11    8    9 1   
    12    8   10 1   
    13    8   17 1   
    14    9   18 1   
    15   10   11 1   
    16   10   12 1   
    17   10   19 1   
    18   12   13 1   
    19   12   20 1   
    20   13   21 1   
@<TRIPOS>SUBSTRUCTURE
     1 GUF         1 TEMP              0 ****  ****    0 ROOT
