@<TRIPOS>MOLECULE
GUI
   82    86     1     0     0
SMALL
bcc


@<TRIPOS>ATOM
      1 C1          0.0360   -0.8620   -0.5110 ca        1 GUI     -0.333200
      2 C2          1.4280   -0.5360   -0.3750 ca        1 GUI      0.733200
      3 N3          2.0380   -0.5790    0.8460 nb        1 GUI     -0.798000
      4 C4          1.2700   -0.9760    1.9280 ca        1 GUI      0.893900
      5 N5         -0.0830   -1.2900    1.8700 nb        1 GUI     -0.745000
      6 C6         -0.6520   -1.2230    0.6610 ca        1 GUI      0.492200
      7 N7          1.9670   -1.1420    3.1480 nh        1 GUI     -0.671300
      8 C8          1.2640   -1.0890    4.3790 ca        1 GUI      0.055600
      9 C9          0.3530   -2.0960    4.7380 ca        1 GUI     -0.045000
     10 C10        -0.2790   -2.0940    5.9760 ca        1 GUI     -0.210000
     11 C11        -0.0330   -1.0780    6.9220 ca        1 GUI      0.173600
     12 C12         0.8870   -0.0590    6.5790 ca        1 GUI     -0.225000
     13 C13         1.5140   -0.0620    5.3350 ca        1 GUI      0.124100
     14 O14         2.4300    0.9000    4.9460 os        1 GUI     -0.343900
     15 C15         2.6400    1.9850    5.8430 c3        1 GUI      0.118700
     16 N16        -0.7230   -0.9980    8.1560 nh        1 GUI     -0.639000
     17 C17        -1.8560   -1.8920    8.3220 c3        1 GUI      0.188300
     18 C18        -2.6860   -1.5780    9.5660 c3        1 GUI     -0.082400
     19 C19        -1.8040   -1.5980   10.8220 c3        1 GUI      0.188500
     20 C20        -0.6730   -0.5750   10.6050 c3        1 GUI     -0.082400
     21 C21         0.1170   -0.9090    9.3420 c3        1 GUI      0.188300
     22 N22        -2.5170   -1.3220   12.0760 n3        1 GUI     -0.732600
     23 C23        -1.7910   -1.8460   13.2260 c3        1 GUI      0.170800
     24 C24        -2.4960   -1.5620   14.5660 c3        1 GUI      0.167300
     25 N25        -3.8890   -1.9850   14.5690 n3        1 GUI     -0.732600
     26 C26        -4.6180   -1.4650   13.4220 c3        1 GUI      0.167300
     27 C27        -3.9110   -1.7370   12.0800 c3        1 GUI      0.170800
     28 C28        -4.5510   -1.6990   15.8220 c3        1 GUI      0.157100
     29 N29         2.1400   -0.1210   -1.5000 nh        1 GUI     -0.780300
     30 C30         3.5340   -0.0190   -1.5880 ca        1 GUI      0.296600
     31 C31         4.1070    1.0210   -2.3690 ca        1 GUI     -0.426500
     32 C32         5.5090    1.0660   -2.4830 ca        1 GUI     -0.019000
     33 C33         6.3320    0.1480   -1.8520 ca        1 GUI     -0.176000
     34 C34         5.7580   -0.8670   -1.0810 ca        1 GUI     -0.048000
     35 C35         4.3810   -0.9610   -0.9540 ca        1 GUI     -0.165000
     36 S36         3.2510    2.2080   -3.1870 sy        1 GUI      1.368300
     37 C37         2.8930    3.2990   -1.8930 c3        1 GUI     -0.266900
     38 C38         4.1200    4.0380   -1.4110 c3        1 GUI     -0.075100
     39 C39         1.8340    4.2840   -2.3370 c3        1 GUI     -0.075100
     40 O40         4.0780    2.8440   -4.1290 o         1 GUI     -0.659300
     41 O41         2.0410    1.6750   -3.6780 o         1 GUI     -0.659300
     42 CL         -0.7670   -0.8170   -1.9930 cl        1 GUI     -0.054400
     43 H6         -1.7300   -1.4750    0.6260 h4        1 GUI      0.040100
     44 H29         1.6010    0.0920   -2.3210 hn        1 GUI      0.495800
     45 H7          2.8460   -0.6560    3.1820 hn        1 GUI      0.442800
     46 H9          0.1300   -2.9100    4.0290 ha        1 GUI      0.155000
     47 H10        -0.9790   -2.9130    6.1970 ha        1 GUI      0.138000
     48 H12         1.0870    0.7570    7.2890 ha        1 GUI      0.145000
     49 H151        3.3660    2.6360    5.2920 h1        1 GUI      0.047367
     50 H152        3.0870    1.6210    6.8000 h1        1 GUI      0.047367
     51 H153        1.6860    2.5320    6.0350 h1        1 GUI      0.047367
     52 H171       -1.5210   -2.9710    8.3800 h1        1 GUI      0.038700
     53 H172       -2.5190   -1.7820    7.4170 h1        1 GUI      0.038700
     54 H211        0.8830   -0.1010    9.1790 h1        1 GUI      0.038700
     55 H212        0.6720   -1.8790    9.5100 h1        1 GUI      0.038700
     56 H181       -3.4890   -2.3570    9.6330 hc        1 GUI      0.057700
     57 H182       -3.1750   -0.5750    9.4570 hc        1 GUI      0.057700
     58 H19        -1.3260   -2.6280   10.8700 h1        1 GUI      0.023700
     59 H201       -1.1070    0.4550   10.5320 hc        1 GUI      0.057700
     60 H202        0.0420   -0.5880   11.4670 hc        1 GUI      0.057700
     61 H231       -1.6200   -2.9600   13.1400 h1        1 GUI      0.036450
     62 H232       -0.7840   -1.3450   13.2600 h1        1 GUI      0.036450
     63 H271       -4.4560   -1.1390   11.2960 h1        1 GUI      0.036450
     64 H272       -4.0240   -2.8330   11.8310 h1        1 GUI      0.036450
     65 H241       -2.3920   -0.4630   14.8040 h1        1 GUI      0.037200
     66 H242       -1.9580   -2.1420   15.3670 h1        1 GUI      0.037200
     67 H261       -4.8010   -0.3540   13.5140 h1        1 GUI      0.037200
     68 H262       -5.6190   -1.9790   13.3910 h1        1 GUI      0.037200
     69 H281       -5.5880   -2.1240   15.7860 h1        1 GUI      0.032367
     70 H282       -4.6230   -0.6000   16.0490 h1        1 GUI      0.032367
     71 H283       -3.9840   -2.1980   16.6510 h1        1 GUI      0.032367
     72 H35         3.9530   -1.7840   -0.3600 ha        1 GUI      0.160000
     73 H32         5.9600    1.8610   -3.1090 ha        1 GUI      0.162000
     74 H33         7.4240    0.2130   -1.9600 ha        1 GUI      0.144000
     75 H34         6.4020   -1.6070   -0.5800 ha        1 GUI      0.140000
     76 H37         2.4750    2.7270   -1.0170 h1        1 GUI      0.114700
     77 H381        4.8800    3.3170   -1.0210 hc        1 GUI      0.051700
     78 H382        4.5730    4.6250   -2.2490 hc        1 GUI      0.051700
     79 H383        3.8500    4.7450   -0.5910 hc        1 GUI      0.051700
     80 H391        0.9240    3.7420   -2.6990 hc        1 GUI      0.051700
     81 H392        1.5380    4.9430   -1.4860 hc        1 GUI      0.051700
     82 H393        2.2240    4.9310   -3.1610 hc        1 GUI      0.051700
@<TRIPOS>BOND
     1    1    2 ar  
     2    1    6 ar  
     3    1   42 1   
     4    2    3 ar  
     5    2   29 1   
     6    3    4 ar  
     7    4    5 ar  
     8    4    7 1   
     9    5    6 ar  
    10    6   43 1   
    11    7    8 1   
    12    7   45 1   
    13    8    9 ar  
    14    8   13 ar  
    15    9   10 ar  
    16    9   46 1   
    17   10   11 ar  
    18   10   47 1   
    19   11   12 ar  
    20   11   16 1   
    21   12   13 ar  
    22   12   48 1   
    23   13   14 1   
    24   14   15 1   
    25   15   49 1   
    26   15   50 1   
    27   15   51 1   
    28   16   17 1   
    29   16   21 1   
    30   17   18 1   
    31   17   52 1   
    32   17   53 1   
    33   18   19 1   
    34   18   56 1   
    35   18   57 1   
    36   19   20 1   
    37   19   22 1   
    38   19   58 1   
    39   20   21 1   
    40   20   59 1   
    41   20   60 1   
    42   21   54 1   
    43   21   55 1   
    44   22   23 1   
    45   22   27 1   
    46   23   24 1   
    47   23   61 1   
    48   23   62 1   
    49   24   25 1   
    50   24   65 1   
    51   24   66 1   
    52   25   26 1   
    53   25   28 1   
    54   26   27 1   
    55   26   67 1   
    56   26   68 1   
    57   27   63 1   
    58   27   64 1   
    59   28   69 1   
    60   28   70 1   
    61   28   71 1   
    62   29   30 1   
    63   29   44 1   
    64   30   31 ar  
    65   30   35 ar  
    66   31   32 ar  
    67   31   36 1   
    68   32   33 ar  
    69   32   73 1   
    70   33   34 ar  
    71   33   74 1   
    72   34   35 ar  
    73   34   75 1   
    74   35   72 1   
    75   36   37 1   
    76   36   40 2   
    77   36   41 2   
    78   37   38 1   
    79   37   39 1   
    80   37   76 1   
    81   38   77 1   
    82   38   78 1   
    83   38   79 1   
    84   39   80 1   
    85   39   81 1   
    86   39   82 1   
@<TRIPOS>SUBSTRUCTURE
     1 GUI         1 TEMP              0 ****  ****    0 ROOT
