@<TRIPOS>MOLECULE
GUI
   82    78     1     0     0
SMALL
bcc


@<TRIPOS>ATOM
      1 C1          0.1870    1.5120   -4.6690 c1        1 GUI     -0.274000
      2 C2          1.1610    0.5750   -4.8790 c1        1 GUI      0.209000
      3 N3          1.6840   -0.0980   -3.8290 n1        1 GUI     -0.273000
      4 C4          1.2350    0.1620   -2.5510 c1        1 GUI      0.174000
      5 N5          0.2660    1.0950   -2.3460 n1        1 GUI     -0.218000
      6 C6         -0.2580    1.7670   -3.3900 c1        1 GUI      0.025000
      7 N7          1.7660   -0.5730   -1.4370 n3        1 GUI     -0.192000
      8 C8          1.0710   -0.5080   -0.0940 c2        1 GUI     -0.026000
      9 C9         -0.0560   -1.2850    0.1400 c2        1 GUI     -0.045000
     10 C10        -0.6970   -1.2270    1.3800 c1        1 GUI     -0.210000
     11 C11        -0.1990   -0.3780    2.3930 c1        1 GUI      0.092000
     12 C12         0.9240    0.3960    2.1560 c1        1 GUI     -0.225000
     13 C13         1.5660    0.3370    0.9140 c1        1 GUI      0.079000
     14 O14         2.6730    1.1950    0.6400 os        1 GUI     -0.227000
     15 C15         3.7640    1.0490    1.5550 c3        1 GUI     -0.071000
     16 N16        -0.9010   -0.2820    3.6860 n3        1 GUI     -0.241000
     17 C17        -2.2920    0.1350    3.4590 c3        1 GUI     -0.048500
     18 C18        -3.1250    0.1210    4.7410 c3        1 GUI     -0.161000
     19 C19        -3.0300   -1.1760    5.4620 c3        1 GUI     -0.009000
     20 C20        -1.6180   -1.5960    5.6870 c3        1 GUI     -0.161000
     21 C21        -0.7970   -1.5770    4.4080 c3        1 GUI     -0.048500
     22 N22        -3.7060   -1.0490    6.7710 n3        1 GUI     -0.258000
     23 C23        -3.8940   -2.3220    7.3280 c3        1 GUI     -0.066000
     24 C24        -4.7260   -2.2770    8.6190 c3        1 GUI     -0.069500
     25 N25        -5.9710   -1.5500    8.4470 n3        1 GUI     -0.258000
     26 C26        -5.7810   -0.2750    7.8860 c3        1 GUI     -0.069500
     27 C27        -4.9560   -0.3200    6.6050 c3        1 GUI     -0.066000
     28 C28        -6.6270   -1.4260    9.6960 c3        1 GUI     -0.119000
     29 N29         1.5010    0.1510   -6.2860 n3        1 GUI     -0.291000
     30 C30         1.7060    1.1460   -7.3060 c2        1 GUI      0.224000
     31 C31         2.9130    1.2150   -7.9670 c2        1 GUI     -0.879000
     32 C32         3.0860    2.1100   -8.9960 c1        1 GUI     -0.024000
     33 C33         2.0270    2.9580   -9.3780 c1        1 GUI     -0.111000
     34 C34         0.8140    2.8920   -8.7180 c1        1 GUI     -0.111000
     35 C35         0.6420    1.9960   -7.6880 c1        1 GUI     -0.165000
     36 S36         4.2510    0.0720   -7.5310 s4        1 GUI      2.047800
     37 C37         5.8400    0.6740   -8.1960 c2        1 GUI     -0.763000
     38 C38         6.4720    1.6250   -7.2150 c3        1 GUI     -0.195500
     39 C39         6.7410   -0.4710   -8.4240 c3        1 GUI     -0.195500
     40 O40         4.3240   -0.1330   -6.0880 o         1 GUI     -0.547400
     41 O41         3.9660   -1.2830   -7.9980 o         1 GUI     -0.547400
     42 CL         -0.5830    2.2490   -6.0030 cl        1 GUI      0.026000
     43 H6         -0.9690    2.4510   -3.2350 ha        1 GUI      0.177000
     44 H29         1.5960   -0.7490   -6.4890 hn        1 GUI      0.290000
     45 H7          2.5020   -1.1090   -1.5490 hn        1 GUI      0.237000
     46 H9         -0.3870   -1.8520   -0.5390 ha        1 GUI      0.155000
     47 H10        -1.4550   -1.7490    1.5400 ha        1 GUI      0.138000
     48 H12         1.2780    0.9980    2.8750 ha        1 GUI      0.145000
     49 H151        3.9580    0.1120    1.6780 h1        1 GUI      0.086333
     50 H152        4.5580    1.5050    1.1930 h1        1 GUI      0.086333
     51 H153        3.5320    1.4320    2.3810 h1        1 GUI      0.086333
     52 H171       -2.2970    1.0670    3.0790 h1        1 GUI      0.078000
     53 H172       -2.7040   -0.4810    2.8050 h1        1 GUI      0.078000
     54 H211       -1.1030   -2.2730    3.8370 h1        1 GUI      0.078000
     55 H212        0.1170   -1.7360    4.6270 h1        1 GUI      0.078000
     56 H181       -2.8230    0.8130    5.3120 hc        1 GUI      0.097000
     57 H182       -4.1160    0.2990    4.4980 hc        1 GUI      0.097000
     58 H19        -3.4620   -1.8300    4.9610 h1        1 GUI      0.063000
     59 H201       -1.6120   -2.5600    6.0770 hc        1 GUI      0.097000
     60 H202       -1.2150   -1.0040    6.3220 hc        1 GUI      0.097000
     61 H231       -4.3740   -2.9160    6.6430 h1        1 GUI      0.075750
     62 H232       -3.0230   -2.7100    7.5270 h1        1 GUI      0.075750
     63 H271       -4.7590    0.5750    6.3340 h1        1 GUI      0.075750
     64 H272       -5.4720   -0.7420    5.9220 h1        1 GUI      0.075750
     65 H241       -4.9250   -3.1670    8.8900 h1        1 GUI      0.076500
     66 H242       -4.1760   -1.8220    9.3550 h1        1 GUI      0.076500
     67 H261       -6.7000    0.1380    7.6760 h1        1 GUI      0.076500
     68 H262       -5.3140    0.2990    8.5460 h1        1 GUI      0.076500
     69 H281       -7.4910   -0.9290    9.5720 h1        1 GUI      0.071667
     70 H282       -6.8190   -2.3530   10.0700 h1        1 GUI      0.071667
     71 H283       -6.0290   -0.9130   10.3450 h1        1 GUI      0.071667
     72 H35        -0.2470    1.9450   -7.2030 ha        1 GUI      0.160000
     73 H32         3.9830    2.1590   -9.4850 ha        1 GUI      0.157000
     74 H33         2.1420    3.5570  -10.0650 ha        1 GUI      0.142000
     75 H34         0.1100    3.4550   -8.9720 ha        1 GUI      0.142000
     76 H37         5.6810    1.1430   -9.0530 ha        1 GUI      0.147000
     77 H381        6.5350    1.2160   -6.3770 hc        1 GUI      0.092167
     78 H382        5.9340    2.4130   -7.1450 hc        1 GUI      0.092167
     79 H383        7.3540    1.8630   -7.5240 hc        1 GUI      0.092167
     80 H391        6.3170   -1.1030   -9.0320 hc        1 GUI      0.092167
     81 H392        7.5790   -0.1510   -8.8160 hc        1 GUI      0.092167
     82 H393        6.9300   -0.9190   -7.5640 hc        1 GUI      0.092167
@<TRIPOS>BOND
     1    1    6 1   
     2    1   42 1   
     3    2    3 1   
     4    2   29 1   
     5    4    5 1   
     6    4    7 1   
     7    6   43 1   
     8    7    8 1   
     9    7   45 1   
    10    8    9 1   
    11    8   13 1   
    12    9   10 1   
    13    9   46 1   
    14   10   47 1   
    15   11   12 1   
    16   11   16 1   
    17   12   48 1   
    18   13   14 1   
    19   14   15 1   
    20   15   49 1   
    21   15   50 1   
    22   15   51 1   
    23   16   17 1   
    24   16   21 1   
    25   17   18 1   
    26   17   52 1   
    27   17   53 1   
    28   18   19 1   
    29   18   56 1   
    30   18   57 1   
    31   19   20 1   
    32   19   22 1   
    33   19   58 1   
    34   20   21 1   
    35   20   59 1   
    36   20   60 1   
    37   21   54 1   
    38   21   55 1   
    39   22   23 1   
    40   22   27 1   
    41   23   24 1   
    42   23   61 1   
    43   23   62 1   
    44   24   25 1   
    45   24   65 1   
    46   24   66 1   
    47   25   26 1   
    48   25   28 1   
    49   26   27 1   
    50   26   67 1   
    51   26   68 1   
    52   27   63 1   
    53   27   64 1   
    54   28   69 1   
    55   28   70 1   
    56   28   71 1   
    57   29   30 1   
    58   29   44 1   
    59   30   31 1   
    60   30   35 1   
    61   31   32 1   
    62   31   36 1   
    63   32   73 1   
    64   33   34 1   
    65   33   74 1   
    66   34   75 1   
    67   35   72 1   
    68   36   40 1   
    69   36   41 1   
    70   37   38 1   
    71   37   39 1   
    72   37   76 1   
    73   38   77 1   
    74   38   78 1   
    75   38   79 1   
    76   39   80 1   
    77   39   81 1   
    78   39   82 1   
@<TRIPOS>SUBSTRUCTURE
     1 GUI         1 TEMP              0 ****  ****    0 ROOT
