@<TRIPOS>MOLECULE
GUI
   82    86     1     0     0
SMALL
bcc


@<TRIPOS>ATOM
      1 C1          0.0530   -0.8930   -0.5090 ca        1 GUI     -0.333200
      2 C2          1.4410   -0.5520   -0.3730 ca        1 GUI      0.734200
      3 N3          2.0500   -0.5860    0.8500 nb        1 GUI     -0.798000
      4 C4          1.2850   -0.9870    1.9320 ca        1 GUI      0.893900
      5 N5         -0.0650   -1.3150    1.8730 nb        1 GUI     -0.745000
      6 C6         -0.6330   -1.2570    0.6630 ca        1 GUI      0.492200
      7 N7          1.9820   -1.1420    3.1540 nu        1 GUI     -0.671300
      8 C8          1.2770   -1.0910    4.3830 ca        1 GUI      0.055600
      9 C9          0.3740   -2.1030    4.7450 ca        1 GUI     -0.045000
     10 C10        -0.2600   -2.1020    5.9820 ca        1 GUI     -0.210000
     11 C11        -0.0240   -1.0790    6.9240 ca        1 GUI      0.173600
     12 C12         0.8880   -0.0540    6.5790 ca        1 GUI     -0.225000
     13 C13         1.5170   -0.0580    5.3360 ca        1 GUI      0.124100
     14 O14         2.4250    0.9110    4.9440 os        1 GUI     -0.343900
     15 C15         2.6260    2.0000    5.8370 c3        1 GUI      0.118700
     16 N16        -0.7170   -1.0000    8.1570 nh        1 GUI     -0.639000
     17 C17        -1.8430   -1.9020    8.3240 c3        1 GUI      0.188300
     18 C18        -2.6780   -1.5890    9.5650 c3        1 GUI     -0.082400
     19 C19        -1.7980   -1.5970   10.8220 c3        1 GUI      0.188500
     20 C20        -0.6750   -0.5670   10.6040 c3        1 GUI     -0.082400
     21 C21         0.1190   -0.9000    9.3440 c3        1 GUI      0.188300
     22 N22        -2.5170   -1.3210   12.0740 n3        1 GUI     -0.732600
     23 C23        -1.7900   -1.8350   13.2280 c3        1 GUI      0.170800
     24 C24        -2.4990   -1.5500   14.5650 c3        1 GUI      0.167300
     25 N25        -3.8890   -1.9830   14.5680 n3        1 GUI     -0.732600
     26 C26        -4.6190   -1.4730   13.4170 c3        1 GUI      0.167300
     27 C27        -3.9070   -1.7460   12.0770 c3        1 GUI      0.170800
     28 C28        -4.5550   -1.6960   15.8170 c3        1 GUI      0.157100
     29 N29         2.1500   -0.1340   -1.4970 nu        1 GUI     -0.780300
     30 C30         3.5430   -0.0160   -1.5840 ca        1 GUI      0.296600
     31 C31         4.1060    1.0280   -2.3670 ca        1 GUI     -0.426500
     32 C32         5.5080    1.0880   -2.4790 ca        1 GUI     -0.019000
     33 C33         6.3390    0.1810   -1.8450 ca        1 GUI     -0.176000
     34 C34         5.7750   -0.8390   -1.0720 ca        1 GUI     -0.048000
     35 C35         4.3990   -0.9470   -0.9470 ca        1 GUI     -0.165000
     36 S36         3.2380    2.2040   -3.1890 sy        1 GUI      1.368300
     37 C37         2.8670    3.2930   -1.8980 c3        1 GUI     -0.266900
     38 C38         4.0840    4.0470   -1.4170 c3        1 GUI     -0.075100
     39 C39         1.7960    4.2660   -2.3450 c3        1 GUI     -0.075100
     40 O40         4.0590    2.8460   -4.1310 o         1 GUI     -0.659300
     41 O41         2.0350    1.6560   -3.6800 o         1 GUI     -0.659300
     42 Cl         -0.7490   -0.8600   -1.9930 cl        1 GUI     -0.054400
     43 H6         -1.7080   -1.5200    0.6270 h4        1 GUI      0.040100
     44 H29         1.6100    0.0710   -2.3210 hn        1 GUI      0.495800
     45 H7          2.8560   -0.6480    3.1870 hn        1 GUI      0.441800
     46 H9          0.1590   -2.9220    4.0390 ha        1 GUI      0.155000
     47 H10        -0.9540   -2.9260    6.2050 ha        1 GUI      0.138000
     48 H12         1.0800    0.7660    7.2850 ha        1 GUI      0.145000
     49 H151        1.6670    2.5410    6.0260 h1        1 GUI      0.047367
     50 H152        3.0740    1.6430    6.7960 h1        1 GUI      0.047367
     51 H153        3.3480    2.6550    5.2850 h1        1 GUI      0.047367
     52 H171       -2.5050   -1.8010    7.4170 h1        1 GUI      0.038700
     53 H172       -1.5000   -2.9780    8.3880 h1        1 GUI      0.038700
     54 H211        0.8800   -0.0870    9.1790 h1        1 GUI      0.038700
     55 H212        0.6820   -1.8650    9.5170 h1        1 GUI      0.038700
     56 H181       -3.1750   -0.5910    9.4510 hc        1 GUI      0.057700
     57 H182       -3.4760   -2.3740    9.6340 hc        1 GUI      0.057700
     58 H19        -1.3130   -2.6230   10.8760 h1        1 GUI      0.023700
     59 H201       -1.1160    0.4600   10.5250 hc        1 GUI      0.057700
     60 H202        0.0390   -0.5700   11.4670 hc        1 GUI      0.057700
     61 H231       -0.7860   -1.3270   13.2620 h1        1 GUI      0.036450
     62 H232       -1.6100   -2.9480   13.1470 h1        1 GUI      0.036450
     63 H271       -4.4550   -1.1550   11.2900 h1        1 GUI      0.036450
     64 H272       -4.0130   -2.8430   11.8320 h1        1 GUI      0.036450
     65 H241       -1.9590   -2.1230   15.3690 h1        1 GUI      0.037200
     66 H242       -2.4030   -0.4500   14.7990 h1        1 GUI      0.037200
     67 H261       -5.6170   -1.9930   13.3850 h1        1 GUI      0.037200
     68 H262       -4.8100   -0.3630   13.5030 h1        1 GUI      0.037200
     69 H281       -5.5900   -2.1270   15.7810 h1        1 GUI      0.032367
     70 H282       -3.9870   -2.1870   16.6500 h1        1 GUI      0.032367
     71 H283       -4.6350   -0.5960   16.0400 h1        1 GUI      0.032367
     72 H35         3.9800   -1.7730   -0.3510 ha        1 GUI      0.160000
     73 H32         5.9500    1.8860   -3.1060 ha        1 GUI      0.162000
     74 H33         7.4310    0.2570   -1.9510 ha        1 GUI      0.144000
     75 H34         6.4270   -1.5700   -0.5680 ha        1 GUI      0.140000
     76 H37         2.4540    2.7190   -1.0210 h1        1 GUI      0.114700
     77 H381        4.5320    4.6380   -2.2550 hc        1 GUI      0.051700
     78 H382        4.8530    3.3370   -1.0240 hc        1 GUI      0.051700
     79 H383        3.8060    4.7530   -0.5980 hc        1 GUI      0.051700
     80 H391        2.1800    4.9150   -3.1700 hc        1 GUI      0.051700
     81 H392        1.4920    4.9230   -1.4960 hc        1 GUI      0.051700
     82 H393        0.8940    3.7130   -2.7060 hc        1 GUI      0.051700
@<TRIPOS>BOND
     1    1    2 ar  
     2    1    6 ar  
     3    1   42 1   
     4    2    3 ar  
     5    2   29 1   
     6    3    4 ar  
     7    4    5 ar  
     8    4    7 1   
     9    5    6 ar  
    10    6   43 1   
    11    7    8 1   
    12    7   45 1   
    13    8    9 ar  
    14    8   13 ar  
    15    9   10 ar  
    16    9   46 1   
    17   10   11 ar  
    18   10   47 1   
    19   11   12 ar  
    20   11   16 1   
    21   12   13 ar  
    22   12   48 1   
    23   13   14 1   
    24   14   15 1   
    25   15   49 1   
    26   15   50 1   
    27   15   51 1   
    28   16   17 1   
    29   16   21 1   
    30   17   18 1   
    31   17   52 1   
    32   17   53 1   
    33   18   19 1   
    34   18   56 1   
    35   18   57 1   
    36   19   20 1   
    37   19   22 1   
    38   19   58 1   
    39   20   21 1   
    40   20   59 1   
    41   20   60 1   
    42   21   54 1   
    43   21   55 1   
    44   22   23 1   
    45   22   27 1   
    46   23   24 1   
    47   23   61 1   
    48   23   62 1   
    49   24   25 1   
    50   24   65 1   
    51   24   66 1   
    52   25   26 1   
    53   25   28 1   
    54   26   27 1   
    55   26   67 1   
    56   26   68 1   
    57   27   63 1   
    58   27   64 1   
    59   28   69 1   
    60   28   70 1   
    61   28   71 1   
    62   29   30 1   
    63   29   44 1   
    64   30   31 ar  
    65   30   35 ar  
    66   31   32 ar  
    67   31   36 1   
    68   32   33 ar  
    69   32   73 1   
    70   33   34 ar  
    71   33   74 1   
    72   34   35 ar  
    73   34   75 1   
    74   35   72 1   
    75   36   37 1   
    76   36   40 2   
    77   36   41 2   
    78   37   38 1   
    79   37   39 1   
    80   37   76 1   
    81   38   77 1   
    82   38   78 1   
    83   38   79 1   
    84   39   80 1   
    85   39   81 1   
    86   39   82 1   
@<TRIPOS>SUBSTRUCTURE
     1 GUI         1 TEMP              0 ****  ****    0 ROOT
