@<TRIPOS>MOLECULE
GUI
   82    86     1     0     0
SMALL
bcc


@<TRIPOS>ATOM
      1 C1         -3.6090    2.4390    1.1060 ca        1 GUI     -0.333200
      2 C2         -4.0310    1.0690    1.0260 ca        1 GUI      0.733200
      3 N3         -3.1140    0.0560    1.0420 nb        1 GUI     -0.798000
      4 C4         -1.7800    0.4060    1.1680 ca        1 GUI      0.893900
      5 N5         -1.3040    1.7110    1.2340 nb        1 GUI     -0.745000
      6 C6         -2.2270    2.6770    1.2010 ca        1 GUI      0.492200
      7 N7         -0.8750   -0.6710    1.3190 nh        1 GUI     -0.671300
      8 C8          0.4960   -0.4940    0.9990 ca        1 GUI      0.055600
      9 C9          1.3210    0.3370    1.7730 ca        1 GUI     -0.045000
     10 C10         2.6820    0.4530    1.5150 ca        1 GUI     -0.210000
     11 C11         3.2890   -0.2590    0.4600 ca        1 GUI      0.173600
     12 C12         2.4740   -1.1060   -0.3270 ca        1 GUI     -0.225000
     13 C13         1.1100   -1.2150   -0.0670 ca        1 GUI      0.124100
     14 O14         0.2630   -2.0340   -0.7940 os        1 GUI     -0.343900
     15 C15         0.8260   -2.7040   -1.9150 c3        1 GUI      0.118700
     16 N16         4.6530   -0.0980    0.1140 nh        1 GUI     -0.639000
     17 C17         5.3590    0.9950    0.7590 c3        1 GUI      0.188300
     18 C18         6.7400    1.2510    0.1570 c3        1 GUI     -0.082400
     19 C19         7.5890   -0.0270    0.1950 c3        1 GUI      0.188500
     20 C20         6.8160   -1.1170   -0.5700 c3        1 GUI     -0.082400
     21 C21         5.4340   -1.3250    0.0460 c3        1 GUI      0.188300
     22 N22         8.9460    0.1220   -0.3490 n3        1 GUI     -0.732600
     23 C23         9.8410   -0.9070    0.1640 c3        1 GUI      0.170800
     24 C24        11.2710   -0.7990   -0.3970 c3        1 GUI      0.167300
     25 N25        11.8360    0.5330   -0.2410 n3        1 GUI     -0.732600
     26 C26        10.9460    1.5650   -0.7520 c3        1 GUI      0.167300
     27 C27         9.5100    1.4540   -0.2020 c3        1 GUI      0.170800
     28 C28        13.1710    0.6340   -0.7870 c3        1 GUI      0.157100
     29 N29        -5.3870    0.7840    0.8770 nh        1 GUI     -0.780300
     30 C30        -5.9770   -0.4760    1.0400 ca        1 GUI      0.296600
     31 C31        -7.0750   -0.8420    0.2150 ca        1 GUI     -0.426500
     32 C32        -7.6810   -2.0920    0.4390 ca        1 GUI     -0.019000
     33 C33        -7.2330   -2.9670    1.4130 ca        1 GUI     -0.176000
     34 C34        -6.1480   -2.5990    2.2150 ca        1 GUI     -0.048000
     35 C35        -5.5310   -1.3710    2.0430 ca        1 GUI     -0.165000
     36 S36        -7.7290    0.1000   -1.0090 sy        1 GUI      1.368300
     37 C37        -6.5990   -0.1960   -2.2840 c3        1 GUI     -0.266900
     38 C38        -6.7140   -1.5970   -2.8380 c3        1 GUI     -0.075100
     39 C39        -6.8020    0.8180   -3.3890 c3        1 GUI     -0.075100
     40 O40        -8.9950   -0.3880   -1.3740 o         1 GUI     -0.659300
     41 O41        -7.6630    1.4620   -0.6520 o         1 GUI     -0.659300
     42 CL         -4.6990    3.7270    1.0830 cl        1 GUI     -0.054400
     43 H6         -1.8370    3.7130    1.2550 h4        1 GUI      0.040100
     44 H29        -5.9900    1.5600    0.6630 hn        1 GUI      0.495800
     45 H7         -1.2370   -1.5520    1.0020 hn        1 GUI      0.441800
     46 H9          0.8880    0.9130    2.6080 ha        1 GUI      0.155000
     47 H10         3.2740    1.1190    2.1610 ha        1 GUI      0.138000
     48 H12         2.9150   -1.6610   -1.1680 ha        1 GUI      0.145000
     49 H151        1.2430   -1.9710   -2.6480 h1        1 GUI      0.047367
     50 H152        1.6120   -3.4260   -1.5870 h1        1 GUI      0.047367
     51 H153       -0.0490   -3.2480   -2.3550 h1        1 GUI      0.047367
     52 H171        4.7400    1.9290    0.6330 h1        1 GUI      0.038700
     53 H172        5.4830    0.8060    1.8670 h1        1 GUI      0.038700
     54 H211        5.5620   -1.7730    1.0760 h1        1 GUI      0.038700
     55 H212        4.8740   -2.0720   -0.5820 h1        1 GUI      0.038700
     56 H181        6.6370    1.6110   -0.8990 hc        1 GUI      0.057700
     57 H182        7.2200    2.0630    0.7620 hc        1 GUI      0.057700
     58 H19         7.6460   -0.3500    1.2840 h1        1 GUI      0.023700
     59 H201        6.7200   -0.8240   -1.6470 hc        1 GUI      0.057700
     60 H202        7.3590   -2.0950   -0.5240 hc        1 GUI      0.057700
     61 H231        9.8950   -0.8880    1.2930 h1        1 GUI      0.036450
     62 H232        9.4310   -1.9090   -0.1430 h1        1 GUI      0.036450
     63 H271        8.8770    2.1710   -0.7960 h1        1 GUI      0.036450
     64 H272        9.5120    1.7930    0.8750 h1        1 GUI      0.036450
     65 H241       11.9200   -1.5170    0.1770 h1        1 GUI      0.037200
     66 H242       11.2620   -1.1260   -1.4770 h1        1 GUI      0.037200
     67 H261       11.3580    2.5630   -0.4310 h1        1 GUI      0.037200
     68 H262       10.9010    1.5550   -1.8800 h1        1 GUI      0.037200
     69 H281       13.2130    0.4730   -1.8990 h1        1 GUI      0.032367
     70 H282       13.5760    1.6550   -0.5600 h1        1 GUI      0.032367
     71 H283       13.8220   -0.1320   -0.2900 h1        1 GUI      0.032367
     72 H35        -4.6930   -1.0960    2.7030 ha        1 GUI      0.160000
     73 H32        -8.5510   -2.3730   -0.1860 ha        1 GUI      0.162000
     74 H33        -7.7280   -3.9380    1.5600 ha        1 GUI      0.144000
     75 H34        -5.7880   -3.2850    2.9990 ha        1 GUI      0.140000
     76 H37        -5.5470   -0.0690   -1.8990 h1        1 GUI      0.114700
     77 H381       -5.9840   -1.7480   -3.6690 hc        1 GUI      0.051700
     78 H382       -6.5000   -2.3500   -2.0400 hc        1 GUI      0.051700
     79 H383       -7.7440   -1.7740   -3.2360 hc        1 GUI      0.051700
     80 H391       -6.7210    1.8570   -2.9840 hc        1 GUI      0.051700
     81 H392       -6.0270    0.6860   -4.1820 hc        1 GUI      0.051700
     82 H393       -7.8080    0.6860   -3.8580 hc        1 GUI      0.051700
@<TRIPOS>BOND
     1    1    2 ar  
     2    1    6 ar  
     3    1   42 1   
     4    2    3 ar  
     5    2   29 1   
     6    3    4 ar  
     7    4    5 ar  
     8    4    7 1   
     9    5    6 ar  
    10    6   43 1   
    11    7    8 1   
    12    7   45 1   
    13    8    9 ar  
    14    8   13 ar  
    15    9   10 ar  
    16    9   46 1   
    17   10   11 ar  
    18   10   47 1   
    19   11   12 ar  
    20   11   16 1   
    21   12   13 ar  
    22   12   48 1   
    23   13   14 1   
    24   14   15 1   
    25   15   49 1   
    26   15   50 1   
    27   15   51 1   
    28   16   17 1   
    29   16   21 1   
    30   17   18 1   
    31   17   52 1   
    32   17   53 1   
    33   18   19 1   
    34   18   56 1   
    35   18   57 1   
    36   19   20 1   
    37   19   22 1   
    38   19   58 1   
    39   20   21 1   
    40   20   59 1   
    41   20   60 1   
    42   21   54 1   
    43   21   55 1   
    44   22   23 1   
    45   22   27 1   
    46   23   24 1   
    47   23   61 1   
    48   23   62 1   
    49   24   25 1   
    50   24   65 1   
    51   24   66 1   
    52   25   26 1   
    53   25   28 1   
    54   26   27 1   
    55   26   67 1   
    56   26   68 1   
    57   27   63 1   
    58   27   64 1   
    59   28   69 1   
    60   28   70 1   
    61   28   71 1   
    62   29   30 1   
    63   29   44 1   
    64   30   31 ar  
    65   30   35 ar  
    66   31   32 ar  
    67   31   36 1   
    68   32   33 ar  
    69   32   73 1   
    70   33   34 ar  
    71   33   74 1   
    72   34   35 ar  
    73   34   75 1   
    74   35   72 1   
    75   36   37 1   
    76   36   40 2   
    77   36   41 2   
    78   37   38 1   
    79   37   39 1   
    80   37   76 1   
    81   38   77 1   
    82   38   78 1   
    83   38   79 1   
    84   39   80 1   
    85   39   81 1   
    86   39   82 1   
@<TRIPOS>SUBSTRUCTURE
     1 GUI         1 TEMP              0 ****  ****    0 ROOT
