@<TRIPOS>MOLECULE
GUI
   84    88     1     0     0
SMALL
bcc


@<TRIPOS>ATOM
      1 C1         -0.1810    1.8270    1.1910 ca        1 GUI     -0.166200
      2 C2          0.7780    0.7920    1.0380 ca        1 GUI      0.511200
      3 N3          1.7900    0.5930    1.9350 nb        1 GUI     -0.661000
      4 C4          1.8460    1.4690    2.9780 ca        1 GUI      0.742900
      5 N5          0.9900    2.5320    3.2010 nb        1 GUI     -0.596000
      6 C6          0.0030    2.6880    2.3200 ca        1 GUI      0.484200
      7 N7          2.9220    1.2490    4.0030 n4        1 GUI     -0.557100
      8 C8          2.4190    0.5680    5.1820 ca        1 GUI     -0.239400
      9 C9          2.2420   -0.8360    5.1880 ca        1 GUI     -0.026000
     10 C10         1.8210   -1.4880    6.3150 ca        1 GUI     -0.216000
     11 C11         1.5380   -0.7830    7.5410 ca        1 GUI      0.308600
     12 C12         1.6850    0.6360    7.5110 ca        1 GUI     -0.303000
     13 C13         2.1180    1.2950    6.3690 ca        1 GUI      0.253100
     14 O14         2.2960    2.6530    6.2810 os        1 GUI     -0.361900
     15 C15         2.0740    3.4290    7.4650 c3        1 GUI      0.116700
     16 N16         1.2240   -1.4590    8.6850 nh        1 GUI     -0.617000
     17 C17         0.5560   -2.7540    8.6760 c3        1 GUI      0.190300
     18 C18        -0.8940   -2.6890    9.1570 c3        1 GUI     -0.106900
     19 C19        -1.0150   -2.0190   10.5370 c3        1 GUI      0.188500
     20 C20        -0.3010   -0.6560   10.4920 c3        1 GUI     -0.106900
     21 C21         1.1300   -0.8150    9.9870 c3        1 GUI      0.190300
     22 N22        -2.4220   -1.8880   10.9540 n3        1 GUI     -0.724600
     23 C23        -2.5430   -1.1670   12.2160 c3        1 GUI      0.163800
     24 C24        -3.9650   -1.1650   12.8090 c3        1 GUI      0.167300
     25 N25        -4.5440   -2.4970   12.8770 n3        1 GUI     -0.730600
     26 C26        -4.5090   -3.1510   11.5800 c3        1 GUI      0.167300
     27 C27        -3.0950   -3.1830   10.9700 c3        1 GUI      0.163800
     28 C28        -5.8580   -2.5090   13.4790 c3        1 GUI      0.154100
     29 N29         0.6720   -0.1310   -0.1150 n4        1 GUI     -0.645100
     30 C30         1.9560   -0.5890   -0.6840 ca        1 GUI      0.068600
     31 C31         2.4800   -0.0290   -1.8720 ca        1 GUI     -0.312500
     32 C32         3.6160   -0.6480   -2.4100 ca        1 GUI     -0.026000
     33 C33         4.2460   -1.7310   -1.7920 ca        1 GUI     -0.082000
     34 C34         3.7350   -2.2320   -0.6000 ca        1 GUI     -0.058000
     35 C35         2.5840   -1.6670   -0.0430 ca        1 GUI     -0.117000
     36 S36         1.8570    1.2670   -2.8370 sy        1 GUI      1.352300
     37 C37         2.9180    2.5440   -2.4320 c3        1 GUI     -0.272900
     38 C38         4.2890    2.4140   -3.0630 c3        1 GUI     -0.092100
     39 C39         2.2830    3.8500   -2.8840 c3        1 GUI     -0.092100
     40 O40         1.9390    0.9040   -4.1720 o         1 GUI     -0.637300
     41 O41         0.5830    1.5300   -2.2720 o         1 GUI     -0.637300
     42 CL         -1.4600    2.0650    0.1540 cl        1 GUI      0.097600
     43 H6         -0.6920    3.5410    2.5010 h4        1 GUI      0.107100
     44 H29         0.1030    0.3490   -0.8580 hn        1 GUI      0.502800
     45 H7          3.6780    0.6900    3.5850 hn        1 GUI      0.487300
     46 H9          2.4650   -1.4200    4.2790 ha        1 GUI      0.137000
     47 H10         1.7380   -2.5870    6.2780 ha        1 GUI      0.166000
     48 H12         1.4310    1.2370    8.3980 ha        1 GUI      0.172000
     49 H151        1.0040    3.3570    7.7750 h1        1 GUI      0.071367
     50 H152        2.3250    4.4690    7.1300 h1        1 GUI      0.071367
     51 H153        2.7580    3.0950    8.2810 h1        1 GUI      0.071367
     52 H171        1.1490   -3.4300    9.3600 h1        1 GUI      0.070950
     53 H172        0.5640   -3.2070    7.6480 h1        1 GUI      0.070950
     54 H211        1.6990   -1.4810   10.7030 h1        1 GUI      0.070950
     55 H212        1.6480    0.1820    9.9850 h1        1 GUI      0.070950
     56 H181       -1.5260   -2.1420    8.4110 hc        1 GUI      0.069700
     57 H182       -1.2600   -3.7480    9.2120 hc        1 GUI      0.069700
     58 H19        -0.4450   -2.6680   11.2740 h1        1 GUI      0.032700
     59 H201       -0.2380   -0.2190   11.5240 hc        1 GUI      0.069700
     60 H202       -0.8720    0.0580    9.8460 hc        1 GUI      0.069700
     61 H231       -2.2760   -0.0900   12.0190 h1        1 GUI      0.037200
     62 H232       -1.8320   -1.5710   12.9940 h1        1 GUI      0.037200
     63 H271       -2.4860   -3.9600   11.5180 h1        1 GUI      0.037200
     64 H272       -3.2130   -3.5180    9.9010 h1        1 GUI      0.037200
     65 H241       -4.6070   -0.4590   12.2050 h1        1 GUI      0.043700
     66 H242       -3.8960   -0.7600   13.8570 h1        1 GUI      0.043700
     67 H261       -5.2100   -2.6600   10.8430 h1        1 GUI      0.043700
     68 H262       -4.8440   -4.2180   11.7180 h1        1 GUI      0.043700
     69 H281       -6.6230   -1.9340   12.8880 h1        1 GUI      0.040700
     70 H282       -5.7870   -2.0620   14.5050 h1        1 GUI      0.040700
     71 H283       -6.2010   -3.5720   13.5710 h1        1 GUI      0.040700
     72 H35         2.1800   -2.0980    0.8890 ha        1 GUI      0.159000
     73 H32         4.0170   -0.2840   -3.3800 ha        1 GUI      0.191000
     74 H33         5.1370   -2.1890   -2.2570 ha        1 GUI      0.189000
     75 H34         4.2200   -3.0880   -0.0970 ha        1 GUI      0.181000
     76 H37         3.0660    2.6150   -1.3190 h1        1 GUI      0.102700
     77 H381        4.1990    2.1690   -4.1520 hc        1 GUI      0.070700
     78 H382        4.8880    1.6230   -2.5510 hc        1 GUI      0.070700
     79 H383        4.8480    3.3790   -2.9740 hc        1 GUI      0.070700
     80 H391        1.2540    3.9580   -2.4580 hc        1 GUI      0.070700
     81 H392        2.2260    3.8920   -4.0010 hc        1 GUI      0.070700
     82 H393        2.9000    4.7160   -2.5410 hc        1 GUI      0.070700
     83 H72         3.2850    2.1770    4.2900 hn        1 GUI      0.487300
     84 H292        0.1540   -0.9660    0.2030 hn        1 GUI      0.502800
@<TRIPOS>BOND
     1    1    2 ar  
     2    1    6 ar  
     3    1   42 1   
     4    2    3 ar  
     5    2   29 1   
     6    3    4 ar  
     7    4    5 ar  
     8    4    7 1   
     9    5    6 ar  
    10    6   43 1   
    11    7    8 1   
    12    7   45 1   
    13    7   83 1   
    14    8    9 ar  
    15    8   13 ar  
    16    9   10 ar  
    17    9   46 1   
    18   10   11 ar  
    19   10   47 1   
    20   11   12 ar  
    21   11   16 1   
    22   12   13 ar  
    23   12   48 1   
    24   13   14 1   
    25   14   15 1   
    26   15   49 1   
    27   15   50 1   
    28   15   51 1   
    29   16   17 1   
    30   16   21 1   
    31   17   18 1   
    32   17   52 1   
    33   17   53 1   
    34   18   19 1   
    35   18   56 1   
    36   18   57 1   
    37   19   20 1   
    38   19   22 1   
    39   19   58 1   
    40   20   21 1   
    41   20   59 1   
    42   20   60 1   
    43   21   54 1   
    44   21   55 1   
    45   22   23 1   
    46   22   27 1   
    47   23   24 1   
    48   23   61 1   
    49   23   62 1   
    50   24   25 1   
    51   24   65 1   
    52   24   66 1   
    53   25   26 1   
    54   25   28 1   
    55   26   27 1   
    56   26   67 1   
    57   26   68 1   
    58   27   63 1   
    59   27   64 1   
    60   28   69 1   
    61   28   70 1   
    62   28   71 1   
    63   29   30 1   
    64   29   44 1   
    65   29   84 1   
    66   30   31 ar  
    67   30   35 ar  
    68   31   32 ar  
    69   31   36 1   
    70   32   33 ar  
    71   32   73 1   
    72   33   34 ar  
    73   33   74 1   
    74   34   35 ar  
    75   34   75 1   
    76   35   72 1   
    77   36   37 1   
    78   36   40 2   
    79   36   41 2   
    80   37   38 1   
    81   37   39 1   
    82   37   76 1   
    83   38   77 1   
    84   38   78 1   
    85   38   79 1   
    86   39   80 1   
    87   39   81 1   
    88   39   82 1   
@<TRIPOS>SUBSTRUCTURE
     1 GUI         1 TEMP              0 ****  ****    0 ROOT
