@<TRIPOS>MOLECULE
GUL
   23    23     1     0     0
SMALL
bcc


@<TRIPOS>ATOM
      1 C5          1.7560   -2.6840   -1.0650 c3        1 GUL      0.297100
      2 C2         -0.2850   -0.5940   -0.8180 c3        1 GUL      0.061100
      3 F1          1.4210   -3.3240   -2.2370 f         1 GUL     -0.225300
      4 O2         -1.4040    0.0830   -1.3360 oh        1 GUL     -0.571800
      5 C3         -0.6350   -2.0330   -0.4100 c3        1 GUL      0.080100
      6 O3         -1.3500   -2.6820   -1.4390 oh        1 GUL     -0.584800
      7 C4          0.6220   -2.8150   -0.0070 c3        1 GUL      0.063100
      8 O4          1.0940   -2.4100    1.2600 oh        1 GUL     -0.581800
      9 C6          3.1220   -3.1790   -0.4970 c3        1 GUL      0.136400
     10 O6          2.9570   -4.3230    0.2990 oh        1 GUL     -0.584800
     11 O           1.9870   -1.3300   -1.4410 os        1 GUL     -0.458600
     12 C1          0.8690   -0.5640   -1.8530 c3        1 GUL      0.329400
     13 F2          0.4890   -1.0690   -3.0730 f         1 GUL     -0.238300
     14 H2          0.0300    0.0010    0.0840 h1        1 GUL      0.094700
     15 HO2        -1.8220   -0.5040   -1.9860 ho        1 GUL      0.427000
     16 H3         -1.3550   -2.0080    0.4590 h1        1 GUL      0.112700
     17 HO3        -0.7480   -2.8160   -2.1870 ho        1 GUL      0.424000
     18 H4          0.3660   -3.9080    0.1120 h1        1 GUL      0.124700
     19 HO4         1.3670   -1.4850    1.1860 ho        1 GUL      0.412000
     20 H61         3.5890   -2.3360    0.0740 h1        1 GUL      0.075700
     21 H62         3.7790   -3.4940   -1.3500 h1        1 GUL      0.075700
     22 HO6         2.5750   -4.0460    1.1440 ho        1 GUL      0.420000
     23 H1          1.2760    0.4830   -1.9730 h2        1 GUL      0.109700
@<TRIPOS>BOND
     1    1    3 1   
     2    1    7 1   
     3    1    9 1   
     4    1   11 1   
     5    2    4 1   
     6    2    5 1   
     7    2   12 1   
     8    2   14 1   
     9    4   15 1   
    10    5    6 1   
    11    5    7 1   
    12    5   16 1   
    13    6   17 1   
    14    7    8 1   
    15    7   18 1   
    16    8   19 1   
    17    9   10 1   
    18    9   20 1   
    19    9   21 1   
    20   10   22 1   
    21   11   12 1   
    22   12   13 1   
    23   12   23 1   
@<TRIPOS>SUBSTRUCTURE
     1 GUL         1 TEMP              0 ****  ****    0 ROOT
