@<TRIPOS>MOLECULE
GUL
   23    23     1     0     0
SMALL
bcc


@<TRIPOS>ATOM
      1 C5          0.0450   -0.0530    0.0250 c3        1 GUL      0.295100
      2 C2          1.6260    1.0640    2.1860 c3        1 GUL      0.062100
      3 F1         -0.4340   -1.2700    0.4670 f         1 GUL     -0.239300
      4 O2          2.1620    0.9680    3.4880 oh        1 GUL     -0.560800
      5 C3          2.2500   -0.0610    1.3510 c3        1 GUL      0.159100
      6 O3          2.1530   -1.3350    1.9380 oh        1 GUL     -0.572800
      7 C4          1.6010   -0.0680   -0.0470 c3        1 GUL      0.078100
      8 O4          2.0750    1.0740   -0.7280 oh        1 GUL     -0.587800
      9 C6         -0.5690    0.3300   -1.3540 c3        1 GUL      0.115400
     10 O6          0.1220   -0.3280   -2.3900 oh        1 GUL     -0.600800
     11 O          -0.4970    0.8920    0.9350 os        1 GUL     -0.441600
     12 C1          0.0800    0.9710    2.2250 c3        1 GUL      0.332400
     13 F2         -0.3850   -0.1300    2.9030 f         1 GUL     -0.234300
     14 H2          1.8920    2.0490    1.7070 h1        1 GUL      0.078700
     15 HO2         1.8250    1.7240    3.9860 ho        1 GUL      0.405000
     16 H3          3.3580    0.1230    1.2490 h1        1 GUL      0.111700
     17 HO3         1.2340   -1.4730    2.2120 ho        1 GUL      0.421000
     18 H4          1.9000   -1.0120   -0.5830 h1        1 GUL      0.077700
     19 HO4         1.9030    0.9300   -1.6710 ho        1 GUL      0.429000
     20 H61        -0.4120    1.4270   -1.5330 h1        1 GUL      0.081700
     21 H62        -1.6600    0.0810   -1.3570 h1        1 GUL      0.081700
     22 HO6        -0.0940   -1.2680   -2.3310 ho        1 GUL      0.416000
     23 H1         -0.3670    1.9120    2.6670 h2        1 GUL      0.090700
@<TRIPOS>BOND
     1    1    3 1   
     2    1    7 1   
     3    1    9 1   
     4    1   11 1   
     5    2    4 1   
     6    2    5 1   
     7    2   12 1   
     8    2   14 1   
     9    4   15 1   
    10    5    6 1   
    11    5    7 1   
    12    5   16 1   
    13    6   17 1   
    14    7    8 1   
    15    7   18 1   
    16    8   19 1   
    17    9   10 1   
    18    9   20 1   
    19    9   21 1   
    20   10   22 1   
    21   11   12 1   
    22   12   13 1   
    23   12   23 1   
@<TRIPOS>SUBSTRUCTURE
     1 GUL         1 TEMP              0 ****  ****    0 ROOT
