@<TRIPOS>MOLECULE
GUL
   23    23     1     0     0
SMALL
bcc


@<TRIPOS>ATOM
      1 C5          0.0360   -0.0320    0.0250 c3        1 GUL      0.295100
      2 C2          1.6470    1.0570    2.1790 c3        1 GUL      0.062100
      3 F1         -0.4900   -1.2240    0.4810 f         1 GUL     -0.239300
      4 O2          2.1740    0.9590    3.4850 oh        1 GUL     -0.560800
      5 C3          2.2330   -0.1020    1.3620 c3        1 GUL      0.159100
      6 O3          2.0860   -1.3640    1.9660 oh        1 GUL     -0.572800
      7 C4          1.5910   -0.1040   -0.0380 c3        1 GUL      0.078100
      8 O4          2.1090    1.0090   -0.7330 oh        1 GUL     -0.587800
      9 C6         -0.5570    0.3550   -1.3620 c3        1 GUL      0.115400
     10 O6          0.1140   -0.3430   -2.3850 oh        1 GUL     -0.600800
     11 O          -0.4750    0.9450    0.9200 os        1 GUL     -0.441600
     12 C1          0.0990    1.0210    2.2120 c3        1 GUL      0.332400
     13 F2         -0.4100   -0.0520    2.9020 f         1 GUL     -0.234300
     14 H2          1.9510    2.0240    1.6880 h1        1 GUL      0.078700
     15 HO2         1.8620    1.7340    3.9710 ho        1 GUL      0.405000
     16 H3          3.3480    0.0390    1.2640 h1        1 GUL      0.111700
     17 HO3         1.1620   -1.4640    2.2370 ho        1 GUL      0.421000
     18 H4          1.8570   -1.0670   -0.5600 h1        1 GUL      0.077700
     19 HO4         1.9360    0.8590   -1.6740 ho        1 GUL      0.429000
     20 H61        -0.3590    1.4420   -1.5550 h1        1 GUL      0.081700
     21 H62        -1.6570    0.1460   -1.3670 h1        1 GUL      0.081700
     22 HO6        -0.1370   -1.2730   -2.3150 ho        1 GUL      0.416000
     23 H1         -0.3160    1.9840    2.6380 h2        1 GUL      0.090700
@<TRIPOS>BOND
     1    1    3 1   
     2    1    7 1   
     3    1    9 1   
     4    1   11 1   
     5    2    4 1   
     6    2    5 1   
     7    2   12 1   
     8    2   14 1   
     9    4   15 1   
    10    5    6 1   
    11    5    7 1   
    12    5   16 1   
    13    6   17 1   
    14    7    8 1   
    15    7   18 1   
    16    8   19 1   
    17    9   10 1   
    18    9   20 1   
    19    9   21 1   
    20   10   22 1   
    21   11   12 1   
    22   12   13 1   
    23   12   23 1   
@<TRIPOS>SUBSTRUCTURE
     1 GUL         1 TEMP              0 ****  ****    0 ROOT
