@<TRIPOS>MOLECULE
GUN
   17    18     1     0     0
SMALL
bcc


@<TRIPOS>ATOM
      1 N9         -0.0130    0.0190   -0.0460 na        1 GUN     -0.268900
      2 C8          1.3890    0.0150   -0.0350 cc        1 GUN      0.468400
      3 N7          1.9160    0.0070    1.2180 nd        1 GUN     -0.570000
      4 C5          0.8210    0.0050    2.0640 cd        1 GUN      0.289800
      5 C6          0.7610   -0.0030    3.5190 c         1 GUN      0.647000
      6 O6          1.6750   -0.0100    4.3400 o         1 GUN     -0.499500
      7 N1         -0.5800   -0.0030    4.0390 n         1 GUN     -0.502400
      8 C2         -1.6820    0.0050    3.1820 cd        1 GUN      0.506800
      9 N2         -3.0430    0.0040    3.8140 n4        1 GUN     -0.796600
     10 N3         -1.6760    0.0120    1.8470 nc        1 GUN     -0.525100
     11 C4         -0.4050    0.0120    1.2960 cc        1 GUN      0.005800
     12 HN9        -0.6130    0.0250   -0.8340 hn        1 GUN      0.341700
     13 H8          1.9820    0.0190   -0.9640 h5        1 GUN      0.104100
     14 HN1        -0.6840   -0.0080    5.0320 hn        1 GUN      0.351500
     15 HN21       -3.1500    0.8430    4.3980 hn        1 GUN      0.483133
     16 HN22       -3.1530   -0.8400    4.3880 hn        1 GUN      0.483133
     17 H23        -3.7680    0.0100    3.0800 hn        1 GUN      0.483133
@<TRIPOS>BOND
     1    1    2 1   
     2    1   11 1   
     3    1   12 1   
     4    2    3 2   
     5    2   13 1   
     6    3    4 1   
     7    4    5 1   
     8    4   11 2   
     9    5    6 2   
    10    5    7 1   
    11    7    8 1   
    12    7   14 1   
    13    8    9 1   
    14    8   10 2   
    15    9   15 1   
    16    9   16 1   
    17    9   17 1   
    18   10   11 1   
@<TRIPOS>SUBSTRUCTURE
     1 GUN         1 TEMP              0 ****  ****    0 ROOT
