@<TRIPOS>MOLECULE
GUN
   16    13     1     0     0
SMALL
bcc


@<TRIPOS>ATOM
      1 N9          0.5540    0.0020   -2.3420 ne        1 GUN     -0.401900
      2 C8          1.9110    0.0020   -2.3420 c1        1 GUN      0.342800
      3 N7          2.3320    0.0020   -1.0510 nf        1 GUN     -0.401900
      4 C5          1.2380    0.0020   -0.2550 ch        1 GUN     -0.039500
      5 C6          1.0790    0.0020    1.2440 c1        1 GUN      0.632500
      6 O6          2.0610   -0.0450    1.9590 o         1 GUN     -0.554500
      7 N1         -0.2000    0.0020    1.8110 nh        1 GUN     -0.371600
      8 C2         -1.3490    0.0020    0.9730 c2        1 GUN      0.182800
      9 N2         -2.6460    0.0040    1.5480 nh        1 GUN     -0.403300
     10 N3         -1.1970    0.0020   -0.4610 n1        1 GUN     -0.248000
     11 C4          0.1350    0.0020   -1.0550 cg        1 GUN     -0.039500
     12 HN9         0.0180    0.0020   -3.0800 DU        1 GUN      0.236000
     13 H8          2.4850    0.0010   -3.1320 DU        1 GUN      0.236000
     14 HN1        -0.2960    0.0160    2.7180 hn        1 GUN      0.297700
     15 HN21       -3.3830    0.0100    1.0110 hn        1 GUN      0.266200
     16 HN22       -2.7430   -0.0010    2.4550 hn        1 GUN      0.266200
@<TRIPOS>BOND
     1    1    2 2   
     2    1   11 1   
     3    2    3 2   
     4    3    4 1   
     5    4   11 3   
     6    5    6 2   
     7    5    7 2   
     8    7    8 1   
     9    7   14 1   
    10    8    9 1   
    11    8   10 2   
    12    9   15 1   
    13    9   16 1   
@<TRIPOS>SUBSTRUCTURE
     1 GUN         1 TEMP              0 ****  ****    0 ROOT
