@<TRIPOS>MOLECULE
GUN
   16    17     1     0     0
SMALL
bcc


@<TRIPOS>ATOM
      1 N9          1.5480    0.0100   -1.7850 na        1 GUN     -0.315900
      2 C8          0.5170    0.0160   -2.7520 cc        1 GUN      0.390400
      3 N7         -0.7160    0.0120   -2.2110 nd        1 GUN     -0.583000
      4 C5         -0.5020    0.0050   -0.8320 cd        1 GUN      0.175800
      5 C6         -1.4430   -0.0090    0.2690 c         1 GUN      0.652000
      6 O6         -2.6810   -0.0120    0.2280 o         1 GUN     -0.596500
      7 N1         -0.8280   -0.0110    1.5520 n         1 GUN     -0.509400
      8 C2          0.5700   -0.0360    1.7300 cd        1 GUN      0.683800
      9 N2          1.0510   -0.1680    3.0520 nh        1 GUN     -0.892800
     10 N3          1.4730    0.0030    0.7200 nc        1 GUN     -0.675100
     11 C4          0.9110    0.0030   -0.5440 cc        1 GUN      0.108800
     12 HN9         2.5210    0.0090   -1.9440 hn        1 GUN      0.316700
     13 H8          0.7410    0.0230   -3.8240 h5        1 GUN      0.068100
     14 HN1        -1.4330   -0.0840    2.3420 hn        1 GUN      0.334500
     15 HN21        2.0390   -0.0710    3.1490 hn        1 GUN      0.421300
     16 HN22        0.5240    0.3080    3.7510 hn        1 GUN      0.421300
@<TRIPOS>BOND
     1    1    2 1   
     2    1   11 1   
     3    1   12 1   
     4    2    3 2   
     5    2   13 1   
     6    3    4 1   
     7    4    5 1   
     8    4   11 2   
     9    5    6 2   
    10    5    7 1   
    11    7    8 1   
    12    7   14 1   
    13    8    9 1   
    14    8   10 2   
    15    9   15 1   
    16    9   16 1   
    17   10   11 1   
@<TRIPOS>SUBSTRUCTURE
     1 GUN         1 TEMP              0 ****  ****    0 ROOT
