@<TRIPOS>MOLECULE
GUP
   24    24     1     0     0
SMALL
bcc


@<TRIPOS>ATOM
      1 O5          0.7740    0.7140    0.7940 os        1 GUP     -0.445600
      2 C1          1.1120    0.8640   -0.5680 c3        1 GUP      0.299900
      3 O1          1.9110   -0.2490   -0.9020 oh        1 GUP     -0.645800
      4 C2         -0.1060    0.8810   -1.5110 c3        1 GUP      0.105100
      5 O2          0.3160    0.9210   -2.8530 oh        1 GUP     -0.578800
      6 C3         -1.0360   -0.3110   -1.2490 c3        1 GUP      0.081100
      7 O3         -0.5040   -1.5140   -1.7620 oh        1 GUP     -0.591800
      8 C4         -1.3490   -0.4330    0.2530 c3        1 GUP      0.086100
      9 O4         -2.1800    0.6350    0.6770 oh        1 GUP     -0.585800
     10 C5         -0.0670   -0.4020    1.0940 c3        1 GUP      0.106100
     11 C6         -0.3810   -0.2840    2.5890 c3        1 GUP      0.143400
     12 O6          0.7950   -0.3840    3.3610 oh        1 GUP     -0.598800
     13 H1          1.6890    1.8300   -0.6210 h2        1 GUP      0.089700
     14 HO1         2.6780   -0.2490   -0.3160 ho        1 GUP      0.428000
     15 H2         -0.6700    1.8410   -1.3400 h1        1 GUP      0.103700
     16 HO2         0.7080    0.0590   -3.0550 ho        1 GUP      0.424000
     17 H3         -1.9920   -0.1670   -1.8300 h1        1 GUP      0.088700
     18 HO3         0.3570   -1.6620   -1.3450 ho        1 GUP      0.421000
     19 H4         -1.8690   -1.4170    0.4350 h1        1 GUP      0.059700
     20 HO4        -3.0050    0.5590    0.1800 ho        1 GUP      0.406000
     21 H5          0.5130   -1.3450    0.8850 h1        1 GUP      0.060700
     22 H61        -1.0210   -1.1490    2.9070 h1        1 GUP      0.065700
     23 H62        -0.9110    0.6850    2.7880 h1        1 GUP      0.065700
     24 HO6         1.3540    0.3670    3.1230 ho        1 GUP      0.411000
@<TRIPOS>BOND
     1    1    2 1   
     2    1   10 1   
     3    2    3 1   
     4    2    4 1   
     5    2   13 1   
     6    3   14 1   
     7    4    5 1   
     8    4    6 1   
     9    4   15 1   
    10    5   16 1   
    11    6    7 1   
    12    6    8 1   
    13    6   17 1   
    14    7   18 1   
    15    8    9 1   
    16    8   10 1   
    17    8   19 1   
    18    9   20 1   
    19   10   11 1   
    20   10   21 1   
    21   11   12 1   
    22   11   22 1   
    23   11   23 1   
    24   12   24 1   
@<TRIPOS>SUBSTRUCTURE
     1 GUP         1 TEMP              0 ****  ****    0 ROOT
