@<TRIPOS>MOLECULE
GUP
   24    24     1     0     0
SMALL
bcc


@<TRIPOS>ATOM
      1 O5         -0.4510   -0.7350   -1.2090 os        1 GUP     -0.445600
      2 C1          1.0170   -0.7350   -1.2090 c3        1 GUP      0.299900
      3 O1          1.4660    0.3940   -1.8810 oh        1 GUP     -0.645800
      4 C2          1.5990   -0.7350    0.1940 c3        1 GUP      0.105100
      5 O2          3.0240   -0.5530    0.1060 oh        1 GUP     -0.578800
      6 C3          1.0300    0.3410    1.0390 c3        1 GUP      0.081100
      7 O3          1.4970    1.6290    0.5400 oh        1 GUP     -0.591800
      8 C4         -0.4510    0.3340    1.0330 c3        1 GUP      0.086100
      9 O4         -0.9140   -0.8390    1.7270 oh        1 GUP     -0.585800
     10 C5         -1.0220    0.3280   -0.3740 c3        1 GUP      0.106100
     11 C6         -2.5010    0.1370   -0.2950 c3        1 GUP      0.143400
     12 O6         -3.0680    0.3190   -1.5730 oh        1 GUP     -0.598800
     13 H1          1.3320   -1.5290   -1.6800 h2        1 GUP      0.089700
     14 HO1         1.6700    0.1790   -2.7180 ho        1 GUP      0.428000
     15 H2          1.4140   -1.5970    0.6130 h1        1 GUP      0.103700
     16 HO2         3.4340   -1.2800    0.4100 ho        1 GUP      0.424000
     17 H3          1.3440    0.2230    1.9560 h1        1 GUP      0.088700
     18 HO3         1.8400    2.0990    1.2100 ho        1 GUP      0.421000
     19 H4         -0.7730    1.1270    1.5020 h1        1 GUP      0.059700
     20 HO4        -1.1170   -0.6260    2.5640 ho        1 GUP      0.406000
     21 H5         -0.8380    1.1910   -0.7930 h1        1 GUP      0.060700
     22 H61        -2.6960   -0.7660    0.0220 h1        1 GUP      0.065700
     23 H62        -2.8810    0.7890    0.3250 h1        1 GUP      0.065700
     24 HO6        -3.9540    0.3070   -1.5090 ho        1 GUP      0.411000
@<TRIPOS>BOND
     1    1    2 1   
     2    1   10 1   
     3    2    3 1   
     4    2    4 1   
     5    2   13 1   
     6    3   14 1   
     7    4    5 1   
     8    4    6 1   
     9    4   15 1   
    10    5   16 1   
    11    6    7 1   
    12    6    8 1   
    13    6   17 1   
    14    7   18 1   
    15    8    9 1   
    16    8   10 1   
    17    8   19 1   
    18    9   20 1   
    19   10   11 1   
    20   10   21 1   
    21   11   12 1   
    22   11   22 1   
    23   11   23 1   
    24   12   24 1   
@<TRIPOS>SUBSTRUCTURE
     1 GUP         1 TEMP              0 ****  ****    0 ROOT
