@<TRIPOS>MOLECULE
GUR
   16    17     1     0     0
SMALL
bcc


@<TRIPOS>ATOM
      1 C1         -0.0300   -0.0500   -0.0420 c         1 GUR      0.769500
      2 O1         -0.7080    0.0100   -1.0820 o         1 GUR     -0.616500
      3 N1          1.3870   -0.1420   -0.0070 n         1 GUR     -0.568900
      4 C2          1.8700   -0.0130    1.3630 c3        1 GUR      0.208100
      5 C3          0.4890   -0.0120    2.2640 c3        1 GUR      0.208100
      6 N2         -0.5700   -0.1410    1.2700 n         1 GUR     -0.568900
      7 N1'         2.5460    1.2130    1.7700 n         1 GUR     -0.568900
      8 C1'         1.7070    1.9810    2.6200 c         1 GUR      0.769500
      9 O1'         1.9630    3.1330    3.0110 o         1 GUR     -0.616500
     10 N2'         0.5900    1.2140    3.0460 n         1 GUR     -0.568900
     11 HN1         1.9030    0.2200   -0.7710 hn        1 GUR      0.330500
     12 H2          2.5230   -0.8950    1.6100 h2        1 GUR      0.114700
     13 H3          0.4510   -0.8940    2.9610 h2        1 GUR      0.114700
     14 HN2        -1.4770    0.2210    1.4330 hn        1 GUR      0.330500
     15 HN1'        3.1610    1.6900    1.1570 hn        1 GUR      0.330500
     16 HN2'       -0.2190    1.6930    3.3610 hn        1 GUR      0.330500
@<TRIPOS>BOND
     1    1    2 2   
     2    1    3 1   
     3    1    6 1   
     4    3    4 1   
     5    3   11 1   
     6    4    5 1   
     7    4    7 1   
     8    4   12 1   
     9    5    6 1   
    10    5   10 1   
    11    5   13 1   
    12    6   14 1   
    13    7    8 1   
    14    7   15 1   
    15    8    9 2   
    16    8   10 1   
    17   10   16 1   
@<TRIPOS>SUBSTRUCTURE
     1 GUR         1 TEMP              0 ****  ****    0 ROOT
