@<TRIPOS>MOLECULE
GUS
   31    25     1     0     0
SMALL
bcc


@<TRIPOS>ATOM
      1 C          -3.6170    0.5280    2.0390 c1        1 GUS      0.359000
      2 N          -2.1230    1.9540    0.8070 n1        1 GUS     -0.121000
      3 O          -4.5430    1.2840    1.6750 o         1 GUS     -0.557000
      4 CA         -2.1670    0.9260    1.7920 c1        1 GUS     -0.153000
      5 CB         -1.5610    1.4280    3.0770 c3        1 GUS     -0.172000
      6 NAA         3.8170   -1.7370   -2.2300 n1        1 GUS     -0.347000
      7 CAB         3.7350   -0.8120   -1.3040 c1        1 GUS      0.146000
      8 NAC         2.7280   -0.9010   -0.2910 n2        1 GUS     -0.260000
      9 CAD         1.3550   -0.7740   -0.6470 c2        1 GUS     -0.068000
     10 CAE         0.7130   -1.8100   -1.3050 c2        1 GUS     -0.093000
     11 CAF        -0.6400   -1.7150   -1.5910 c1        1 GUS     -0.180000
     12 NAG         4.6480    0.2760   -1.3060 n3        1 GUS     -0.324000
     13 CAH         0.6420    0.3610   -0.2740 c1        1 GUS     -0.107000
     14 CAI        -0.7070    0.4530   -0.5600 c1        1 GUS     -0.147000
     15 CAJ        -1.3500   -0.5860   -1.2190 c1        1 GUS      0.149000
     16 OAK        -2.7150   -0.4950   -1.5020 oh        1 GUS     -0.278000
     17 CAL        -1.4450    1.7680   -0.3210 c2        1 GUS     -0.085000
     18 OXT        -3.8870   -0.6000    2.5750 o         1 GUS     -0.557000
     19 HA         -1.6530    0.1260    1.4690 ha        1 GUS      0.064000
     20 HB         -1.7650    0.7800    3.8160 hc        1 GUS      0.067000
     21 HBA        -0.5680    1.5110    2.9700 hc        1 GUS      0.067000
     22 HBB        -1.9460    2.3190    3.3020 hc        1 GUS      0.067000
     23 HNAA        3.2340   -2.4360   -2.2290 DU        1 GUS      0.160000
     24 HNAC        2.9750   -0.8890    0.6100 hn        1 GUS      0.195000
     25 HAE         1.2360   -2.6440   -1.5810 ha        1 GUS      0.131000
     26 HAF        -1.0880   -2.4430   -1.9840 ha        1 GUS      0.144000
     27 HNAG        4.3300    1.1570   -1.2280 hn        1 GUS      0.174500
     28 HNAB        5.5370    0.1210   -1.4290 hn        1 GUS      0.174500
     29 HAH         1.0980    1.1000    0.1940 ha        1 GUS      0.125000
     30 HOAK       -2.8580   -0.7280   -2.3260 ho        1 GUS      0.300000
     31 HAL        -1.4160    2.4780   -1.0010 h4        1 GUS      0.126000
@<TRIPOS>BOND
     1    1    3 1   
     2    1   18 1   
     3    2   17 1   
     4    4    5 1   
     5    4   19 1   
     6    5   20 1   
     7    5   21 1   
     8    5   22 1   
     9    6    7 1   
    10    7   12 1   
    11    8    9 1   
    12    8   24 1   
    13    9   10 1   
    14    9   13 1   
    15   10   11 1   
    16   10   25 1   
    17   11   26 1   
    18   12   27 1   
    19   12   28 1   
    20   13   29 1   
    21   14   15 1   
    22   14   17 1   
    23   15   16 1   
    24   16   30 1   
    25   17   31 1   
@<TRIPOS>SUBSTRUCTURE
     1 GUS         1 TEMP              0 ****  ****    0 ROOT
