@<TRIPOS>MOLECULE
GUS
   32    41     1     0     0
SMALL
bcc


@<TRIPOS>ATOM
      1 C           0.0000    0.0000    0.0000 c2        1 GUS      0.412000
      2 N           1.9960    1.1970   -0.6900 n7        1 GUS     -0.101000
      3 O          -0.6710   -1.0030    0.5860 o         1 GUS     -0.444000
      4 CA          1.5070    0.0000    0.0000 DU        1 GUS     -0.272000
      5 CB          2.0170    0.0000    1.4430 c3        1 GUS     -0.143000
      6 NAA         6.3380    1.2940   -4.4720 n2        1 GUS     -0.406000
      7 CAB         6.1770    2.1160   -5.4700 DU        1 GUS      0.540000
      8 CAD         4.4920    3.2920   -4.2200 c3        1 GUS     -0.172000
      9 CAE         4.1500    4.5530   -3.7450 c3        1 GUS     -0.314000
     10 CAF         3.3550    4.6820   -2.6230 c2        1 GUS     -0.247000
     11 NAG         6.8860    1.9320   -6.6340 nz        1 GUS      0.189000
     12 CAH         4.0340    2.1570   -3.5720 c2        1 GUS     -0.088000
     13 CAI         3.2320    2.2810   -2.4370 c3        1 GUS     -0.187000
     14 CAJ         2.8950    3.5560   -1.9610 c3        1 GUS      0.096000
     15 OAK         2.1150    3.6860   -0.8570 oh        1 GUS     -0.242000
     16 CAL         2.7400    1.0770   -1.7420 c3        1 GUS     -0.261000
     17 OXT        -0.6040    0.9070   -0.5230 o         1 GUS     -0.444000
     18 HA          2.0430    0.4810   -0.8090 DU        1 GUS      0.336000
     19 HB          1.9430   -0.4470    0.4590 DU        1 GUS      0.212000
     20 HBA         1.5080    0.7730    2.0060 hc        1 GUS      0.077000
     21 HBB         3.0830    0.1910    1.4490 hc        1 GUS      0.077000
     22 HNAA        5.7820    1.0160   -3.6880 hn        1 GUS      0.211000
     23 HNAC        5.4930    2.4650   -4.6760 DU        1 GUS      0.365000
     24 HAE         4.3220    4.1330   -4.7280 DU        1 GUS      0.403000
     25 HAF         3.9390    5.0670   -3.4510 DU        1 GUS      0.298000
     26 HNAG        6.3360    2.4750   -5.9990 DU        1 GUS     -0.028000
     27 HNAB        7.8320    2.2560   -6.6900 hn        1 GUS     -0.043000
     28 HAH         4.6300    1.9460   -4.4520 ha        1 GUS      0.178000
     29 HOAK        2.5510    3.1650   -1.5100 DU        1 GUS      0.284000
     30 HAL         2.6330    2.0760   -1.3370 DU        1 GUS      0.328000
     31 HAG3        6.6010    1.8380   -5.6800 hn        1 GUS     -0.043000
     32 NAC         5.2980    3.1700   -5.3590 n7        1 GUS     -0.568000
@<TRIPOS>BOND
     1    1    3 1   
     2    1    4 1   
     3    1   17 1   
     4    2    4 1   
     5    2   16 1   
     6    2   18 1   
     7    4    5 1   
     8    4   18 1   
     9    4   19 1   
    10    5   19 1   
    11    5   20 1   
    12    5   21 1   
    13    6    7 1   
    14    6   22 1   
    15    7   11 1   
    16    7   23 1   
    17    7   26 1   
    18    7   32 1   
    19    8    9 1   
    20    8   12 1   
    21    8   24 1   
    22    8   32 1   
    23    9   10 1   
    24    9   24 1   
    25    9   25 1   
    26   10   14 1   
    27   10   25 1   
    28   11   26 1   
    29   11   27 1   
    30   11   31 1   
    31   12   13 1   
    32   12   28 1   
    33   13   14 1   
    34   13   16 1   
    35   13   30 1   
    36   14   15 1   
    37   14   29 1   
    38   15   29 1   
    39   16   18 1   
    40   16   30 1   
    41   23   32 1   
@<TRIPOS>SUBSTRUCTURE
     1 GUS         1 TEMP              0 ****  ****    0 ROOT
