@<TRIPOS>MOLECULE
GUS
   33    30     1     0     0
SMALL
bcc


@<TRIPOS>ATOM
      1 C          -1.3130    1.2380    0.6250 c1        1 GUS      0.430000
      2 N           2.7420    0.9090   -0.7040 n3        1 GUS     -0.188000
      3 O          -0.1440    1.1620    0.3850 o         1 GUS     -0.214500
      4 CA          3.0730   -0.3030   -0.1430 c1        1 GUS      0.033000
      5 CB          2.3660   -0.8000    1.0330 c3        1 GUS     -0.314000
      6 NAA         8.1200    1.4200   -6.7140 n2        1 GUS     -0.338000
      7 CAB         7.2130    1.8190   -6.0830 c1        1 GUS      0.052000
      8 CAD         4.0540    3.8010   -4.4820 ca        1 GUS      0.064000
      9 CAE         3.1960    4.8720   -4.0800 ca        1 GUS     -0.048000
     10 CAF         2.4230    4.7720   -2.9410 ca        1 GUS     -0.203000
     11 NAG         6.2960   -0.2130   -3.3240 n3        1 GUS     -0.426000
     12 CAH         4.0980    2.6550   -3.6750 ca        1 GUS     -0.119000
     13 CAI         3.3030    2.5270   -2.5040 ca        1 GUS     -0.181000
     14 CAJ         2.4600    3.6110   -2.1480 ca        1 GUS      0.147000
     15 OAK         1.7070    3.4960   -1.0150 oh        1 GUS     -0.259000
     16 CAL         3.4440    1.3070   -1.7860 c2        1 GUS      0.268000
     17 OXT        -2.4700    1.3170    0.8620 o         1 GUS     -0.214500
     18 HA          4.2250    0.5780   -2.1460 h4        1 GUS      0.240000
     19 HB          3.1300   -0.9300    1.8500 hc        1 GUS      0.139333
     20 HBA         1.5160   -0.1830    1.4220 hc        1 GUS      0.139333
     21 HBB         1.9860   -1.8290    0.7800 hc        1 GUS      0.139333
     22 HNAA        8.8680    1.0980   -7.2420 hn        1 GUS      0.295000
     23 HNAC        4.9070    4.7650   -6.0570 hn        1 GUS      0.231500
     24 HAE         3.1460    5.7920   -4.6890 ha        1 GUS      0.166000
     25 HAF         1.7670    5.6080   -2.6470 ha        1 GUS      0.164000
     26 HNAG        6.6650    0.2710   -4.1190 hn        1 GUS      0.143333
     27 HNAB        6.0590   -1.1450   -3.5940 hn        1 GUS      0.143333
     28 HAH         4.7630    1.8160   -3.9530 ha        1 GUS      0.182000
     29 HOAK        1.2010    4.3150   -0.8820 ho        1 GUS      0.260000
     30 HAL         2.0020    1.5000   -0.3450 hn        1 GUS      0.243000
     31 HAG3        6.9980   -0.2530   -2.6150 hn        1 GUS      0.143333
     32 HAC2        5.4820    3.1920   -5.8060 hn        1 GUS      0.231500
     33 NAC         4.7540    3.8640   -5.6710 nh        1 GUS     -0.350000
@<TRIPOS>BOND
     1    1    3 1   
     2    1   17 1   
     3    2    4 1   
     4    2   16 1   
     5    2   30 1   
     6    4    5 1   
     7    5   19 1   
     8    5   20 1   
     9    5   21 1   
    10    6    7 1   
    11    6   22 1   
    12    8    9 1   
    13    8   12 1   
    14    8   33 1   
    15    9   10 1   
    16    9   24 1   
    17   10   14 1   
    18   10   25 1   
    19   11   26 1   
    20   11   27 1   
    21   11   31 1   
    22   12   13 1   
    23   12   28 1   
    24   13   14 1   
    25   13   16 1   
    26   14   15 1   
    27   15   29 1   
    28   16   18 1   
    29   23   33 1   
    30   32   33 1   
@<TRIPOS>SUBSTRUCTURE
     1 GUS         1 TEMP              0 ****  ****    0 ROOT
