@<TRIPOS>MOLECULE
GUS
   31    31     1     0     0
SMALL
bcc


@<TRIPOS>ATOM
      1 C          -3.9130    0.0860   -0.0210 c         1 GUS      0.918600
      2 N          -1.5380    0.9470   -0.2300 n2        1 GUS     -0.564900
      3 O          -3.4250   -1.0610    0.2010 o         1 GUS     -0.830800
      4 CA         -2.9320    1.3190   -0.1280 c3        1 GUS     -0.030500
      5 CB         -3.3650    2.1970   -1.2940 c3        1 GUS     -0.059100
      6 NAA         5.6820    0.7320   -0.8210 n2        1 GUS     -0.899100
      7 CAB         4.4050    0.8850   -0.5530 c2        1 GUS      0.755100
      8 CAD         2.6770   -0.4440    0.5190 ca        1 GUS     -0.001400
      9 CAE         2.7040   -1.8390    0.3160 ca        1 GUS     -0.125000
     10 CAF         1.5280   -2.5660    0.2030 ca        1 GUS     -0.182000
     11 NAG         3.5080    1.7040   -1.3070 nh        1 GUS     -0.926800
     12 CAH         1.4300    0.2050    0.6290 ca        1 GUS     -0.069000
     13 CAI         0.2470   -0.5150    0.5140 ca        1 GUS     -0.193900
     14 CAJ         0.2860   -1.9090    0.2850 ca        1 GUS      0.176100
     15 OAK        -0.8250   -2.6850    0.1390 oh        1 GUS     -0.517100
     16 CAL        -1.0770    0.1150    0.6370 ce        1 GUS      0.421800
     17 OXT        -5.1410    0.3310   -0.1230 o         1 GUS     -0.830800
     18 HA         -3.1010    1.8980    0.8290 h1        1 GUS      0.040700
     19 HB         -2.8240    3.1740   -1.2890 hc        1 GUS      0.027367
     20 HBA        -3.1750    1.6900   -2.2690 hc        1 GUS      0.027367
     21 HBB        -4.4630    2.3810   -1.1980 hc        1 GUS      0.027367
     22 HNAA        6.0150    1.2420   -1.6090 hn        1 GUS      0.382400
     23 HNAC        4.5810   -0.2130    1.1590 hn        1 GUS      0.404800
     24 HAE         3.6680   -2.3670    0.2420 ha        1 GUS      0.124000
     25 HAF         1.5490   -3.6520    0.0410 ha        1 GUS      0.141000
     26 HNAG        3.6150    1.5970   -2.2920 hn        1 GUS      0.397300
     27 HNAB        2.5510    1.6630   -1.0270 hn        1 GUS      0.397300
     28 HAH         1.3780    1.2900    0.8150 ha        1 GUS      0.148000
     29 HOAK       -1.6330   -2.1200    0.1280 ho        1 GUS      0.498000
     30 HAL        -1.6670   -0.2860    1.4950 h4        1 GUS      0.003800
     31 NAC         3.8800    0.3130    0.6690 nh        1 GUS     -0.660600
@<TRIPOS>BOND
     1    1    3 1   
     2    1    4 1   
     3    1   17 1   
     4    2    4 1   
     5    2   16 2   
     6    4    5 1   
     7    4   18 1   
     8    5   19 1   
     9    5   20 1   
    10    5   21 1   
    11    6    7 2   
    12    6   22 1   
    13    7   11 1   
    14    7   31 1   
    15    8    9 ar  
    16    8   12 ar  
    17    8   31 1   
    18    9   10 ar  
    19    9   24 1   
    20   10   14 ar  
    21   10   25 1   
    22   11   26 1   
    23   11   27 1   
    24   12   13 ar  
    25   12   28 1   
    26   13   14 ar  
    27   13   16 1   
    28   14   15 1   
    29   15   29 1   
    30   16   30 1   
    31   23   31 1   
@<TRIPOS>SUBSTRUCTURE
     1 GUS         1 TEMP              0 ****  ****    0 ROOT
