@<TRIPOS>MOLECULE
GUZ
   21    21     1     0     0
SMALL
bcc


@<TRIPOS>ATOM
      1 C1         -0.8100    0.3140   -1.3480 c3        1 GUZ      0.307900
      2 C2          0.6790    0.3140   -1.3480 c3        1 GUZ      0.066600
      3 F2          1.1270   -0.8260   -2.0260 f         1 GUZ     -0.261300
      4 C3          1.2520    0.3140   -0.0010 c3        1 GUZ      0.114100
      5 O3          0.9770    1.6070    0.6270 oh        1 GUZ     -0.625800
      6 C4          0.6930   -0.7690    0.8630 c3        1 GUZ      0.089100
      7 O4          1.1330   -2.0220    0.3660 oh        1 GUZ     -0.612800
      8 C5         -0.8600   -0.7690    0.9080 c3        1 GUZ     -0.010900
      9 C6         -1.4090    0.3570    1.7350 c         1 GUZ      0.907600
     10 O6A        -0.8540    0.6700    2.8210 o         1 GUZ     -0.825800
     11 O6B        -2.4250    0.9880    1.3430 o         1 GUZ     -0.825800
     12 O5         -1.3910   -0.7620   -0.4980 os        1 GUZ     -0.454600
     13 O1         -1.2590    0.1420   -2.6580 oh        1 GUZ     -0.600800
     14 H1         -1.1240    1.1780   -1.0200 h2        1 GUZ      0.146700
     15 H2          0.9930    1.1070   -1.8240 h1        1 GUZ      0.065700
     16 H3          2.2190    0.1960   -0.0700 h1        1 GUZ      0.066700
     17 H4          1.7320    2.0660    0.7030 ho        1 GUZ      0.461000
     18 H5          1.0330   -0.6540    1.7710 h1        1 GUZ      0.096700
     19 H6          1.5130   -2.4840    1.0220 ho        1 GUZ      0.402000
     20 H7         -1.1920   -1.5430    1.4010 h1        1 GUZ      0.085700
     21 H9         -2.0270    0.5740   -2.7670 ho        1 GUZ      0.408000
@<TRIPOS>BOND
     1    1    2 1   
     2    1   12 1   
     3    1   13 1   
     4    1   14 1   
     5    2    3 1   
     6    2    4 1   
     7    2   15 1   
     8    4    5 1   
     9    4    6 1   
    10    4   16 1   
    11    5   17 1   
    12    6    7 1   
    13    6    8 1   
    14    6   18 1   
    15    7   19 1   
    16    8    9 1   
    17    8   12 1   
    18    8   20 1   
    19    9   10 1   
    20    9   11 1   
    21   13   21 1   
@<TRIPOS>SUBSTRUCTURE
     1 GUZ         1 TEMP              0 ****  ****    0 ROOT
