@<TRIPOS>MOLECULE
GUZ
   21    21     1     0     0
SMALL
bcc


@<TRIPOS>ATOM
      1 C1         -1.1180    1.4980   -0.1900 c3        1 GUZ      0.309900
      2 C2         -1.8700    0.1910   -0.5270 c3        1 GUZ      0.106600
      3 F2         -3.2140    0.2740   -0.1990 f         1 GUZ     -0.251300
      4 C3         -1.2090   -1.0190    0.1730 c3        1 GUZ      0.112100
      5 O3         -1.7740   -2.2140   -0.3410 oh        1 GUZ     -0.584800
      6 C4          0.2980   -1.0270   -0.1350 c3        1 GUZ      0.157100
      7 O4          0.8660   -2.0680    0.6400 oh        1 GUZ     -0.627800
      8 C5          0.9130    0.3240    0.2570 c3        1 GUZ     -0.035900
      9 C6          2.4310    0.4080   -0.1020 c         1 GUZ      0.935600
     10 O6A         3.0110    1.5090    0.0510 o         1 GUZ     -0.818300
     11 O6B         2.9800   -0.6710   -0.4670 o         1 GUZ     -0.818300
     12 O5          0.2640    1.4000   -0.4240 os        1 GUZ     -0.401600
     13 O1         -1.3100    1.8250    1.1690 oh        1 GUZ     -0.641800
     14 H1         -1.4790    2.3410   -0.8460 h2        1 GUZ      0.060700
     15 H2         -1.7920    0.0410   -1.6430 h1        1 GUZ      0.067700
     16 H3         -1.3740   -0.9520    1.2830 h1        1 GUZ      0.062700
     17 H4         -2.6920   -2.2230   -0.0410 ho        1 GUZ      0.389000
     18 H5          0.4690   -1.2280   -1.2280 h1        1 GUZ      0.059700
     19 H6          1.8170   -2.0630    0.4320 ho        1 GUZ      0.452000
     20 H7          0.8080    0.4700    1.3660 h1        1 GUZ      0.038700
     21 H9         -0.5300    2.3220    1.4540 ho        1 GUZ      0.428000
@<TRIPOS>BOND
     1    1    2 1   
     2    1   12 1   
     3    1   13 1   
     4    1   14 1   
     5    2    3 1   
     6    2    4 1   
     7    2   15 1   
     8    4    5 1   
     9    4    6 1   
    10    4   16 1   
    11    5   17 1   
    12    6    7 1   
    13    6    8 1   
    14    6   18 1   
    15    7   19 1   
    16    8    9 1   
    17    8   12 1   
    18    8   20 1   
    19    9   10 1   
    20    9   11 1   
    21   13   21 1   
@<TRIPOS>SUBSTRUCTURE
     1 GUZ         1 TEMP              0 ****  ****    0 ROOT
