@<TRIPOS>MOLECULE
GV9
   18    14     1     0     0
SMALL
bcc


@<TRIPOS>ATOM
      1 O11        -1.2700    0.0460    1.7030 o         1 GV9     -0.418000
      2 C10        -0.0620   -0.0770    1.7370 c1        1 GV9      0.296000
      3 C12         0.6660   -0.0330    3.0630 c2        1 GV9     -0.240000
      4 N9          0.6640   -0.2860    0.5360 n3        1 GV9     -0.284000
      5 C3         -0.0210   -0.3510   -0.7050 c2        1 GV9      0.020000
      6 C4         -0.7880   -1.6220   -1.2810 c1        1 GV9     -0.167000
      7 C5         -1.3500   -1.2700   -2.5710 c1        1 GV9     -0.499000
      8 S1         -0.9740    0.2070   -2.8670 ss        1 GV9      0.585000
      9 C2         -0.1440    0.7290   -1.6650 c1        1 GV9     -0.432000
     10 C6          0.4970    2.0950   -1.5540 c1        1 GV9      0.389000
     11 O7         -0.1310    3.0430   -1.0130 o         1 GV9     -0.566000
     12 O8          1.6510    2.2890   -2.0200 o         1 GV9     -0.566000
     13 H12         1.3220   -0.7600    3.1000 ha        1 GV9      0.094333
     14 H12A        1.1260    0.8280    3.1540 ha        1 GV9      0.094333
     15 H12B        0.0210   -0.1370    3.7930 ha        1 GV9      0.094333
     16 HN9         1.5720   -0.3680    0.5600 hn        1 GV9      0.289000
     17 H4         -0.8670   -2.4900   -0.8410 DU        1 GV9      0.155500
     18 H5         -1.9110   -1.8420   -3.1290 DU        1 GV9      0.155500
@<TRIPOS>BOND
     1    1    2 1   
     2    2    4 1   
     3    3   13 1   
     4    3   14 1   
     5    3   15 1   
     6    4    5 1   
     7    4   16 1   
     8    5    6 1   
     9    5    9 1   
    10    6    7 1   
    11    7    8 1   
    12    8    9 1   
    13   10   11 1   
    14   10   12 1   
@<TRIPOS>SUBSTRUCTURE
     1 GV9         1 TEMP              0 ****  ****    0 ROOT
