@<TRIPOS>MOLECULE
GV9
   18    18     1     0     0
SMALL
bcc


@<TRIPOS>ATOM
      1 O11        -3.1780   -1.0300   -0.0590 o         1 GV9     -0.657100
      2 C10        -2.7460    0.1450   -0.0120 c         1 GV9      0.652100
      3 C12        -3.7240    1.3050    0.0220 c3        1 GV9     -0.172100
      4 N9         -1.4170    0.4830    0.0120 n         1 GV9     -0.430100
      5 C3         -0.3290   -0.3890   -0.0110 cc        1 GV9      0.012600
      6 C4         -0.4030   -1.8300   -0.0650 cc        1 GV9     -0.167000
      7 C5          0.8540   -2.3900   -0.0750 cd        1 GV9     -0.229100
      8 S1          2.0580   -1.2420   -0.0220 ss        1 GV9      0.045200
      9 C2          0.9990    0.0530    0.0170 cd        1 GV9     -0.182700
     10 C6          1.4680    1.4830    0.0730 c         1 GV9      0.940200
     11 O7          0.5990    2.4080    0.1000 o         1 GV9     -0.831300
     12 O8          2.7100    1.7040    0.0920 o         1 GV9     -0.831300
     13 H12        -3.5860    1.9030    0.9540 hc        1 GV9      0.055033
     14 H12A       -3.5700    1.9710   -0.8600 hc        1 GV9      0.055033
     15 H12B       -4.7620    0.8980   -0.0020 hc        1 GV9      0.055033
     16 HN9        -1.1530    1.4590    0.0500 hn        1 GV9      0.375500
     17 H4         -1.3510   -2.3720   -0.0930 ha        1 GV9      0.166000
     18 H5          1.0550   -3.4580   -0.1120 h4        1 GV9      0.145000
@<TRIPOS>BOND
     1    1    2 2   
     2    2    3 1   
     3    2    4 1   
     4    3   13 1   
     5    3   14 1   
     6    3   15 1   
     7    4    5 1   
     8    4   16 1   
     9    5    6 1   
    10    5    9 2   
    11    6    7 2   
    12    6   17 1   
    13    7    8 1   
    14    7   18 1   
    15    8    9 1   
    16    9   10 1   
    17   10   11 1   
    18   10   12 1   
@<TRIPOS>SUBSTRUCTURE
     1 GV9         1 TEMP              0 ****  ****    0 ROOT
