@<TRIPOS>MOLECULE
GV9
   19    19     1     0     0
SMALL
bcc


@<TRIPOS>ATOM
      1 O11        -0.1880    0.1900    0.2920 o         1 GV9     -0.574100
      2 C10         1.0460    0.2330    0.1580 c         1 GV9      0.669100
      3 C12         1.9640    0.4950    1.3270 c3        1 GV9     -0.178100
      4 N9          1.6710    0.0280   -1.0740 n         1 GV9     -0.466100
      5 C3          1.0350   -0.1480   -2.2940 cc        1 GV9      0.090600
      6 C4         -0.3890   -0.1380   -2.5180 cc        1 GV9     -0.168000
      7 C5         -0.6790   -0.3160   -3.8550 cd        1 GV9     -0.162100
      8 S1          0.6710   -0.4740   -4.7940 ss        1 GV9      0.154200
      9 C2          1.7250   -0.3480   -3.5070 cd        1 GV9     -0.327700
     10 C6          3.1710   -0.3970   -3.6340 c         1 GV9      0.677700
     11 O7          3.8950    0.2100   -4.4230 o         1 GV9     -0.478000
     12 O8          3.8740   -1.1890   -2.7580 oh        1 GV9     -0.596100
     13 H12         2.6690   -0.3580    1.4750 hc        1 GV9      0.074033
     14 H12A        2.5510    1.4310    1.1620 hc        1 GV9      0.074033
     15 H12B        1.3410    0.6150    2.2480 hc        1 GV9      0.074033
     16 HN9         2.6650    0.1180   -1.1080 hn        1 GV9      0.328500
     17 H4         -1.1210   -0.0050   -1.7150 ha        1 GV9      0.196000
     18 H5         -1.6920   -0.3480   -4.2600 h4        1 GV9      0.182000
     19 H92         3.2750   -1.8130   -2.3260 ho        1 GV9      0.431000
@<TRIPOS>BOND
     1    1    2 2   
     2    2    3 1   
     3    2    4 1   
     4    3   13 1   
     5    3   14 1   
     6    3   15 1   
     7    4    5 1   
     8    4   16 1   
     9    5    6 1   
    10    5    9 2   
    11    6    7 2   
    12    6   17 1   
    13    7    8 1   
    14    7   18 1   
    15    8    9 1   
    16    9   10 1   
    17   10   11 2   
    18   10   12 1   
    19   12   19 1   
@<TRIPOS>SUBSTRUCTURE
     1 GV9         1 TEMP              0 ****  ****    0 ROOT
