@<TRIPOS>MOLECULE
GV9
   18    18     1     0     0
SMALL
bcc


@<TRIPOS>ATOM
      1 O11        -0.0800    0.0080    0.3270 o         1 GV9     -0.657100
      2 C10         1.1560   -0.0150    0.1210 c         1 GV9      0.652100
      3 C12         2.1150    0.0430    1.2940 c3        1 GV9     -0.172100
      4 N9          1.7340   -0.0910   -1.1200 n         1 GV9     -0.430100
      5 C3          1.0790   -0.1560   -2.3500 cc        1 GV9      0.012600
      6 C4         -0.3520   -0.1510   -2.5440 cc        1 GV9     -0.167000
      7 C5         -0.6700   -0.2260   -3.8810 cd        1 GV9     -0.229100
      8 S1          0.6820   -0.2980   -4.8500 ss        1 GV9      0.045200
      9 C2          1.7600   -0.2350   -3.5700 cd        1 GV9     -0.182700
     10 C6          3.2530   -0.2630   -3.7650 c         1 GV9      0.940200
     11 O7          4.0010   -0.2110   -2.7410 o         1 GV9     -0.831300
     12 O8          3.7000   -0.3380   -4.9430 o         1 GV9     -0.831300
     13 H12         1.5230    0.0990    2.2380 hc        1 GV9      0.055033
     14 H12A        2.7710    0.9430    1.2180 hc        1 GV9      0.055033
     15 H12B        2.7570   -0.8710    1.3190 hc        1 GV9      0.055033
     16 HN9         2.7440   -0.1060   -1.1980 hn        1 GV9      0.375500
     17 H4         -1.0600   -0.0950   -1.7150 ha        1 GV9      0.166000
     18 H5         -1.6820   -0.2380   -4.2770 h4        1 GV9      0.145000
@<TRIPOS>BOND
     1    1    2 2   
     2    2    3 1   
     3    2    4 1   
     4    3   13 1   
     5    3   14 1   
     6    3   15 1   
     7    4    5 1   
     8    4   16 1   
     9    5    6 1   
    10    5    9 2   
    11    6    7 2   
    12    6   17 1   
    13    7    8 1   
    14    7   18 1   
    15    8    9 1   
    16    9   10 1   
    17   10   11 1   
    18   10   12 1   
@<TRIPOS>SUBSTRUCTURE
     1 GV9         1 TEMP              0 ****  ****    0 ROOT
