@<TRIPOS>MOLECULE
GV9
   18    18     1     0     0
SMALL
bcc


@<TRIPOS>ATOM
      1 O11        -0.0790    0.0130    0.3270 o         1 GV9     -0.657100
      2 C10         1.1570   -0.0060    0.1200 c         1 GV9      0.652100
      3 C12         2.1170    0.0630    1.2930 c3        1 GV9     -0.172100
      4 N9          1.7350   -0.0870   -1.1210 ns        1 GV9     -0.430100
      5 C3          1.0790   -0.1620   -2.3490 cc        1 GV9      0.012600
      6 C4         -0.3520   -0.1660   -2.5430 cc        1 GV9     -0.167000
      7 C5         -0.6710   -0.2490   -3.8790 cd        1 GV9     -0.229100
      8 S1          0.6800   -0.3190   -4.8480 ss        1 GV9      0.045200
      9 C2          1.7590   -0.2430   -3.5700 cd        1 GV9     -0.182700
     10 C6          3.2520   -0.2640   -3.7660 c         1 GV9      0.940200
     11 O7          4.0010   -0.2030   -2.7420 o         1 GV9     -0.831300
     12 O8          3.6980   -0.3420   -4.9440 o         1 GV9     -0.831300
     13 H12         1.5250    0.1240    2.2370 hc        1 GV9      0.055033
     14 H12A        2.7620   -0.8480    1.3230 hc        1 GV9      0.055033
     15 H12B        2.7690    0.9650    1.2100 hc        1 GV9      0.055033
     16 HN9         2.7440   -0.0970   -1.2000 hn        1 GV9      0.375500
     17 H4         -1.0600   -0.1090   -1.7130 ha        1 GV9      0.166000
     18 H5         -1.6830   -0.2690   -4.2730 h4        1 GV9      0.145000
@<TRIPOS>BOND
     1    1    2 2   
     2    2    3 1   
     3    2    4 1   
     4    3   13 1   
     5    3   14 1   
     6    3   15 1   
     7    4    5 1   
     8    4   16 1   
     9    5    6 1   
    10    5    9 2   
    11    6    7 2   
    12    6   17 1   
    13    7    8 1   
    14    7   18 1   
    15    8    9 1   
    16    9   10 1   
    17   10   11 1   
    18   10   12 1   
@<TRIPOS>SUBSTRUCTURE
     1 GV9         1 TEMP              0 ****  ****    0 ROOT
