@<TRIPOS>MOLECULE
GVA
   23    22     1     0     0
SMALL
bcc


@<TRIPOS>ATOM
      1 OB          2.6270    1.8380   -1.0110 o         1 GVA     -0.849800
      2 C           2.0460    0.8610   -0.4560 c         1 GVA      0.909600
      3 OA          2.5950    0.1000    0.3900 o         1 GVA     -0.849800
      4 CA          0.5860    0.5580   -0.8450 c3        1 GVA     -0.196400
      5 CB         -0.2150    1.8290   -0.9890 c3        1 GVA     -0.066400
      6 CG         -1.5850    1.5640   -1.5770 c3        1 GVA     -0.088400
      7 CD         -2.3610    2.8750   -1.7020 c3        1 GVA      0.178800
      8 NE         -3.6670    2.7070   -2.3050 nh        1 GVA     -0.852200
      9 CZ         -4.6330    3.7610   -2.2390 c2        1 GVA      0.762100
     10 NH2        -4.1600    5.0650   -1.8930 nh        1 GVA     -0.885800
     11 NH1        -5.9150    3.6120   -2.5020 n2        1 GVA     -0.917100
     12 HA1         0.1280   -0.1090   -0.0740 hc        1 GVA      0.020700
     13 HA2         0.6020    0.0020   -1.8170 hc        1 GVA      0.020700
     14 HB1         0.3580    2.5410   -1.6420 hc        1 GVA      0.048700
     15 HB2        -0.3240    2.3170    0.0150 hc        1 GVA      0.048700
     16 HG1        -2.1450    0.8470   -0.9210 hc        1 GVA      0.034700
     17 HG2        -1.4750    1.0840   -2.5840 hc        1 GVA      0.034700
     18 HD1        -1.7690    3.5780   -2.3560 h1        1 GVA      0.041200
     19 HD2        -2.4340    3.3420   -0.6760 h1        1 GVA      0.041200
     20 HNE        -4.0610    1.8060   -2.1280 hn        1 GVA      0.396800
     21 HH21       -3.2410    5.2590   -2.2290 hn        1 GVA      0.394300
     22 HH22       -4.8080    5.7890   -2.1260 hn        1 GVA      0.394300
     23 HNH1       -6.2140    2.6720   -2.6350 hn        1 GVA      0.380400
@<TRIPOS>BOND
     1    1    2 1   
     2    2    3 1   
     3    2    4 1   
     4    4    5 1   
     5    4   12 1   
     6    4   13 1   
     7    5    6 1   
     8    5   14 1   
     9    5   15 1   
    10    6    7 1   
    11    6   16 1   
    12    6   17 1   
    13    7    8 1   
    14    7   18 1   
    15    7   19 1   
    16    8    9 1   
    17    8   20 1   
    18    9   10 1   
    19    9   11 2   
    20   10   21 1   
    21   10   22 1   
    22   11   23 1   
@<TRIPOS>SUBSTRUCTURE
     1 GVA         1 TEMP              0 ****  ****    0 ROOT
