@<TRIPOS>MOLECULE
GVA
   23    22     1     0     0
SMALL
bcc


@<TRIPOS>ATOM
      1 OB          0.1430    0.8670   -0.1200 o         1 GVA     -0.849800
      2 C           1.1470    0.1020   -0.0460 c         1 GVA      0.909600
      3 OA          1.4510   -0.5690    0.9810 o         1 GVA     -0.849800
      4 CA          2.0760   -0.0100   -1.2700 c3        1 GVA     -0.196400
      5 CB          1.2850   -0.0560   -2.5540 c3        1 GVA     -0.066400
      6 CG          2.1830    0.0510   -3.7690 c3        1 GVA     -0.088400
      7 CD          1.3410   -0.0020   -5.0450 c3        1 GVA      0.178800
      8 NE          2.1280    0.1450   -6.2500 nh        1 GVA     -0.852200
      9 CZ          1.5580   -0.1630   -7.5270 c2        1 GVA      0.762100
     10 NH2         0.1340   -0.2670   -7.6020 nh        1 GVA     -0.885800
     11 NH1         2.2550   -0.3290   -8.6330 n2        1 GVA     -0.917100
     12 HA1         2.7520    0.8830   -1.2660 hc        1 GVA      0.020700
     13 HA2         2.7140   -0.9230   -1.1690 hc        1 GVA      0.020700
     14 HB1         0.5400    0.7840   -2.5450 hc        1 GVA      0.048700
     15 HB2         0.7030   -1.0140   -2.5990 hc        1 GVA      0.048700
     16 HG1         2.7580    1.0120   -3.7270 hc        1 GVA      0.034700
     17 HG2         2.9270   -0.7880   -3.7640 hc        1 GVA      0.034700
     18 HD1         0.5960    0.8450   -5.0150 h1        1 GVA      0.041200
     19 HD2         0.7590   -0.9700   -5.0440 h1        1 GVA      0.041200
     20 HNE         3.0610   -0.1980   -6.1480 hn        1 GVA      0.396800
     21 HH21       -0.2120   -0.2100   -8.5370 hn        1 GVA      0.394300
     22 HH22       -0.3450    0.3530   -6.9850 hn        1 GVA      0.394300
     23 HNH1        3.2430   -0.3510   -8.5110 hn        1 GVA      0.380400
@<TRIPOS>BOND
     1    1    2 1   
     2    2    3 1   
     3    2    4 1   
     4    4    5 1   
     5    4   12 1   
     6    4   13 1   
     7    5    6 1   
     8    5   14 1   
     9    5   15 1   
    10    6    7 1   
    11    6   16 1   
    12    6   17 1   
    13    7    8 1   
    14    7   18 1   
    15    7   19 1   
    16    8    9 1   
    17    8   20 1   
    18    9   10 1   
    19    9   11 2   
    20   10   21 1   
    21   10   22 1   
    22   11   23 1   
@<TRIPOS>SUBSTRUCTURE
     1 GVA         1 TEMP              0 ****  ****    0 ROOT
