@<TRIPOS>MOLECULE
GVA
   23    20     1     0     0
SMALL
bcc


@<TRIPOS>ATOM
      1 OB         -1.2030   -2.5030    3.9980 o         1 GVA     -0.587000
      2 C          -1.9420   -2.3250    2.9760 c1        1 GVA      0.329000
      3 OA         -3.2190   -2.2390    3.1120 os        1 GVA     -0.582000
      4 CA         -1.3130   -2.2320    1.5830 c3        1 GVA     -0.225000
      5 CB         -0.7060   -0.8380    1.3830 c3        1 GVA     -0.145000
      6 CG         -0.2160   -0.7030   -0.0670 c3        1 GVA     -0.165000
      7 CD          0.5230    0.6530   -0.2440 c3        1 GVA     -0.065000
      8 NE          0.8480    0.8460   -1.6210 n3        1 GVA     -0.328000
      9 CZ          1.5290    2.0770   -2.0410 c2        1 GVA      0.150000
     10 NH2         1.0520    2.8040   -3.1490 n3        1 GVA     -0.321000
     11 NH1         2.5420    2.4850   -1.4080 n1        1 GVA     -0.365000
     12 HA1        -1.9850   -2.3850    0.9200 hc        1 GVA      0.060000
     13 HA2        -0.5950   -2.9240    1.4950 hc        1 GVA      0.060000
     14 HB1        -1.3770   -0.1620    1.5630 hc        1 GVA      0.088000
     15 HB2         0.0430   -0.7200    1.9910 hc        1 GVA      0.088000
     16 HG1         0.4030   -1.4440   -0.2730 hc        1 GVA      0.074500
     17 HG2        -0.9960   -0.7410   -0.6850 hc        1 GVA      0.074500
     18 HD1        -0.0710    1.4010    0.0660 h1        1 GVA      0.080000
     19 HD2         1.3220    0.6480    0.2720 h1        1 GVA      0.080000
     20 HNE         0.7460    0.1590   -2.2120 hn        1 GVA      0.193000
     21 HH21        1.5060    3.5630   -3.4360 hn        1 GVA      0.176500
     22 HH22        0.2520    2.5700   -3.5440 hn        1 GVA      0.176500
     23 HNH1        2.8560    2.0090   -0.6790 DU        1 GVA      0.153000
@<TRIPOS>BOND
     1    1    2 1   
     2    2    4 1   
     3    4    5 1   
     4    4   12 1   
     5    4   13 1   
     6    5    6 1   
     7    5   14 1   
     8    5   15 1   
     9    6    7 1   
    10    6   16 1   
    11    6   17 1   
    12    7    8 1   
    13    7   18 1   
    14    7   19 1   
    15    8    9 1   
    16    8   20 1   
    17    9   10 1   
    18    9   11 1   
    19   10   21 1   
    20   10   22 1   
@<TRIPOS>SUBSTRUCTURE
     1 GVA         1 TEMP              0 ****  ****    0 ROOT
