@<TRIPOS>MOLECULE
GVB
   50    52     1     0     0
SMALL
bcc


@<TRIPOS>ATOM
      1 C29         2.9580   -8.5050   -1.5930 c3        1 GVB      0.111700
      2 O26         3.5980   -7.3680   -2.1740 os        1 GVB     -0.343900
      3 C6          3.2500   -6.1680   -1.5690 ca        1 GVB      0.039100
      4 C7          2.5180   -5.2380   -2.3150 ca        1 GVB     -0.103000
      5 C8          2.2370   -3.9820   -1.7900 ca        1 GVB     -0.181000
      6 C5          3.6980   -5.8180   -0.2820 ca        1 GVB      0.094100
      7 O25         4.3430   -6.7290    0.5450 os        1 GVB     -0.346900
      8 C28         5.6490   -7.0920    0.0920 c3        1 GVB      0.112700
      9 C4          3.4050   -4.5630    0.2560 ca        1 GVB     -0.158000
     10 C3          2.6600   -3.6220   -0.4910 ca        1 GVB      0.144600
     11 N2          2.3020   -2.3910    0.1160 nh        1 GVB     -0.637000
     12 C9          3.4240   -1.5970    0.6060 c3        1 GVB      0.198800
     13 C1          1.3000   -1.6000   -0.5810 c3        1 GVB      0.188800
     14 C22         0.8060   -0.4180    0.2510 c3        1 GVB     -0.075400
     15 C19         1.9630    0.4690    0.7340 c3        1 GVB      0.176500
     16 N20         2.5840    1.1930   -0.3600 n3        1 GVB     -0.918800
     17 C10         2.9560   -0.4380    1.4980 c3        1 GVB     -0.021400
     18 C11         4.1060    0.3300    2.0620 ca        1 GVB     -0.079300
     19 C12         4.0530    0.7330    3.4040 ca        1 GVB     -0.132000
     20 C13         5.1050    1.4520    3.9670 ca        1 GVB     -0.126000
     21 C14         6.2230    1.7760    3.2010 ca        1 GVB     -0.130000
     22 C16         6.2920    1.3800    1.8610 ca        1 GVB     -0.077300
     23 C17         5.2310    0.6590    1.2990 ca        1 GVB     -0.130000
     24 C30         7.4710    1.7310    1.0350 c3        1 GVB     -0.054800
     25 H291        3.2260   -8.5900   -0.5110 h1        1 GVB      0.043700
     26 H292        3.3670   -9.3670   -2.1770 h1        1 GVB      0.043700
     27 H293        1.8510   -8.4320   -1.7170 h1        1 GVB      0.043700
     28 H7          2.1790   -5.5080   -3.3260 ha        1 GVB      0.145000
     29 H8          1.6730   -3.2720   -2.4150 ha        1 GVB      0.137000
     30 H4          3.7470   -4.3400    1.2790 ha        1 GVB      0.154000
     31 H281        6.3160   -6.1960    0.0810 h1        1 GVB      0.045033
     32 H282        5.5940   -7.5530   -0.9240 h1        1 GVB      0.045033
     33 H283        5.9950   -7.8350    0.8530 h1        1 GVB      0.045033
     34 H9C1        4.0240   -1.1860   -0.2570 h1        1 GVB      0.048200
     35 H9C2        4.0990   -2.2620    1.2130 h1        1 GVB      0.048200
     36 H1C1        0.4230   -2.2730   -0.8000 h1        1 GVB      0.043700
     37 H1C2        1.6950   -1.2040   -1.5620 h1        1 GVB      0.043700
     38 H10         2.3720   -0.8780    2.3600 hc        1 GVB      0.068700
     39 H221        0.0890    0.1730   -0.3740 hc        1 GVB      0.050200
     40 H222        0.2510   -0.7880    1.1530 hc        1 GVB      0.050200
     41 H19         1.5310    1.1900    1.5000 h1        1 GVB      0.012700
     42 H201        3.3730    1.7140   -0.0290 hn        1 GVB      0.354300
     43 H202        1.9230    1.8170   -0.7780 hn        1 GVB      0.354300
     44 H12         3.1760    0.4770    4.0190 ha        1 GVB      0.132000
     45 H17         5.2950    0.3510    0.2440 ha        1 GVB      0.143000
     46 H13         5.0540    1.7620    5.0210 ha        1 GVB      0.132000
     47 H14         7.0540    2.3400    3.6490 ha        1 GVB      0.132000
     48 H301        8.3860    1.8340    1.6680 hc        1 GVB      0.045033
     49 H302        7.6630    0.9500    0.2590 hc        1 GVB      0.045033
     50 H303        7.2950    2.7060    0.5140 hc        1 GVB      0.045033
@<TRIPOS>BOND
     1    1    2 1   
     2    1   25 1   
     3    1   26 1   
     4    1   27 1   
     5    2    3 1   
     6    3    4 ar  
     7    3    6 ar  
     8    4    5 ar  
     9    4   28 1   
    10    5   10 ar  
    11    5   29 1   
    12    6    7 1   
    13    6    9 ar  
    14    7    8 1   
    15    8   31 1   
    16    8   32 1   
    17    8   33 1   
    18    9   10 ar  
    19    9   30 1   
    20   10   11 1   
    21   11   12 1   
    22   11   13 1   
    23   12   17 1   
    24   12   34 1   
    25   12   35 1   
    26   13   14 1   
    27   13   36 1   
    28   13   37 1   
    29   14   15 1   
    30   14   39 1   
    31   14   40 1   
    32   15   16 1   
    33   15   17 1   
    34   15   41 1   
    35   16   42 1   
    36   16   43 1   
    37   17   18 1   
    38   17   38 1   
    39   18   19 ar  
    40   18   23 ar  
    41   19   20 ar  
    42   19   44 1   
    43   20   21 ar  
    44   20   46 1   
    45   21   22 ar  
    46   21   47 1   
    47   22   23 ar  
    48   22   24 1   
    49   23   45 1   
    50   24   48 1   
    51   24   49 1   
    52   24   50 1   
@<TRIPOS>SUBSTRUCTURE
     1 GVB         1 TEMP              0 ****  ****    0 ROOT
