@<TRIPOS>MOLECULE
GVB
   50    43     1     0     0
SMALL
bcc


@<TRIPOS>ATOM
      1 C29        -4.5620    1.1690   -5.1940 c3        1 GVB     -0.077000
      2 O26        -3.6730    0.0920   -4.8220 os        1 GVB     -0.205000
      3 C6         -3.2080    0.1660   -3.4860 c2        1 GVB      0.053000
      4 C7         -2.3700    1.1980   -3.1070 c1        1 GVB     -0.080000
      5 C8         -1.7450    1.1650   -1.8730 c1        1 GVB     -0.110000
      6 C5         -3.4250   -0.9090   -2.6230 c1        1 GVB     -0.080000
      7 O25        -4.2270   -2.0220   -3.0540 o         1 GVB     -0.213000
      8 C28        -3.4780   -3.0370   -3.8330 c3        1 GVB     -0.074000
      9 C4         -2.8250   -0.9430   -1.4350 c1        1 GVB     -0.110000
     10 C3         -1.9510    0.1320   -1.0410 c2        1 GVB     -0.013000
     11 N2         -1.0010    0.0380    0.5850 n3        1 GVB     -0.224000
     12 C9          0.5850    0.0820    0.2550 c3        1 GVB     -0.059000
     13 C1         -1.4870    1.3030    1.5670 c3        1 GVB     -0.062000
     14 C22        -0.4150    1.8650    2.2400 c3        1 GVB     -0.206000
     15 C19         0.6480    1.1590    2.7810 c3        1 GVB     -0.019000
     16 N20         1.7690    2.0570    2.9670 n3        1 GVB     -0.337000
     17 C10         1.1110   -0.0720    1.8200 c3        1 GVB     -0.060000
     18 C11         2.5320   -0.1560    1.8240 c2        1 GVB     -0.059000
     19 C12         3.2740    0.5780    0.8930 c1        1 GVB     -0.144000
     20 C13         4.6800    0.3850    0.7930 c1        1 GVB     -0.127000
     21 C14         5.3180   -0.5380    1.6240 c1        1 GVB     -0.131000
     22 C16         4.5740   -1.2740    2.5580 c1        1 GVB     -0.067000
     23 C17         3.1770   -1.0830    2.6590 c1        1 GVB     -0.117000
     24 C30         5.2920   -2.3630    3.4530 c3        1 GVB     -0.180000
     25 H291       -4.0530    1.9170   -5.4670 h1        1 GVB      0.084667
     26 H292       -5.1370    0.8790   -5.9350 h1        1 GVB      0.084667
     27 H293       -5.1150    1.4140   -4.4280 h1        1 GVB      0.084667
     28 H7         -2.2200    1.9430   -3.7050 DU        1 GVB      0.137000
     29 H8         -1.1540    1.8920   -1.6070 DU        1 GVB      0.137000
     30 H4         -2.9870   -1.7400   -0.7970 DU        1 GVB      0.137000
     31 H281       -3.9950   -3.2430   -4.7370 h1        1 GVB      0.082333
     32 H282       -2.5770   -2.6970   -4.0410 h1        1 GVB      0.082333
     33 H283       -3.4020   -3.8860   -3.2880 h1        1 GVB      0.082333
     34 H9C1        0.8910   -0.7550   -0.3610 h1        1 GVB      0.078500
     35 H9C2        0.8580    0.9700   -0.1440 h1        1 GVB      0.078500
     36 H1C1       -1.9140    1.9950    1.0150 h1        1 GVB      0.081000
     37 H1C2       -2.1900    0.9400    2.2750 h1        1 GVB      0.081000
     38 H10         0.7410   -0.9270    2.1970 hc        1 GVB      0.108000
     39 H221       -0.8070    2.3770    2.9880 hc        1 GVB      0.082000
     40 H222       -0.0040    2.5460    1.5950 hc        1 GVB      0.082000
     41 H19         0.3790    0.8030    3.6540 h1        1 GVB      0.107000
     42 H201        1.7980    2.3500    3.9040 hn        1 GVB      0.145500
     43 H202        1.6690    2.8050    2.4050 hn        1 GVB      0.145500
     44 H12         2.8630    1.1700    0.3590 DU        1 GVB      0.137000
     45 H17         2.6320   -1.6240    3.3460 DU        1 GVB      0.137000
     46 H13         5.2230    0.9220    0.1120 DU        1 GVB      0.137000
     47 H14         6.3170   -0.6740    1.5530 DU        1 GVB      0.137000
     48 H301        4.9490   -2.3090    4.3860 hc        1 GVB      0.084000
     49 H302        5.1130   -3.2600    3.0880 hc        1 GVB      0.084000
     50 H303        6.2830   -2.1940    3.4480 hc        1 GVB      0.084000
@<TRIPOS>BOND
     1    1    2 1   
     2    1   25 1   
     3    1   26 1   
     4    1   27 1   
     5    2    3 1   
     6    3    4 1   
     7    3    6 1   
     8    4    5 1   
     9    5   10 1   
    10    6    9 1   
    11    7    8 1   
    12    8   31 1   
    13    8   32 1   
    14    8   33 1   
    15    9   10 1   
    16   10   11 1   
    17   11   12 1   
    18   11   13 1   
    19   12   17 1   
    20   12   34 1   
    21   12   35 1   
    22   13   14 1   
    23   13   36 1   
    24   13   37 1   
    25   14   15 1   
    26   14   39 1   
    27   14   40 1   
    28   15   16 1   
    29   15   17 1   
    30   15   41 1   
    31   16   42 1   
    32   16   43 1   
    33   17   18 1   
    34   17   38 1   
    35   18   19 1   
    36   18   23 1   
    37   19   20 1   
    38   20   21 1   
    39   21   22 1   
    40   22   24 1   
    41   24   48 1   
    42   24   49 1   
    43   24   50 1   
@<TRIPOS>SUBSTRUCTURE
     1 GVB         1 TEMP              0 ****  ****    0 ROOT
