@<TRIPOS>MOLECULE
GVC
   23    24     1     0     0
SMALL
bcc


@<TRIPOS>ATOM
      1 O5          0.7530    1.0950   -0.5630 o         1 GVC     -0.788800
      2 C1          1.1900   -0.0200   -0.1960 c         1 GVC      0.863100
      3 C35         2.0750   -0.0110    1.0790 cc        1 GVC      0.526500
      4 N10         1.6140   -0.1090    2.3490 nd        1 GVC     -0.538800
      5 N9          3.4910    0.1120    1.0270 nc        1 GVC     -0.668000
      6 C34         3.8880    0.0800    2.3120 cd        1 GVC      0.407800
      7 C36         5.2780    0.1980    2.8110 c3        1 GVC     -0.123400
      8 N8          2.7270   -0.0720    3.1420 na        1 GVC     -0.040500
      9 C30         2.6710   -0.0710    4.5480 ca        1 GVC      0.093800
     10 C31         3.7010   -0.6610    5.3120 ca        1 GVC     -0.149500
     11 C32         3.6330   -0.6320    6.7050 ca        1 GVC      0.039400
     12 C33         2.5560   -0.0540    7.3750 ca        1 GVC     -0.158000
     13 CL5         4.8960   -1.3330    7.6120 cl        1 GVC     -0.107900
     14 C29         1.5650    0.5070    5.2190 ca        1 GVC     -0.149500
     15 C28         1.5260    0.5030    6.6110 ca        1 GVC      0.039400
     16 CL1         0.1950    1.2030    7.4110 cl        1 GVC     -0.107900
     17 OXT         1.0020   -1.1390   -0.7250 o         1 GVC     -0.788800
     18 H361        5.9050    0.7410    2.0610 hc        1 GVC      0.052367
     19 H362        5.3110    0.7580    3.7780 hc        1 GVC      0.052367
     20 H363        5.7140   -0.8220    2.9640 hc        1 GVC      0.052367
     21 H31         4.5490   -1.1620    4.8180 ha        1 GVC      0.171000
     22 H29         0.7340    0.9490    4.6420 ha        1 GVC      0.171000
     23 H33         2.5130   -0.0420    8.4730 ha        1 GVC      0.152000
@<TRIPOS>BOND
     1    1    2 1   
     2    2    3 1   
     3    2   17 1   
     4    3    4 2   
     5    3    5 1   
     6    4    8 1   
     7    5    6 2   
     8    6    7 1   
     9    6    8 1   
    10    7   18 1   
    11    7   19 1   
    12    7   20 1   
    13    8    9 1   
    14    9   10 ar  
    15    9   14 ar  
    16   10   11 ar  
    17   10   21 1   
    18   11   12 ar  
    19   11   13 1   
    20   12   15 ar  
    21   12   23 1   
    22   14   15 ar  
    23   14   22 1   
    24   15   16 1   
@<TRIPOS>SUBSTRUCTURE
     1 GVC         1 TEMP              0 ****  ****    0 ROOT
