@<TRIPOS>MOLECULE
GVC
   23    24     1     0     0
SMALL
bcc


@<TRIPOS>ATOM
      1 O5         -3.6570   -0.4400   -2.7090 o         1 GVC     -0.788800
      2 C1         -2.6440    0.2750   -2.8870 c         1 GVC      0.863100
      3 C35        -1.7200    0.4550   -1.6530 cc        1 GVC      0.526500
      4 N10        -0.7070   -0.3740   -1.3100 nd        1 GVC     -0.538800
      5 N9         -1.8660    1.5370   -0.7400 nc        1 GVC     -0.668000
      6 C34        -0.9000    1.3470    0.1760 cd        1 GVC      0.407800
      7 C36        -0.6330    2.1880    1.3670 c3        1 GVC     -0.123400
      8 N8         -0.1630    0.1680   -0.1790 na        1 GVC     -0.040500
      9 C30         0.8790   -0.4430    0.5430 ca        1 GVC      0.093800
     10 C31         1.8240    0.3370    1.2470 ca        1 GVC     -0.149500
     11 C32         2.8380   -0.2910    1.9700 ca        1 GVC      0.039400
     12 C33         2.9650   -1.6790    2.0020 ca        1 GVC     -0.158000
     13 CL5         3.9580    0.6660    2.8290 cl        1 GVC     -0.107900
     14 C29         1.0080   -1.8540    0.5580 ca        1 GVC     -0.149500
     15 C28         2.0420   -2.4420    1.2800 ca        1 GVC      0.039400
     16 CL1         2.1880   -4.1400    1.2970 cl        1 GVC     -0.107900
     17 OXT        -2.2810    0.8590   -3.9340 o         1 GVC     -0.788800
     18 H361        0.1570    2.9440    1.1280 hc        1 GVC      0.052367
     19 H362       -1.5640    2.7330    1.6620 hc        1 GVC      0.052367
     20 H363       -0.2930    1.5650    2.2310 hc        1 GVC      0.052367
     21 H31         1.7790    1.4370    1.2120 ha        1 GVC      0.171000
     22 H29         0.2970   -2.4820   -0.0070 ha        1 GVC      0.171000
     23 H33         3.7710   -2.1610    2.5740 ha        1 GVC      0.152000
@<TRIPOS>BOND
     1    1    2 1   
     2    2    3 1   
     3    2   17 1   
     4    3    4 2   
     5    3    5 1   
     6    4    8 1   
     7    5    6 2   
     8    6    7 1   
     9    6    8 1   
    10    7   18 1   
    11    7   19 1   
    12    7   20 1   
    13    8    9 1   
    14    9   10 ar  
    15    9   14 ar  
    16   10   11 ar  
    17   10   21 1   
    18   11   12 ar  
    19   11   13 1   
    20   12   15 ar  
    21   12   23 1   
    22   14   15 ar  
    23   14   22 1   
    24   15   16 1   
@<TRIPOS>SUBSTRUCTURE
     1 GVC         1 TEMP              0 ****  ****    0 ROOT
