@<TRIPOS>MOLECULE
GVC
   23    24     1     0     0
SMALL
bcc


@<TRIPOS>ATOM
      1 O5          0.7080    1.0920   -0.5410 o         1 GVC     -0.788800
      2 C1          1.2110   -0.0050   -0.2050 c         1 GVC      0.863100
      3 C35         2.0880    0.0200    1.0750 cc        1 GVC      0.526500
      4 N10         1.6290   -0.1440    2.3380 nd        1 GVC     -0.538800
      5 N9          3.4950    0.2300    1.0350 nc        1 GVC     -0.668000
      6 C34         3.8870    0.1850    2.3200 cd        1 GVC      0.407800
      7 C36         5.2660    0.3720    2.8310 c3        1 GVC     -0.123400
      8 N8          2.7350   -0.0630    3.1390 na        1 GVC     -0.040500
      9 C30         2.6730   -0.1080    4.5430 ca        1 GVC      0.093800
     10 C31         3.7350   -0.6560    5.2960 ca        1 GVC     -0.149500
     11 C32         3.6590   -0.6730    6.6890 ca        1 GVC      0.039400
     12 C33         2.5460   -0.1830    7.3700 ca        1 GVC     -0.158000
     13 Cl5         4.9590   -1.3230    7.5820 cl        1 GVC     -0.107900
     14 C29         1.5310    0.3810    5.2250 ca        1 GVC     -0.149500
     15 C28         1.4870    0.3330    6.6160 ca        1 GVC      0.039400
     16 Cl1         0.1120    0.9260    7.4290 cl        1 GVC     -0.107900
     17 OXT         1.0940   -1.1170   -0.7680 o         1 GVC     -0.788800
     18 H361        5.8620    0.9750    2.1010 hc        1 GVC      0.052367
     19 H362        5.2600    0.9040    3.8140 hc        1 GVC      0.052367
     20 H363        5.7630   -0.6230    2.9560 hc        1 GVC      0.052367
     21 H31         4.6130   -1.0890    4.7920 ha        1 GVC      0.171000
     22 H29         0.6770    0.7890    4.6570 ha        1 GVC      0.171000
     23 H33         2.4980   -0.2060    8.4670 ha        1 GVC      0.152000
@<TRIPOS>BOND
     1    1    2 1   
     2    2    3 1   
     3    2   17 1   
     4    3    4 2   
     5    3    5 1   
     6    4    8 1   
     7    5    6 2   
     8    6    7 1   
     9    6    8 1   
    10    7   18 1   
    11    7   19 1   
    12    7   20 1   
    13    8    9 1   
    14    9   10 ar  
    15    9   14 ar  
    16   10   11 ar  
    17   10   21 1   
    18   11   12 ar  
    19   11   13 1   
    20   12   15 ar  
    21   12   23 1   
    22   14   15 ar  
    23   14   22 1   
    24   15   16 1   
@<TRIPOS>SUBSTRUCTURE
     1 GVC         1 TEMP              0 ****  ****    0 ROOT
