@<TRIPOS>MOLECULE
GVC
   23    19     1     0     0
SMALL
bcc


@<TRIPOS>ATOM
      1 O5         -3.1580    0.5020   -3.8290 o         1 GVC     -0.523500
      2 C1         -1.9410    0.8240   -3.7860 c1        1 GVC      0.422000
      3 C35        -1.2130    0.8530   -2.4600 c1        1 GVC     -0.089000
      4 N10        -0.9170   -0.2110   -1.7010 n2        1 GVC     -0.106000
      5 N9         -0.7510    1.9480   -1.8360 n2        1 GVC     -0.142000
      6 C34        -0.1690    1.5600   -0.6910 c1        1 GVC     -0.038000
      7 C36         0.4880    2.4670    0.3250 c2        1 GVC     -0.147000
      8 N8         -0.2710    0.2260   -0.6060 n3        1 GVC     -0.167000
      9 C30         0.1620   -0.5340    0.4090 c1        1 GVC      0.139000
     10 C31         1.4570   -1.0270    0.4010 c1        1 GVC     -0.171000
     11 C32         1.8800   -1.8790    1.4080 c1        1 GVC     -0.039000
     12 C33         1.0090   -2.2370    2.4240 c1        1 GVC     -0.143000
     13 CL5         3.4920   -2.5390    1.3700 cl        1 GVC     -0.029500
     14 C29        -0.7090   -0.8930    1.4250 c1        1 GVC     -0.143000
     15 C28        -0.2860   -1.7440    2.4320 c1        1 GVC     -0.039000
     16 CL1        -1.3970   -2.2340    3.6820 cl        1 GVC     -0.029500
     17 OXT        -1.3230    1.0900   -4.8490 o         1 GVC     -0.523500
     18 H361        0.5980    3.3610   -0.0600 ha        1 GVC      0.091667
     19 H362        1.3660    2.1040    0.5670 ha        1 GVC      0.091667
     20 H363       -0.0750    2.5220    1.1250 ha        1 GVC      0.091667
     21 H31         2.0700   -0.7750   -0.3150 ha        1 GVC      0.157000
     22 H29        -1.6210   -0.5460    1.4310 ha        1 GVC      0.168500
     23 H33         1.3070   -2.8370    3.1330 ha        1 GVC      0.168500
@<TRIPOS>BOND
     1    1    2 1   
     2    2   17 1   
     3    3    4 1   
     4    3    5 1   
     5    4    8 1   
     6    5    6 1   
     7    6    8 1   
     8    7   18 1   
     9    7   19 1   
    10    7   20 1   
    11    8    9 1   
    12    9   10 1   
    13   10   21 1   
    14   11   12 1   
    15   11   13 1   
    16   12   23 1   
    17   14   15 1   
    18   14   22 1   
    19   15   16 1   
@<TRIPOS>SUBSTRUCTURE
     1 GVC         1 TEMP              0 ****  ****    0 ROOT
