@<TRIPOS>MOLECULE
GVD
   48    52     1     0     0
SMALL
bcc


@<TRIPOS>ATOM
      1 CAL         2.7720    9.0230    1.6500 cx        1 GVD     -0.126900
      2 CAM         2.0710    9.7190    0.5250 cx        1 GVD     -0.126900
      3 CBB         1.9970    8.2150    0.6370 cx        1 GVD     -0.061400
      4 CAX         0.7560    7.5480    1.0050 cc        1 GVD     -0.068600
      5 CAK         0.2680    6.3040    0.5700 cd        1 GVD     -0.240300
      6 NAS        -0.2000    8.0550    1.8980 na        1 GVD     -0.007600
      7 NAN        -1.2330    7.2410    2.0740 nc        1 GVD     -0.552800
      8 CAV        -0.9980    6.1400    1.2660 cd        1 GVD      0.499200
      9 NAR        -1.9000    5.0720    1.1030 nh        1 GVD     -0.787600
     10 C6         -1.4850    3.7410    1.2820 ca        1 GVD      0.701200
     11 N1         -0.1770    3.4470    1.3900 nb        1 GVD     -0.767000
     12 C5         -2.5070    2.6920    1.2870 ca        1 GVD     -0.297600
     13 CAJ        -3.8940    2.9230    1.1460 ca        1 GVD     -0.088000
     14 CAD        -4.7860    1.8760    1.1870 ca        1 GVD     -0.147000
     15 CAC        -4.3260    0.5540    1.3660 ca        1 GVD     -0.102000
     16 CAI        -2.9850    0.2880    1.4920 ca        1 GVD     -0.182300
     17 C4         -2.0290    1.3550    1.4450 ca        1 GVD      0.447600
     18 N3         -0.6880    1.0530    1.5500 nb        1 GVD     -0.716000
     19 C2          0.1740    2.0930    1.4800 ca        1 GVD      0.864000
     20 NAQ         1.5750    1.7950    1.3920 ne        1 GVD     -0.612700
     21 CAU         2.3780    1.9880    2.3910 cf        1 GVD      0.557900
     22 CAG         3.8140    1.6750    2.2120 cf        1 GVD     -0.228600
     23 CAE         4.6780    1.7000    3.2330 c2        1 GVD     -0.137700
     24 NAA         5.4170    5.3020    4.1750 n1        1 GVD     -0.364800
     25 CAF         2.8930    2.5120    4.7470 c2        1 GVD     -0.137700
     26 CAH         2.0220    2.4900    3.7320 cf        1 GVD     -0.228600
     27 CA0         5.2860    2.9540    5.3030 c3        1 GVD     -0.009300
     28 CAT         4.2890    2.0060    4.6370 c3        1 GVD     -0.011300
     29 HAL1        3.8750    8.9530    1.6410 hc        1 GVD      0.075700
     30 HAL2        2.3800    9.1220    2.6770 hc        1 GVD      0.075700
     31 HAM1        1.1710   10.3220    0.7380 hc        1 GVD      0.075700
     32 HAM2        2.6670   10.1530   -0.2980 hc        1 GVD      0.075700
     33 HBB         2.5740    7.6100   -0.0940 hc        1 GVD      0.104700
     34 HAK         0.7330    5.6020   -0.1130 ha        1 GVD      0.185000
     35 HAS        -0.1650    8.9250    2.3740 hn        1 GVD      0.321700
     36 HAR        -2.8210    5.2570    1.4500 hn        1 GVD      0.432800
     37 HAJ        -4.2820    3.9410    0.9860 ha        1 GVD      0.132000
     38 HAD        -5.8650    2.0590    1.0760 ha        1 GVD      0.137000
     39 HAC        -5.0590   -0.2680    1.3990 ha        1 GVD      0.137000
     40 HAI        -2.6220   -0.7440    1.6220 ha        1 GVD      0.155000
     41 HAG         4.1450    1.4210    1.1910 ha        1 GVD      0.154000
     42 HAH         0.9920    2.8630    3.8650 ha        1 GVD      0.154000
     43 HAE         5.7450    1.4710    3.0760 ha        1 GVD      0.135500
     44 HAT         4.3360    1.0300    5.2170 hc        1 GVD      0.083700
     45 HA01        6.3100    2.4880    5.2760 hc        1 GVD      0.076700
     46 HA02        4.9970    3.0920    6.3830 hc        1 GVD      0.076700
     47 HAF         2.6050    2.9000    5.7370 ha        1 GVD      0.135500
     48 CAB         5.3510    4.2520    4.6720 c1        1 GVD      0.209700
@<TRIPOS>BOND
     1    1    2 1   
     2    1    3 1   
     3    1   29 1   
     4    1   30 1   
     5    2    3 1   
     6    2   31 1   
     7    2   32 1   
     8    3    4 1   
     9    3   33 1   
    10    4    5 2   
    11    4    6 1   
    12    5    8 1   
    13    5   34 1   
    14    6    7 1   
    15    6   35 1   
    16    7    8 2   
    17    8    9 1   
    18    9   10 1   
    19    9   36 1   
    20   10   11 ar  
    21   10   12 ar  
    22   11   19 ar  
    23   12   13 ar  
    24   12   17 ar  
    25   13   14 ar  
    26   13   37 1   
    27   14   15 ar  
    28   14   38 1   
    29   15   16 ar  
    30   15   39 1   
    31   16   17 ar  
    32   16   40 1   
    33   17   18 ar  
    34   18   19 ar  
    35   19   20 1   
    36   20   21 2   
    37   21   22 1   
    38   21   26 1   
    39   22   23 2   
    40   22   41 1   
    41   23   28 1   
    42   23   43 1   
    43   24   48 3   
    44   25   26 2   
    45   25   28 1   
    46   25   47 1   
    47   26   42 1   
    48   27   28 1   
    49   27   45 1   
    50   27   46 1   
    51   27   48 1   
    52   28   44 1   
@<TRIPOS>SUBSTRUCTURE
     1 GVD         1 TEMP              0 ****  ****    0 ROOT
