@<TRIPOS>MOLECULE
GVD
   49    46     1     0     0
SMALL
bcc


@<TRIPOS>ATOM
      1 CAL        -2.0990   -0.1000    2.5180 c3        1 GVD     -0.194000
      2 CAM         0.3310    0.2690    2.2470 c2        1 GVD     -0.086000
      3 CBB        -0.6820   -0.5520    2.5860 c2        1 GVD     -0.152000
      4 CAX        -0.4920   -1.9120    3.0280 c2        1 GVD      0.111000
      5 CAK         0.7150   -2.5180    3.2280 c2        1 GVD     -0.312000
      6 NAS         0.3080   -5.6850    1.3830 n1        1 GVD      0.000500
      7 NAN        -0.3210   -6.4420    0.8790 n1        1 GVD      0.000500
      8 CAV         0.7630   -3.8800    3.6590 c2        1 GVD      0.217000
      9 NAR         1.8990   -4.5430    3.8500 nh        1 GVD     -0.141000
     10 C6          1.9880   -5.9180    4.2470 c2        1 GVD      0.103000
     11 N1          0.8460   -6.6610    4.2400 n2        1 GVD     -0.207000
     12 C5          3.2560   -6.4500    4.5990 c2        1 GVD     -0.122000
     13 CAJ         4.4860   -5.6810    4.5980 c2        1 GVD     -0.151000
     14 CAD         4.6750   -4.5400    5.2630 c2        1 GVD     -0.188000
     15 CAC         5.5410   -8.9700    5.5880 c1        1 GVD     -0.050000
     16 CAI         4.5110   -8.4400    5.2860 c1        1 GVD     -0.193000
     17 C4          3.2760   -7.8430    4.9410 c2        1 GVD      0.209000
     18 N3          2.1620   -8.6100    4.9500 n2        1 GVD     -0.119000
     19 C2          0.9790   -7.9830    4.6010 c2        1 GVD      0.239000
     20 NAQ        -0.1850   -8.7370    4.6000 n2        1 GVD     -0.307000
     21 CAU        -1.1890   -9.3680    4.5900 c1        1 GVD      0.256000
     22 CAG        -0.1090   -3.4110    7.6890 c1        1 GVD     -0.223000
     23 CAE         0.5300   -2.4010    7.6570 c1        1 GVD     -0.223000
     24 NAA        -2.4640   -5.2050    2.6700 n1        1 GVD     -0.151000
     25 CAF        -4.4550   -8.5480    3.6000 c2        1 GVD     -0.518000
     26 CAH        -4.9580   -9.7610    3.5140 c1        1 GVD      0.242000
     27 CA0        -4.7020   -6.4760    2.2350 c3        1 GVD     -0.091000
     28 CAT        -5.1860   -7.2710    3.4380 c3        1 GVD     -0.068000
     29 HAL1       -2.5800   -0.1750    3.5250 hc        1 GVD      0.101333
     30 HAL2       -2.6750   -0.7370    1.8010 hc        1 GVD      0.101333
     31 HAM1       -2.1680    0.9620    2.1750 hc        1 GVD      0.101333
     32 HAM2        0.1480    1.3010    1.9090 ha        1 GVD      0.137500
     33 HBB         1.3880   -0.0290    2.2780 ha        1 GVD      0.137500
     34 HAK         1.6590   -1.9750    3.0510 ha        1 GVD      0.161000
     35 HAS        -1.4280   -2.4850    3.2090 ha        1 GVD      0.163000
     36 HAR        -0.2050   -4.4110    3.8530 h4        1 GVD      0.229000
     37 HAJ         5.3090   -6.1450    4.0200 ha        1 GVD      0.163000
     38 HAD         5.6430   -4.0160    5.2420 ha        1 GVD      0.133000
     39 HAC         3.9100   -4.0720    5.8990 ha        1 GVD      0.133000
     40 HAI         6.4620   -9.4340    5.8550 ha        1 GVD      0.249000
     41 HAG        -0.6820   -4.3030    7.7430 ha        1 GVD      0.223500
     42 HAH        -3.3740   -8.4610    3.8440 ha        1 GVD      0.190000
     43 HAE        -5.0770   -6.6600    4.3740 hc        1 GVD      0.103000
     44 HAT         1.0890   -1.4990    7.6540 ha        1 GVD      0.223500
     45 HA01       -6.2840   -7.4720    3.2980 hc        1 GVD      0.103000
     46 HA02       -5.4830   -5.7130    1.9570 hc        1 GVD      0.131000
     47 HAF        -4.5620   -7.1610    1.3520 hc        1 GVD      0.131000
     48 CAB        -3.4590   -5.7790    2.4860 c1        1 GVD     -0.072000
     49 HAR2        2.7920   -4.1000    3.6900 hn        1 GVD      0.278000
@<TRIPOS>BOND
     1    1    3 1   
     2    1   29 1   
     3    1   30 1   
     4    1   31 1   
     5    2    3 1   
     6    2   32 1   
     7    2   33 1   
     8    3    4 1   
     9    4    5 1   
    10    4   35 1   
    11    5    8 1   
    12    5   34 1   
    13    6    7 1   
    14    8    9 1   
    15    8   36 1   
    16    9   10 1   
    17    9   49 1   
    18   10   11 1   
    19   10   12 1   
    20   11   19 1   
    21   12   13 1   
    22   12   17 1   
    23   13   14 1   
    24   13   37 1   
    25   14   38 1   
    26   14   39 1   
    27   15   16 1   
    28   15   40 1   
    29   16   17 1   
    30   17   18 1   
    31   18   19 1   
    32   19   20 1   
    33   20   21 1   
    34   22   23 1   
    35   22   41 1   
    36   23   44 1   
    37   24   48 1   
    38   25   26 1   
    39   25   28 1   
    40   25   42 1   
    41   27   28 1   
    42   27   46 1   
    43   27   47 1   
    44   27   48 1   
    45   28   43 1   
    46   28   45 1   
@<TRIPOS>SUBSTRUCTURE
     1 GVD         1 TEMP              0 ****  ****    0 ROOT
