@<TRIPOS>MOLECULE
GVD
   48    44     1     0     0
SMALL
bcc


@<TRIPOS>ATOM
      1 CAL         1.1270    2.6640   -7.2590 cx        1 GVD     -0.199500
      2 CAM         0.5680    3.9300   -6.6910 cx        1 GVD     -0.199500
      3 CBB         0.0210    2.5970   -6.2260 cx        1 GVD     -0.121000
      4 CAX         0.5670    2.2320   -4.8750 c2        1 GVD     -0.025000
      5 CAK        -0.1620    2.5740   -3.6920 c1        1 GVD     -0.250000
      6 NAS         1.2750    0.9180   -4.6790 n3        1 GVD     -0.156000
      7 NAN         0.8540    0.5780   -3.2570 n2        1 GVD     -0.054000
      8 CAV         0.0140    1.5920   -2.7420 c1        1 GVD     -0.013000
      9 NAR        -1.0620    1.2510   -1.8540 n3        1 GVD     -0.208000
     10 C6         -0.7920    0.9940   -0.4670 c2        1 GVD      0.176000
     11 N1          0.2980    0.1510   -0.0960 n1        1 GVD     -0.220000
     12 C5         -1.6240    1.6370    0.5830 c2        1 GVD     -0.162000
     13 CAJ        -2.8220    2.5200    0.1890 c1        1 GVD     -0.087000
     14 CAD        -3.6610    3.1790    1.2610 c1        1 GVD     -0.128750
     15 CAC        -3.3190    2.9780    2.7130 c1        1 GVD     -0.128750
     16 CAI        -2.1530    2.0980    3.0990 c1        1 GVD     -0.115000
     17 C4         -1.3180    1.4020    2.0070 c2        1 GVD      0.051000
     18 N3         -0.2190    0.5520    2.3730 n2        1 GVD     -0.185000
     19 C2          0.6010   -0.0830    1.3300 c1        1 GVD      0.116000
     20 NAQ         1.7630   -0.8380    1.6970 n2        1 GVD     -0.107000
     21 CAU         1.6510   -1.8650    2.5230 c1        1 GVD      0.096000
     22 CAG         2.8650   -2.6520    2.9060 c1        1 GVD     -0.128750
     23 CAE         2.7140   -3.9450    3.6870 c1        1 GVD     -0.128750
     24 CAB         0.4310   -6.5970    5.1230 c1        1 GVD     -0.146000
     25 NAA        -0.2010   -7.5400    4.9850 n1        1 GVD     -0.043000
     26 CAF         0.1510   -3.4630    3.9390 c1        1 GVD     -0.126000
     27 CAH         0.3300   -2.1750    3.1550 c2        1 GVD     -0.164000
     28 CA0         1.2720   -5.3430    5.3080 c2        1 GVD     -0.065000
     29 CAT         1.2930   -4.5240    3.9650 c1        1 GVD     -0.060000
     30 HAL1        2.0210    2.4130   -6.9420 hc        1 GVD      0.116000
     31 HAL2        0.8610    2.4570   -8.1820 hc        1 GVD      0.116000
     32 HAM1       -0.0160    4.4450   -7.2910 hc        1 GVD      0.116000
     33 HAM2        1.1450    4.4000   -6.0510 hc        1 GVD      0.116000
     34 HBB        -0.8900    2.2550   -6.3590 hc        1 GVD      0.138000
     35 HAK        -0.2400    3.5140   -3.4170 ha        1 GVD      0.165000
     36 HAS         1.4860    0.3160   -5.3370 hn        1 GVD      0.274000
     37 HAR        -1.9130    1.1540   -2.1820 hn        1 GVD      0.229000
     38 HAJ        -3.0440    2.6510   -0.7560 ha        1 GVD      0.131000
     39 HAD        -4.4180    3.7500    1.0100 ha        1 GVD      0.140250
     40 HAC        -3.8630    3.4050    3.4090 ha        1 GVD      0.140250
     41 HAI        -1.9300    1.9670    4.0450 ha        1 GVD      0.155000
     42 HAG         3.7590   -2.2880    2.7310 ha        1 GVD      0.140250
     43 HAH        -0.3870   -1.5100    3.1390 ha        1 GVD      0.154000
     44 HAE         3.5100   -4.4600    3.9370 ha        1 GVD      0.140250
     45 HAT         1.0960   -5.2350    3.3170 ha        1 GVD      0.125000
     46 HA01        2.1890   -5.5970    5.5510 ha        1 GVD      0.121500
     47 HA02        0.8840   -4.7920    6.0220 ha        1 GVD      0.121500
     48 HAF        -0.7150   -3.6660    4.3540 ha        1 GVD      0.141000
@<TRIPOS>BOND
     1    1    2 1   
     2    1    3 1   
     3    1   30 1   
     4    1   31 1   
     5    2    3 1   
     6    2   32 1   
     7    2   33 1   
     8    3    4 1   
     9    3   34 1   
    10    4    5 1   
    11    4    6 1   
    12    5   35 1   
    13    6    7 1   
    14    6   36 1   
    15    7    8 1   
    16    8    9 1   
    17    9   10 1   
    18    9   37 1   
    19   10   11 1   
    20   10   12 1   
    21   12   13 1   
    22   12   17 1   
    23   13   38 1   
    24   14   15 1   
    25   14   39 1   
    26   15   40 1   
    27   16   17 1   
    28   16   41 1   
    29   17   18 1   
    30   18   19 1   
    31   19   20 1   
    32   20   21 1   
    33   21   27 1   
    34   22   23 1   
    35   22   42 1   
    36   23   44 1   
    37   24   25 1   
    38   26   27 1   
    39   26   48 1   
    40   27   43 1   
    41   28   29 1   
    42   28   46 1   
    43   28   47 1   
    44   29   45 1   
@<TRIPOS>SUBSTRUCTURE
     1 GVD         1 TEMP              0 ****  ****    0 ROOT
