@<TRIPOS>MOLECULE
GVD
   49    67     1     0     0
SMALL
bcc


@<TRIPOS>ATOM
      1 CAL         0.0000    0.0000    0.0000 DU        1 GVD      0.000000
      2 CAM         1.5010    0.0000    0.0000 DU        1 GVD      0.059000
      3 CBB         0.7500    0.0000    1.3080 cx        1 GVD     -0.429000
      4 CAX         0.7500   -1.2590    2.1640 DU        1 GVD     -0.112000
      5 CAK         1.8410   -1.9500    2.6340 c3        1 GVD     -0.325000
      6 NAS        -0.3440   -1.9340    2.6230 n7        1 GVD     -0.026000
      7 NAN        -0.0440   -3.0170    3.3590 n2        1 GVD      0.036000
      8 CAV         1.2640   -2.9910    3.3410 c2        1 GVD     -0.186000
      9 NAR         2.0840   -3.9330    3.9830 ny        1 GVD      0.226000
     10 C6          1.7930   -5.0800    4.7620 c2        1 GVD     -0.206000
     11 N1          0.6490   -5.0550    5.4730 n2        1 GVD      0.004000
     12 C5          2.6820   -6.1520    4.7580 c2        1 GVD     -0.040000
     13 CAJ         3.8710   -6.1540    4.0080 c3        1 GVD     -0.431000
     14 CAD         4.7160   -7.2590    4.0480 c3        1 GVD      0.007000
     15 CAC         4.3760   -8.3550    4.8330 c3        1 GVD     -0.346000
     16 CAI         3.1930   -8.3440    5.5760 c2        1 GVD     -0.188000
     17 C4          2.3270   -7.2520    5.5550 c2        1 GVD     -0.030000
     18 N3          1.1930   -7.2600    6.2780 n2        1 GVD      0.132000
     19 C2          0.4220   -6.1610    6.1930 c2        1 GVD     -0.023000
     20 NAQ        -0.7610   -6.1770    6.9480 n2        1 GVD      0.035000
     21 CAU        -1.8030   -6.6530    6.3430 DU        1 GVD      0.538000
     22 CAG        -3.1310   -6.7390    7.0010 c3        1 GVD     -0.131000
     23 CAE        -4.1790   -7.2550    6.3480 c3        1 GVD      0.139000
     24 NAA        -4.4850   -4.5650    4.0800 n1        1 GVD     -0.041000
     25 CAF        -2.7640   -7.6410    4.3170 c2        1 GVD     -0.407000
     26 CAH        -1.6980   -7.1300    4.9440 c2        1 GVD     -0.168000
     27 CA0        -5.1780   -7.0880    4.0770 c3        1 GVD     -0.164000
     28 CAT        -4.1250   -7.7840    4.9410 DU        1 GVD     -0.316000
     29 HAL1       -0.6210   -0.7080    0.5350 ha        1 GVD      0.181000
     30 HAL2       -0.4670    0.9390   -0.2710 ha        1 GVD      0.181000
     31 HAM1        0.5320   -0.4640   -0.1340 DU        1 GVD      0.058000
     32 HAM2        1.9690   -0.9390   -0.2710 ha        1 GVD      0.122000
     33 HBB         1.3490    0.4630    0.5330 DU        1 GVD      0.175000
     34 HAK         1.4730   -0.9690    2.3590 DU        1 GVD      0.336000
     35 HAS         0.6330   -1.7650    2.7620 DU        1 GVD      0.234000
     36 HAR         1.3100   -3.4080    3.6260 hn        1 GVD      0.188000
     37 HAJ         3.3110   -5.2970    3.6530 hc        1 GVD      0.317000
     38 HAD         4.4210   -6.2700    3.7200 DU        1 GVD      0.342000
     39 HAC         5.0100   -7.8070    4.1470 DU        1 GVD      0.233000
     40 HAI         4.1160   -8.7850    5.2220 DU        1 GVD      0.266000
     41 HAG        -2.1350   -7.1440    6.8670 DU        1 GVD      0.156000
     42 HAH        -2.1760   -6.8980    5.8880 DU        1 GVD     -0.406000
     43 HAE        -3.2360   -7.2020    5.8180 DU        1 GVD      0.259000
     44 HAT        -4.6130   -7.5530    5.8800 DU        1 GVD      0.167000
     45 HA01       -4.7650   -7.9800    4.5330 DU        1 GVD      0.204000
     46 HA02       -5.1580   -7.4860    3.0690 hc        1 GVD      0.114000
     47 HAF        -3.8370   -7.5060    4.3790 DU        1 GVD      0.284000
     48 CAB        -4.7770   -5.6880    4.0890 c1        1 GVD     -0.207000
     49 HAR2        2.6530   -3.3760    4.5890 hn        1 GVD      0.188000
@<TRIPOS>BOND
     1    1    2 1   
     2    1    3 1   
     3    1   29 1   
     4    1   30 1   
     5    1   31 1   
     6    2    3 1   
     7    2   31 1   
     8    2   32 1   
     9    2   33 1   
    10    3    4 1   
    11    3   33 1   
    12    4    5 1   
    13    4    6 1   
    14    4   34 1   
    15    4   35 1   
    16    5    8 1   
    17    5   34 1   
    18    5   35 1   
    19    6    7 1   
    20    6   35 1   
    21    7    8 1   
    22    8    9 1   
    23    9   10 1   
    24    9   36 1   
    25    9   49 1   
    26   10   11 1   
    27   10   12 1   
    28   11   19 1   
    29   12   13 1   
    30   12   17 1   
    31   13   14 1   
    32   13   37 1   
    33   13   38 1   
    34   14   15 1   
    35   14   38 1   
    36   14   39 1   
    37   15   16 1   
    38   15   39 1   
    39   15   40 1   
    40   16   17 1   
    41   16   40 1   
    42   17   18 1   
    43   18   19 1   
    44   19   20 1   
    45   20   21 1   
    46   21   22 1   
    47   21   26 1   
    48   21   41 1   
    49   21   42 1   
    50   22   23 1   
    51   22   41 1   
    52   22   43 1   
    53   23   28 1   
    54   23   43 1   
    55   23   44 1   
    56   24   48 1   
    57   25   26 1   
    58   25   28 1   
    59   25   47 1   
    60   26   42 1   
    61   27   28 1   
    62   27   45 1   
    63   27   46 1   
    64   27   48 1   
    65   28   44 1   
    66   28   45 1   
    67   28   47 1   
@<TRIPOS>SUBSTRUCTURE
     1 GVD         1 TEMP              0 ****  ****    0 ROOT
