@<TRIPOS>MOLECULE
GVE
   19    18     1     0     0
SMALL
bcc


@<TRIPOS>ATOM
      1 N           3.8130    0.2600   -0.2940 n3        1 GVE     -0.915800
      2 CA          2.6580   -0.5340    0.0460 c3        1 GVE      0.161800
      3 CB          1.3450    0.2430   -0.0540 c3        1 GVE     -0.084400
      4 CG          0.1800   -0.6870    0.2090 c3        1 GVE     -0.126400
      5 CD         -1.1010    0.0800    0.3130 c         1 GVE      0.629100
      6 OE1        -2.1520   -0.5620   -0.2860 os        1 GVE     -0.441900
      7 OE2        -1.3190    1.1620    0.8620 o         1 GVE     -0.541000
      8 CH3        -3.4240    0.0840   -0.2190 c3        1 GVE      0.125700
      9 HN1         3.8190    1.1260    0.2060 hn        1 GVE      0.351800
     10 HN2         4.6530   -0.2450   -0.0940 hn        1 GVE      0.351800
     11 HA1         2.6240   -1.4010   -0.6750 h1        1 GVE      0.024700
     12 HA2         2.7240   -0.9730    1.0870 h1        1 GVE      0.024700
     13 HB1         1.3310    1.0830    0.6910 hc        1 GVE      0.064700
     14 HB2         1.2440    0.6980   -1.0740 hc        1 GVE      0.064700
     15 HG1         0.0970   -1.4550   -0.6050 hc        1 GVE      0.078200
     16 HG2         0.3220   -1.2300    1.1820 hc        1 GVE      0.078200
     17 HH31       -3.7320    0.2060    0.8470 h1        1 GVE      0.051033
     18 HH32       -3.3710    1.0810   -0.7180 h1        1 GVE      0.051033
     19 HH33       -4.1040   -0.6140   -0.7660 h1        1 GVE      0.051033
@<TRIPOS>BOND
     1    1    2 1   
     2    1    9 1   
     3    1   10 1   
     4    2    3 1   
     5    2   11 1   
     6    2   12 1   
     7    3    4 1   
     8    3   13 1   
     9    3   14 1   
    10    4    5 1   
    11    4   15 1   
    12    4   16 1   
    13    5    6 1   
    14    5    7 2   
    15    6    8 1   
    16    8   17 1   
    17    8   18 1   
    18    8   19 1   
@<TRIPOS>SUBSTRUCTURE
     1 GVE         1 TEMP              0 ****  ****    0 ROOT
