@<TRIPOS>MOLECULE
GVF
   28    26     1     0     0
SMALL
bcc


@<TRIPOS>ATOM
      1 OAE        -1.5770   -2.6610    1.0290 o         1 GVF     -0.974833
      2 PAH        -1.7440   -2.8190   -0.4630 p5        1 GVF      1.646500
      3 OAG        -0.9490   -4.0140   -0.9350 o         1 GVF     -0.974833
      4 OAI        -3.2040   -3.0270   -0.7870 o         1 GVF     -0.974833
      5 OAM        -1.2220   -1.5180   -1.1920 os        1 GVF     -0.716000
      6 CAL        -0.6860   -0.4810   -0.4100 c2        1 GVF      0.122000
      7 CAP         0.8100   -0.3780   -0.2130 c2        1 GVF      0.122000
      8 OAQ         1.6650   -1.3120   -0.8230 os        1 GVF     -0.716000
      9 PAT         2.3280   -0.9340   -2.2080 p5        1 GVF      1.646500
     10 OAS         1.9050   -1.9330   -3.2580 o         1 GVF     -0.974833
     11 OAY         1.8810    0.4480   -2.6190 o         1 GVF     -0.974833
     12 OAU         3.8310   -0.9570   -2.0680 o         1 GVF     -0.974833
     13 CAO         1.3850    0.7180    0.6570 c1        1 GVF      0.122000
     14 OAR         2.7760    0.8260    0.8230 o         1 GVF     -0.838500
     15 PAW         3.3970    0.4730    2.2330 p5        1 GVF      1.311000
     16 OAV         4.6410   -0.3610    2.0410 o         1 GVF     -0.838500
     17 OAZ         2.3890   -0.3040    3.0460 o         1 GVF     -0.838500
     18 OAX         3.7530    1.7480    2.9590 o         1 GVF     -0.838500
     19 CAN         0.4640    1.7110    1.3300 c2        1 GVF     -0.291000
     20 CAJ        -1.0320    1.6180    1.1190 c1        1 GVF     -0.291000
     21 CAK        -1.6060    0.5220    0.2490 c1        1 GVF      0.122000
     22 OAF        -2.9930    0.4490    0.0360 os        1 GVF     -0.724000
     23 PAC        -3.6890    1.5990   -0.7950 p5        1 GVF      1.630500
     24 OAB        -4.3810    2.5540    0.1480 o         1 GVF     -0.983167
     25 OAA        -4.7050    0.9960   -1.7360 o         1 GVF     -0.983167
     26 OAD        -2.6470    2.3460   -1.5930 o         1 GVF     -0.983167
     27 HAN         0.8350    2.4180    1.8910 ha        1 GVF      0.085000
     28 HAJ        -1.6250    2.2700    1.5400 ha        1 GVF      0.085000
@<TRIPOS>BOND
     1    1    2 1   
     2    2    3 1   
     3    2    4 1   
     4    2    5 1   
     5    5    6 1   
     6    6    7 1   
     7    6   21 1   
     8    7    8 1   
     9    7   13 1   
    10    8    9 1   
    11    9   10 1   
    12    9   11 1   
    13    9   12 1   
    14   13   19 1   
    15   14   15 1   
    16   15   16 1   
    17   15   17 1   
    18   15   18 1   
    19   19   20 1   
    20   19   27 1   
    21   20   28 1   
    22   21   22 1   
    23   22   23 1   
    24   23   24 1   
    25   23   25 1   
    26   23   26 1   
@<TRIPOS>SUBSTRUCTURE
     1 GVF         1 TEMP              0 ****  ****    0 ROOT
