@<TRIPOS>MOLECULE
GVF
   28    28     1     0     0
SMALL
bcc


@<TRIPOS>ATOM
      1 OAE        -0.3660   -0.3410    0.9790 o         1 GVF     -0.974833
      2 PAH         0.7510    0.1860    0.0960 p5        1 GVF      1.412900
      3 OAG         1.7370    0.9380    0.9800 o         1 GVF     -0.974833
      4 OAI         0.1470    1.0790   -0.9680 o         1 GVF     -0.974833
      5 OAM         1.7030   -1.1320   -0.5720 os        1 GVF     -0.527500
      6 CAL         1.7500   -1.8310   -1.7290 ca        1 GVF      0.167100
      7 CAP         1.2020   -3.1840   -1.8080 ca        1 GVF      0.167100
      8 OAQ         0.9100   -3.8810   -0.6860 os        1 GVF     -0.527500
      9 PAT         1.6250   -5.1970    0.2340 p5        1 GVF      1.412900
     10 OAS         2.4370   -4.6660    1.4020 o         1 GVF     -0.974833
     11 OAY         0.4240   -5.9460    0.7940 o         1 GVF     -0.974833
     12 OAU         2.5120   -6.0910   -0.6060 o         1 GVF     -0.974833
     13 CAO         0.8250   -3.6900   -3.1280 ca        1 GVF      0.167100
     14 OAR        -0.0310   -4.7420   -3.3160 os        1 GVF     -0.535500
     15 PAW        -0.8660   -5.3980   -4.6880 p5        1 GVF      1.396900
     16 OAV         0.0960   -5.6790   -5.8320 o         1 GVF     -0.983167
     17 OAZ        -1.4920   -6.7070   -4.2260 o         1 GVF     -0.983167
     18 OAX        -1.9720   -4.4490   -5.1240 o         1 GVF     -0.983167
     19 CAN         1.4070   -3.0580   -4.2330 ca        1 GVF     -0.291000
     20 CAJ         2.2600   -1.9640   -4.1080 ca        1 GVF     -0.291000
     21 CAK         2.4960   -1.3290   -2.8820 ca        1 GVF      0.167100
     22 OAF         3.3690   -0.2770   -2.8160 os        1 GVF     -0.535500
     23 PAC         4.5680    0.3750   -3.8870 p5        1 GVF      1.396900
     24 OAB         3.9820    0.6530   -5.2620 o         1 GVF     -0.983167
     25 OAA         5.0330    1.6860   -3.2660 o         1 GVF     -0.983167
     26 OAD         5.7530   -0.5740   -3.9790 o         1 GVF     -0.983167
     27 HAN         1.1700   -3.4710   -5.2260 ha        1 GVF      0.085000
     28 HAJ         2.7770   -1.5540   -4.9900 ha        1 GVF      0.085000
@<TRIPOS>BOND
     1    1    2 1   
     2    2    3 1   
     3    2    4 1   
     4    2    5 1   
     5    5    6 1   
     6    6    7 ar  
     7    6   21 ar  
     8    7    8 1   
     9    7   13 ar  
    10    8    9 1   
    11    9   10 1   
    12    9   11 1   
    13    9   12 1   
    14   13   14 1   
    15   13   19 ar  
    16   14   15 1   
    17   15   16 1   
    18   15   17 1   
    19   15   18 1   
    20   19   20 ar  
    21   19   27 1   
    22   20   21 ar  
    23   20   28 1   
    24   21   22 1   
    25   22   23 1   
    26   23   24 1   
    27   23   25 1   
    28   23   26 1   
@<TRIPOS>SUBSTRUCTURE
     1 GVF         1 TEMP              0 ****  ****    0 ROOT
