@<TRIPOS>MOLECULE
GVF
   28    28     1     0     0
SMALL
bcc


@<TRIPOS>ATOM
      1 OAE         1.5080   -3.7380    5.4030 o         1 GVF     -0.974833
      2 PAH         0.5560   -2.6460    4.9470 p5        1 GVF      1.412900
      3 OAG         0.0740   -1.8950    6.1810 o         1 GVF     -0.974833
      4 OAI        -0.5870   -3.2850    4.1880 o         1 GVF     -0.974833
      5 OAM         1.4030   -1.4230    4.0120 os        1 GVF     -0.527500
      6 CAL         1.6090   -1.1430    2.7040 ca        1 GVF      0.167100
      7 CAP         2.8910   -1.4420    2.0680 ca        1 GVF      0.167100
      8 OAQ         3.9860   -1.7200    2.8130 os        1 GVF     -0.527500
      9 PAT         5.4520   -0.8840    3.3060 p5        1 GVF      1.412900
     10 OAS         5.3000   -0.2940    4.6970 o         1 GVF     -0.974833
     11 OAY         6.4970   -1.9890    3.3730 o         1 GVF     -0.974833
     12 OAU         5.8530    0.2210    2.3520 o         1 GVF     -0.974833
     13 CAO         2.9100   -1.5960    0.6140 ca        1 GVF      0.167100
     14 OAR         3.9130   -2.2360   -0.0630 os        1 GVF     -0.535500
     15 PAW         4.1070   -2.8090   -1.6900 p5        1 GVF      1.396900
     16 OAV         3.8220   -1.7060   -2.6960 o         1 GVF     -0.983167
     17 OAZ         5.5600   -3.2450   -1.8230 o         1 GVF     -0.983167
     18 OAX         3.2080   -4.0120   -1.9270 o         1 GVF     -0.983167
     19 CAN         1.8460   -1.0240   -0.0930 ca        1 GVF     -0.291000
     20 CAJ         0.7820   -0.3860    0.5410 ca        1 GVF     -0.291000
     21 CAK         0.6260   -0.3840    1.9320 ca        1 GVF      0.167100
     22 OAF        -0.4240    0.2860    2.5000 os        1 GVF     -0.535500
     23 PAC        -1.5700    1.4560    1.9270 p5        1 GVF      1.396900
     24 OAB        -2.2660    0.9690    0.6660 o         1 GVF     -0.983167
     25 OAA        -2.6010    1.6270    3.0350 o         1 GVF     -0.983167
     26 OAD        -0.8770    2.7880    1.6890 o         1 GVF     -0.983167
     27 HAN         1.8850   -1.0880   -1.1920 ha        1 GVF      0.085000
     28 HAJ         0.0120    0.1370   -0.0490 ha        1 GVF      0.085000
@<TRIPOS>BOND
     1    1    2 1   
     2    2    3 1   
     3    2    4 1   
     4    2    5 1   
     5    5    6 1   
     6    6    7 ar  
     7    6   21 ar  
     8    7    8 1   
     9    7   13 ar  
    10    8    9 1   
    11    9   10 1   
    12    9   11 1   
    13    9   12 1   
    14   13   14 1   
    15   13   19 ar  
    16   14   15 1   
    17   15   16 1   
    18   15   17 1   
    19   15   18 1   
    20   19   20 ar  
    21   19   27 1   
    22   20   21 ar  
    23   20   28 1   
    24   21   22 1   
    25   22   23 1   
    26   23   24 1   
    27   23   25 1   
    28   23   26 1   
@<TRIPOS>SUBSTRUCTURE
     1 GVF         1 TEMP              0 ****  ****    0 ROOT
