@<TRIPOS>MOLECULE
GVG
   22    23     1     0     0
SMALL
bcc


@<TRIPOS>ATOM
      1 C1          1.6690    4.8250    3.0440 cc        1 GVG      0.327600
      2 C2          1.7210    5.8050    1.9440 c3        1 GVG     -0.125400
      3 C3          1.4090    3.3970    2.9140 cc        1 GVG     -0.208300
      4 C6          1.1530    2.6290    1.7230 ca        1 GVG      0.008000
      5 C7          1.7930    2.9340    0.5130 ca        1 GVG     -0.126000
      6 C8          0.2590    1.5460    1.7650 ca        1 GVG     -0.126000
      7 C9          1.5400    2.1770   -0.6290 ca        1 GVG     -0.128000
      8 C10         0.0110    0.7920    0.6210 ca        1 GVG     -0.128000
      9 C11         0.6490    1.1060   -0.5790 ca        1 GVG     -0.133000
     10 C12         1.4500    2.9080    4.2350 cd        1 GVG     -0.135300
     11 N13         1.7230    4.0020    5.0510 na        1 GVG     -0.016600
     12 N3          1.8520    5.1360    4.3620 nd        1 GVG     -0.519800
     13 H2C1        1.0420    5.4780    1.1180 hc        1 GVG      0.052367
     14 H2C2        1.4080    6.8230    2.2850 hc        1 GVG      0.052367
     15 H2C3        2.7640    5.8740    1.5440 hc        1 GVG      0.052367
     16 H12         1.3160    1.9000    4.6260 h4        1 GVG      0.178000
     17 H7          2.5060    3.7720    0.4700 ha        1 GVG      0.132500
     18 H8         -0.2490    1.2990    2.7080 ha        1 GVG      0.132500
     19 H9          2.0490    2.4250   -1.5720 ha        1 GVG      0.130500
     20 H10        -0.6930   -0.0520    0.6650 ha        1 GVG      0.130500
     21 H11         0.4500    0.5100   -1.4820 ha        1 GVG      0.131000
     22 H13         1.8270    4.0040    6.0380 hn        1 GVG      0.321700
@<TRIPOS>BOND
     1    1    2 1   
     2    1    3 1   
     3    1   12 2   
     4    2   13 1   
     5    2   14 1   
     6    2   15 1   
     7    3    4 1   
     8    3   10 2   
     9    4    5 ar  
    10    4    6 ar  
    11    5    7 ar  
    12    5   17 1   
    13    6    8 ar  
    14    6   18 1   
    15    7    9 ar  
    16    7   19 1   
    17    8    9 ar  
    18    8   20 1   
    19    9   21 1   
    20   10   11 1   
    21   10   16 1   
    22   11   12 1   
    23   11   22 1   
@<TRIPOS>SUBSTRUCTURE
     1 GVG         1 TEMP              0 ****  ****    0 ROOT
