@<TRIPOS>MOLECULE
GVG
   22    23     1     0     0
SMALL
bcc


@<TRIPOS>ATOM
      1 C1         -0.1620    0.2080    0.0250 cc        1 GVG      0.327600
      2 C2         -1.1360    0.3670   -1.0700 c3        1 GVG     -0.125400
      3 C3          1.2470   -0.1410   -0.1190 cc        1 GVG     -0.208300
      4 C6          1.9950   -0.4000   -1.3210 ca        1 GVG      0.008000
      5 C7          1.7330    0.3070   -2.5050 ca        1 GVG     -0.126000
      6 C8          3.0170   -1.3640   -1.3180 ca        1 GVG     -0.126000
      7 C9          2.4720    0.0490   -3.6580 ca        1 GVG     -0.128000
      8 C10         3.7530   -1.6170   -2.4730 ca        1 GVG     -0.128000
      9 C11         3.4820   -0.9120   -3.6460 ca        1 GVG     -0.133000
     10 C12         1.7380   -0.1840    1.2010 cd        1 GVG     -0.135300
     11 N13         0.6630    0.1290    2.0300 na        1 GVG     -0.016600
     12 N3         -0.4590    0.3590    1.3500 nd        1 GVG     -0.519800
     13 H2C1       -2.1730    0.1090   -0.7390 hc        1 GVG      0.052367
     14 H2C2       -1.1360    1.4280   -1.4280 hc        1 GVG      0.052367
     15 H2C3       -0.8540   -0.2990   -1.9230 hc        1 GVG      0.052367
     16 H12         2.7340   -0.3990    1.5830 h4        1 GVG      0.178000
     17 H7          0.9440    1.0740   -2.5170 ha        1 GVG      0.132500
     18 H8          3.2300   -1.9250   -0.3960 ha        1 GVG      0.132500
     19 H9          2.2570    0.6090   -4.5800 ha        1 GVG      0.130500
     20 H10         4.5480   -2.3760   -2.4590 ha        1 GVG      0.130500
     21 H11         4.0620   -1.1150   -4.5570 ha        1 GVG      0.131000
     22 H13         0.6690    0.1940    3.0200 hn        1 GVG      0.321700
@<TRIPOS>BOND
     1    1    2 1   
     2    1    3 1   
     3    1   12 2   
     4    2   13 1   
     5    2   14 1   
     6    2   15 1   
     7    3    4 1   
     8    3   10 2   
     9    4    5 ar  
    10    4    6 ar  
    11    5    7 ar  
    12    5   17 1   
    13    6    8 ar  
    14    6   18 1   
    15    7    9 ar  
    16    7   19 1   
    17    8    9 ar  
    18    8   20 1   
    19    9   21 1   
    20   10   11 1   
    21   10   16 1   
    22   11   12 1   
    23   11   22 1   
@<TRIPOS>SUBSTRUCTURE
     1 GVG         1 TEMP              0 ****  ****    0 ROOT
