@<TRIPOS>MOLECULE
GVG
   22    23     1     0     0
SMALL
bcc


@<TRIPOS>ATOM
      1 C1         -0.1480    0.2260    0.0370 cc        1 GVG      0.327600
      2 C2         -1.1260    0.4050   -1.0520 c3        1 GVG     -0.125400
      3 C3          1.2540   -0.1430   -0.1170 cc        1 GVG     -0.208300
      4 C6          1.9920   -0.4060   -1.3250 ca        1 GVG      0.008000
      5 C7          1.7340    0.3110   -2.5030 ca        1 GVG     -0.126000
      6 C8          3.0000   -1.3850   -1.3330 ca        1 GVG     -0.126000
      7 C9          2.4630    0.0490   -3.6620 ca        1 GVG     -0.128000
      8 C10         3.7250   -1.6420   -2.4930 ca        1 GVG     -0.128000
      9 C11         3.4580   -0.9270   -3.6610 ca        1 GVG     -0.133000
     10 C12         1.7520   -0.2010    1.2000 cd        1 GVG     -0.135300
     11 N13         0.6870    0.1220    2.0360 na        1 GVG     -0.016600
     12 N3         -0.4360    0.3730    1.3640 nd        1 GVG     -0.519800
     13 H2C1       -2.1640    0.1600   -0.7160 hc        1 GVG      0.052367
     14 H2C2       -1.1130    1.4680   -1.4040 hc        1 GVG      0.052367
     15 H2C3       -0.8590   -0.2600   -1.9100 hc        1 GVG      0.052367
     16 H12         2.7470   -0.4330    1.5760 h4        1 GVG      0.178000
     17 H7          0.9570    1.0890   -2.5060 ha        1 GVG      0.132500
     18 H8          3.2090   -1.9540   -0.4150 ha        1 GVG      0.132500
     19 H9          2.2520    0.6170   -4.5790 ha        1 GVG      0.130500
     20 H10         4.5100   -2.4130   -2.4880 ha        1 GVG      0.130500
     21 H11         4.0310   -1.1330   -4.5760 ha        1 GVG      0.131000
     22 H13         0.6990    0.1820    3.0270 hn        1 GVG      0.321700
@<TRIPOS>BOND
     1    1    2 1   
     2    1    3 1   
     3    1   12 2   
     4    2   13 1   
     5    2   14 1   
     6    2   15 1   
     7    3    4 1   
     8    3   10 2   
     9    4    5 ar  
    10    4    6 ar  
    11    5    7 ar  
    12    5   17 1   
    13    6    8 ar  
    14    6   18 1   
    15    7    9 ar  
    16    7   19 1   
    17    8    9 ar  
    18    8   20 1   
    19    9   21 1   
    20   10   11 1   
    21   10   16 1   
    22   11   12 1   
    23   11   22 1   
@<TRIPOS>SUBSTRUCTURE
     1 GVG         1 TEMP              0 ****  ****    0 ROOT
