@<TRIPOS>MOLECULE
GVG
   22    19     1     0     0
SMALL
bcc


@<TRIPOS>ATOM
      1 C1         -1.6480   -0.6150    0.9370 c1        1 GVG     -0.095000
      2 C2         -2.4050   -1.3660   -0.1360 c2        1 GVG     -0.149000
      3 C3         -0.2760   -0.6150    0.9370 c2        1 GVG     -0.143000
      4 C6          0.4810    0.1400   -0.1330 c2        1 GVG      0.008000
      5 C7          0.2450    1.6220   -0.3240 c2        1 GVG     -0.124000
      6 C8          1.4730   -0.5870   -1.0140 c1        1 GVG     -0.128000
      7 C9          1.0010    2.3770   -1.3940 c1        1 GVG     -0.128000
      8 C10         2.2290    0.1670   -2.0850 c1        1 GVG     -0.130500
      9 C11         1.9930    1.6500   -2.2750 c1        1 GVG     -0.130500
     10 C12         0.2010   -0.6150    2.2820 c1        1 GVG     -0.111000
     11 N13        -0.9580   -0.6150    3.2360 n2        1 GVG     -0.161000
     12 N3         -2.1230   -0.6150    2.2660 n2        1 GVG     -0.087000
     13 H2C1       -3.2720   -1.6470    0.2130 ha        1 GVG      0.091667
     14 H2C2       -1.8920   -2.1520   -0.4060 ha        1 GVG      0.091667
     15 H2C3       -2.5380   -0.7840   -0.9080 ha        1 GVG      0.091667
     16 H12         1.0200   -1.0940    2.5100 ha        1 GVG      0.178000
     17 H7         -0.3950    2.0920    0.2450 ha        1 GVG      0.136000
     18 H8          1.6250   -1.5440   -0.8910 ha        1 GVG      0.129000
     19 H9          0.8490    3.3340   -1.5170 ha        1 GVG      0.131000
     20 H10         2.8690   -0.3020   -2.6530 ha        1 GVG      0.130500
     21 H11         2.4820    2.1370   -2.9660 ha        1 GVG      0.130500
     22 H13        -0.9610   -0.9690    4.0770 hn        1 GVG      0.272000
@<TRIPOS>BOND
     1    1    3 1   
     2    1   12 1   
     3    2   13 1   
     4    2   14 1   
     5    2   15 1   
     6    3    4 1   
     7    3   10 1   
     8    4    5 1   
     9    4    6 1   
    10    5    7 1   
    11    5   17 1   
    12    6   18 1   
    13    7   19 1   
    14    8    9 1   
    15    8   20 1   
    16    9   21 1   
    17   10   16 1   
    18   11   12 1   
    19   11   22 1   
@<TRIPOS>SUBSTRUCTURE
     1 GVG         1 TEMP              0 ****  ****    0 ROOT
