@<TRIPOS>MOLECULE
GVH
   15    16     1     0     0
SMALL
bcc


@<TRIPOS>ATOM
      1 N1          3.0280   -1.6400   -1.9570 nb        1 GVH     -0.671000
      2 C2          1.9740   -1.0630   -2.6110 ca        1 GVH      0.419800
      3 C3          0.8310   -0.4440   -1.9460 ca        1 GVH     -0.198100
      4 C4          0.8130   -0.4400   -0.5500 ca        1 GVH     -0.047000
      5 C20        -0.0390    0.0340   -2.9900 cc        1 GVH     -0.180200
      6 C5          1.8800   -1.0240    0.1170 ca        1 GVH     -0.277300
      7 C6          2.9450   -1.6010   -0.6230 ca        1 GVH      0.412200
      8 N7          1.7730   -0.9480   -3.9950 na        1 GVH     -0.289100
      9 C8          0.5600   -0.2870   -4.2050 cd        1 GVH     -0.103100
     10 H6          3.7950   -2.0650   -0.0900 h4        1 GVH      0.020100
     11 H7          2.3880   -1.2790   -4.6900 hn        1 GVH      0.308700
     12 H4         -0.0260    0.0140   -0.0030 ha        1 GVH      0.139000
     13 H20        -0.9850    0.5480   -2.8470 ha        1 GVH      0.159000
     14 H5          1.9150   -1.0480    1.2130 ha        1 GVH      0.141000
     15 H8          0.2120   -0.0930   -5.2210 h4        1 GVH      0.168000
@<TRIPOS>BOND
     1    1    2 ar  
     2    1    7 ar  
     3    2    3 ar  
     4    2    8 1   
     5    3    4 ar  
     6    3    5 1   
     7    4    6 ar  
     8    4   12 1   
     9    5    9 2   
    10    5   13 1   
    11    6    7 ar  
    12    6   14 1   
    13    7   10 1   
    14    8    9 1   
    15    8   11 1   
    16    9   15 1   
@<TRIPOS>SUBSTRUCTURE
     1 GVH         1 TEMP              0 ****  ****    0 ROOT
