@<TRIPOS>MOLECULE
GVI
   31    27     1     0     0
SMALL
bcc


@<TRIPOS>ATOM
      1 N1          2.8470    0.4740   -0.4640 n1        1 GVI     -0.185000
      2 C2          4.3290    0.6630   -0.4510 c1        1 GVI     -0.026500
      3 N3          5.0940    0.4580    0.7980 n1        1 GVI     -0.137000
      4 C4          4.4220    0.1120    1.9890 c1        1 GVI      0.027000
      5 C5          2.9070   -0.0580    1.9830 c1        1 GVI     -0.164000
      6 C9         -3.5500   -0.2670   -1.1620 c3        1 GVI     -0.040000
      7 N7          2.6050   -0.3930    3.2950 n1        1 GVI     -0.137000
      8 C8          3.6310   -0.4560    4.0720 c1        1 GVI     -0.026500
      9 N9          4.8260   -0.1770    3.4470 n2        1 GVI     -0.229000
     10 C10        -2.0880   -0.1590   -0.8060 c2        1 GVI     -0.069000
     11 C11        -1.2100   -1.3890   -0.8190 c2        1 GVI     -0.138000
     12 C12         0.2000   -1.3140   -0.2710 c1        1 GVI     -0.085000
     13 C13         0.7540    0.0070    0.2040 c1        1 GVI     -0.052000
     14 C14        -0.1180    1.2280    0.2210 c1        1 GVI     -0.088000
     15 C15        -1.5260    1.1590   -0.3280 c1        1 GVI     -0.125000
     16 N10        -3.7390    0.1040   -2.5750 n3        1 GVI     -0.306000
     17 C16         2.1650    0.0840    0.7270 c2        1 GVI      0.133000
     18 C1         -5.1390    0.3050   -2.8310 c3        1 GVI     -0.123000
     19 H2          4.7830    0.9250   -1.2510 ha        1 GVI      0.199500
     20 H9          5.6290   -0.4130    3.7290 hn        1 GVI      0.271000
     21 H9C1       -4.0970    0.3720   -0.5610 h1        1 GVI      0.078000
     22 H9C2       -3.8650   -1.2160   -1.0190 h1        1 GVI      0.078000
     23 H10        -3.4260   -0.5660   -3.1090 hn        1 GVI      0.159000
     24 H8          3.5270   -0.2830    5.0540 ha        1 GVI      0.199500
     25 H11        -1.5730   -2.2520   -1.1280 ha        1 GVI      0.134000
     26 H15        -2.0720    1.9280   -0.3170 ha        1 GVI      0.150000
     27 H12         0.7690   -2.1050   -0.2790 ha        1 GVI      0.147000
     28 H14         0.2570    2.1110    0.5400 ha        1 GVI      0.147000
     29 H1C1       -5.5990   -0.4570   -2.6210 h1        1 GVI      0.069333
     30 H1C2       -5.4720    1.0560   -2.2750 h1        1 GVI      0.069333
     31 H1C3       -5.2730    0.5180   -3.7930 h1        1 GVI      0.069333
@<TRIPOS>BOND
     1    1   17 1   
     2    2    3 1   
     3    2   19 1   
     4    4    5 1   
     5    4    9 1   
     6    5   17 1   
     7    6   10 1   
     8    6   16 1   
     9    6   21 1   
    10    6   22 1   
    11    7    8 1   
    12    8   24 1   
    13    9   20 1   
    14   10   11 1   
    15   10   15 1   
    16   11   12 1   
    17   11   25 1   
    18   12   27 1   
    19   13   14 1   
    20   13   17 1   
    21   14   28 1   
    22   15   26 1   
    23   16   18 1   
    24   16   23 1   
    25   18   29 1   
    26   18   30 1   
    27   18   31 1   
@<TRIPOS>SUBSTRUCTURE
     1 GVI         1 TEMP              0 ****  ****    0 ROOT
