@<TRIPOS>MOLECULE
GVI
   32    31     1     0     0
SMALL
bcc


@<TRIPOS>ATOM
      1 N1         -0.5850    0.7490    1.1220 n2        1 GVI     -0.720100
      2 C2          2.7420   -0.7870   -0.0090 c1        1 GVI      0.551800
      3 N3          2.4030   -0.6540    1.1210 n1        1 GVI     -1.129500
      4 C4          2.0300   -0.5180    2.4260 ce        1 GVI      0.571600
      5 C5          0.7450   -0.2290    2.9360 cf        1 GVI     -0.296700
      6 N7          0.8710   -0.2100    4.3430 nh        1 GVI     -0.253600
      7 C8          2.1750   -0.4680    4.7200 c1        1 GVI      0.053000
      8 N9          2.8890   -0.6670    3.5520 nh        1 GVI     -0.259600
      9 C10        -5.5200    0.6230    0.0930 ce        1 GVI     -0.219100
     10 C11        -4.7500    1.6400   -0.2100 c1        1 GVI      0.048200
     11 C12        -4.0080    2.6480   -0.5430 c2        1 GVI     -0.185100
     12 C13        -1.6620   -0.7140    2.6990 cf        1 GVI     -0.133700
     13 C14        -2.8760   -0.5800    2.2160 c1        1 GVI      0.054100
     14 C15        -4.0420   -0.4640    1.7540 c1        1 GVI     -0.045900
     15 N10        -6.3790   -1.0500    1.7020 n4        1 GVI     -0.722400
     16 C16        -0.4820    0.0120    2.1740 cf        1 GVI      0.547900
     17 C1         -9.0440    0.2500    3.2690 c3        1 GVI     -0.135800
     18 H2          0.2470    1.2100    0.8160 hn        1 GVI      0.423400
     19 H9          3.8550   -0.8780    3.4990 hn        1 GVI      0.327700
     20 H9C1       -6.7580   -1.6250    0.9420 hn        1 GVI      0.461800
     21 H9C2       -6.1010   -1.6550    2.4800 hn        1 GVI      0.461800
     22 H10        -8.3900    1.1370    3.1150 hc        1 GVI      0.035700
     23 H8          0.1360    0.0290    4.9560 hn        1 GVI      0.313700
     24 H11        -3.1650    2.5470   -1.2470 ha        1 GVI      0.170000
     25 H15        -6.4140    0.4090   -0.5200 ha        1 GVI      0.155000
     26 H12        -4.1760    3.6630   -0.1450 ha        1 GVI      0.170000
     27 H14        -1.4700   -1.4190    3.5320 ha        1 GVI      0.182000
     28 H1C1       -7.1070   -0.3940    2.0220 hn        1 GVI      0.461800
     29 H1C2       -9.9400    0.5640    3.8510 hc        1 GVI      0.035700
     30 H1C3       -8.5010   -0.5320    3.8430 hc        1 GVI      0.035700
     31 H102       -9.3790   -0.1550    2.2890 hc        1 GVI      0.035700
     32 C9         -5.2240   -0.2820    1.1960 ce        1 GVI      0.004900
@<TRIPOS>BOND
     1    1   16 2   
     2    1   18 1   
     3    2    3 3   
     4    3    4 1   
     5    4    5 2   
     6    4    8 1   
     7    5    6 1   
     8    5   16 1   
     9    6    7 2   
    10    6   23 1   
    11    7    8 2   
    12    8   19 1   
    13    9   10 2   
    14    9   25 1   
    15    9   32 1   
    16   10   11 2   
    17   11   24 1   
    18   11   26 1   
    19   12   13 2   
    20   12   16 1   
    21   12   27 1   
    22   13   14 2   
    23   14   32 2   
    24   15   20 1   
    25   15   21 1   
    26   15   28 1   
    27   15   32 1   
    28   17   22 1   
    29   17   29 1   
    30   17   30 1   
    31   17   31 1   
@<TRIPOS>SUBSTRUCTURE
     1 GVI         1 TEMP              0 ****  ****    0 ROOT
