@<TRIPOS>MOLECULE
GVI
   32    31     1     0     0
SMALL
bcc


@<TRIPOS>ATOM
      1 N1         -1.4420   -0.5970   -0.0150 n3        1 GVI     -0.213000
      2 C2          1.7340    1.0990   -0.3420 c1        1 GVI      0.331000
      3 N3          1.1180    0.9800    0.6760 n2        1 GVI     -0.371000
      4 C4          0.4800    0.8790    1.8710 c2        1 GVI      0.246000
      5 C5         -0.7460    0.1820    2.1650 c2        1 GVI     -0.244000
      6 N7         -0.9570    0.3750    3.5630 n3        1 GVI     -0.223000
      7 C8          0.0400    1.1330    4.1150 c1        1 GVI      0.121000
      8 N9          0.9290    1.4400    3.0760 n3        1 GVI     -0.233000
      9 C10        -4.3410   -0.0610   -0.2070 c1        1 GVI     -0.614000
     10 C11        -4.7230   -0.0050    1.0570 c2        1 GVI      0.204000
     11 C12        -3.9570   -0.5100    2.2170 c3        1 GVI     -0.185000
     12 C13        -2.7300   -1.3810    1.9400 c3        1 GVI      0.031000
     13 C14        -3.0570   -2.5500    1.1710 c1        1 GVI     -0.277000
     14 C15        -3.3450   -3.5560    0.5900 c1        1 GVI     -0.067000
     15 N10        -6.1580    1.0140    4.0420 n3        1 GVI     -0.377000
     16 C16        -1.6000   -0.5680    1.3010 c2        1 GVI      0.269000
     17 C1         -7.2740    1.4640    3.2550 c3        1 GVI     -0.149000
     18 H2         -0.7470   -0.0720   -0.4990 hn        1 GVI      0.282500
     19 H9          1.7590    1.9760    3.1880 hn        1 GVI      0.297000
     20 H9C1       -2.1010   -1.1100   -0.5860 hn        1 GVI      0.282500
     21 H9C2       -5.6930    0.4700    1.3370 ha        1 GVI      0.170000
     22 H10        -6.4520    0.3150    4.6980 hn        1 GVI      0.147500
     23 H8         -1.7370    0.0110    4.0530 hn        1 GVI      0.280000
     24 H11        -3.6670    0.3820    2.8420 hc        1 GVI      0.154500
     25 H15        -3.6030   -4.4500    0.0690 ha        1 GVI      0.254000
     26 H12        -4.6670   -1.1230    2.8510 hc        1 GVI      0.154500
     27 H14        -2.3450   -1.7590    2.9410 hc        1 GVI      0.150000
     28 H1C1       -5.7630    1.7780    4.5570 hn        1 GVI      0.147500
     29 H1C2       -8.1060    1.9210    3.8580 h1        1 GVI      0.077667
     30 H1C3       -7.6990    0.5930    2.6880 h1        1 GVI      0.077667
     31 H102       -6.9190    2.2330    2.5190 h1        1 GVI      0.077667
     32 C9         -4.0630   -0.0840   -1.4510 c1        1 GVI      0.199000
@<TRIPOS>BOND
     1    1   16 1   
     2    1   18 1   
     3    1   20 1   
     4    2    3 1   
     5    3    4 1   
     6    4    5 1   
     7    4    8 1   
     8    5    6 1   
     9    5   16 1   
    10    6    7 1   
    11    6   23 1   
    12    7    8 1   
    13    8   19 1   
    14    9   10 1   
    15    9   32 1   
    16   10   11 1   
    17   10   21 1   
    18   11   12 1   
    19   11   24 1   
    20   11   26 1   
    21   12   13 1   
    22   12   16 1   
    23   12   27 1   
    24   13   14 1   
    25   14   25 1   
    26   15   17 1   
    27   15   22 1   
    28   15   28 1   
    29   17   29 1   
    30   17   30 1   
    31   17   31 1   
@<TRIPOS>SUBSTRUCTURE
     1 GVI         1 TEMP              0 ****  ****    0 ROOT
