@<TRIPOS>MOLECULE
GVI
   31    33     1     0     0
SMALL
bcc


@<TRIPOS>ATOM
      1 N1         -3.6940    1.1550    0.3330 nb        1 GVI     -0.711000
      2 C2         -3.4280   -0.1720    0.1480 ca        1 GVI      0.646900
      3 N3         -2.3950   -0.7550   -0.5030 nb        1 GVI     -0.689000
      4 C4         -1.5260    0.1540   -1.0300 ca        1 GVI      0.418800
      5 C5         -1.6900    1.6090   -0.8970 ca        1 GVI     -0.155200
      6 N7         -0.6340    2.2550   -1.5590 nc        1 GVI     -0.538100
      7 C8          0.1270    1.2700   -2.0620 cd        1 GVI      0.419700
      8 N9         -0.3550   -0.0250   -1.7780 na        1 GVI     -0.381000
      9 C10        -3.5880    6.2400    0.3080 ca        1 GVI     -0.103300
     10 C11        -4.6320    5.3660   -0.0080 ca        1 GVI     -0.137000
     11 C12        -4.3890    4.0020   -0.1590 ca        1 GVI     -0.082500
     12 C13        -3.0910    3.4980   -0.0080 cp        1 GVI     -0.159500
     13 C14        -2.0440    4.3710    0.3180 ca        1 GVI     -0.082500
     14 C15        -2.2960    5.7320    0.4750 ca        1 GVI     -0.137000
     15 N10        -3.1310    8.6170   -0.3650 n3        1 GVI     -0.815200
     16 C16        -2.8320    2.0610   -0.1820 cp        1 GVI      0.567800
     17 C1         -3.5970    8.6650   -1.7260 c3        1 GVI      0.146100
     18 H2         -4.1670   -0.8710    0.5970 h5        1 GVI      0.058100
     19 H9          0.0390   -0.8860   -2.0470 hn        1 GVI      0.321700
     20 H9C1       -4.9550    7.9080    0.3770 h1        1 GVI      0.060200
     21 H9C2       -3.5700    7.9750    1.5580 h1        1 GVI      0.060200
     22 H10        -2.1480    8.4130   -0.3400 hn        1 GVI      0.358800
     23 H8          1.0440    1.4180   -2.6450 h5        1 GVI      0.076800
     24 H11        -5.6540    5.7530   -0.1350 ha        1 GVI      0.134000
     25 H15        -1.4700    6.4090    0.7390 ha        1 GVI      0.134000
     26 H12        -5.2210    3.3230   -0.4000 ha        1 GVI      0.147500
     27 H14        -1.0220    3.9860    0.4550 ha        1 GVI      0.147500
     28 H1C1       -3.5390    7.6790   -2.2630 h1        1 GVI      0.031700
     29 H1C2       -2.9760    9.4120   -2.2880 h1        1 GVI      0.031700
     30 H1C3       -4.6650    9.0070   -1.7370 h1        1 GVI      0.031700
     31 C9         -3.8520    7.7080    0.4970 c3        1 GVI      0.198100
@<TRIPOS>BOND
     1    1    2 ar  
     2    1   16 ar  
     3    2    3 ar  
     4    2   18 1   
     5    3    4 ar  
     6    4    5 ar  
     7    4    8 1   
     8    5    6 1   
     9    5   16 ar  
    10    6    7 2   
    11    7    8 1   
    12    7   23 1   
    13    8   19 1   
    14    9   10 ar  
    15    9   14 ar  
    16    9   31 1   
    17   10   11 ar  
    18   10   24 1   
    19   11   12 ar  
    20   11   26 1   
    21   12   13 ar  
    22   12   16 1   
    23   13   14 ar  
    24   13   27 1   
    25   14   25 1   
    26   15   17 1   
    27   15   22 1   
    28   15   31 1   
    29   17   28 1   
    30   17   29 1   
    31   17   30 1   
    32   20   31 1   
    33   21   31 1   
@<TRIPOS>SUBSTRUCTURE
     1 GVI         1 TEMP              0 ****  ****    0 ROOT
