@<TRIPOS>MOLECULE
GVI
   32    30     1     0     0
SMALL
bcc


@<TRIPOS>ATOM
      1 N1         -0.0650   -1.5550    1.1230 n2        1 GVI     -0.207000
      2 C2          3.2670   -0.7770   -0.4280 c1        1 GVI      0.227000
      3 N3          2.8170   -0.1950    0.5050 n2        1 GVI     -0.316000
      4 C4          2.3170    0.4920    1.5710 c2        1 GVI      0.112000
      5 C5          1.0180    0.4270    2.1220 c2        1 GVI     -0.168000
      6 N7          0.9970    1.3470    3.1960 n7        1 GVI     -0.226000
      7 C8          2.2220    1.9670    3.3330 c1        1 GVI      0.048000
      8 N9          3.0350    1.4530    2.3380 n7        1 GVI     -0.237000
      9 C10        -4.8570    0.2240    1.9590 c2        1 GVI     -0.235000
     10 C11        -3.7830    1.2210    2.2900 c3        1 GVI      0.047000
     11 C12        -2.4870    0.6540    2.0980 c1        1 GVI     -0.210000
     12 C13        -1.3960    0.1900    1.9330 c1        1 GVI     -0.016000
     13 C14        -3.5460   -1.9940   -0.3880 c1        1 GVI     -0.227000
     14 C15        -4.6050   -1.7070   -0.8710 c1        1 GVI     -0.227000
     15 N10        -8.4330   -0.6850    3.6450 n8        1 GVI     -0.360000
     16 C16        -0.1110   -0.3980    1.6910 c2        1 GVI      0.169000
     17 C1         -9.4770    0.1980    3.1760 c3        1 GVI     -0.167000
     18 H2          0.8410   -1.9490    0.9770 hn        1 GVI      0.181000
     19 H9          3.9780    1.7080    2.1790 hn        1 GVI      0.278000
     20 H9C1       -4.5810   -0.4240    1.0500 ha        1 GVI      0.314000
     21 H9C2       -7.0140   -0.2660    2.9620 ha        1 GVI      0.345000
     22 H10        -8.6430   -1.6380    3.4060 hn        1 GVI      0.177000
     23 H8          0.2130    1.4880    3.7770 hn        1 GVI      0.263000
     24 H11        -3.9290    2.1090    1.6030 hc        1 GVI      0.150000
     25 H15        -5.5240   -1.4900   -1.3580 ha        1 GVI      0.239000
     26 H12        -3.9030    1.5750    3.3530 hc        1 GVI      0.150000
     27 H14        -2.5970   -2.2550    0.0220 ha        1 GVI      0.239000
     28 H1C1       -8.3430   -0.6240    4.6450 hn        1 GVI      0.177000
     29 H1C2      -10.4840   -0.0420    3.6140 h1        1 GVI      0.100000
     30 H1C3       -9.5530    0.1190    2.0590 h1        1 GVI      0.100000
     31 H102       -9.2190    1.2550    3.4490 h1        1 GVI      0.100000
     32 C9         -5.9840   -0.0090    2.5070 c1        1 GVI      0.180000
@<TRIPOS>BOND
     1    1   16 1   
     2    1   18 1   
     3    2    3 1   
     4    3    4 1   
     5    4    5 1   
     6    4    8 1   
     7    5    6 1   
     8    5   16 1   
     9    6    7 1   
    10    6   23 1   
    11    7    8 1   
    12    8   19 1   
    13    9   10 1   
    14    9   20 1   
    15    9   32 1   
    16   10   11 1   
    17   10   24 1   
    18   10   26 1   
    19   11   12 1   
    20   12   16 1   
    21   13   14 1   
    22   13   27 1   
    23   14   25 1   
    24   15   17 1   
    25   15   22 1   
    26   15   28 1   
    27   17   29 1   
    28   17   30 1   
    29   17   31 1   
    30   21   32 1   
@<TRIPOS>SUBSTRUCTURE
     1 GVI         1 TEMP              0 ****  ****    0 ROOT
