@<TRIPOS>MOLECULE
GVJ
   39    42     1     0     0
SMALL
bcc


@<TRIPOS>ATOM
      1 N1         -0.0120   -0.1280    0.0610 n4        1 GVJ     -0.851600
      2 C2          1.5090   -0.0170    0.0330 c3        1 GVJ      0.267100
      3 C3          2.0160    0.0470    1.4410 ca        1 GVJ     -0.183300
      4 C4          1.7680    1.2200    2.1740 ca        1 GVJ     -0.103000
      5 C5          2.2440    1.3460    3.4740 ca        1 GVJ     -0.118500
      6 C6          2.9800    0.3080    4.0530 ca        1 GVJ     -0.079000
      7 C7          3.2380   -0.8520    3.3250 ca        1 GVJ     -0.118500
      8 C8          2.7580   -0.9860    2.0200 ca        1 GVJ     -0.103000
      9 C9          2.0660   -1.1120   -0.8240 ca        1 GVJ     -0.169300
     10 C10         2.9170   -0.7680   -1.8800 ca        1 GVJ     -0.120500
     11 C11         3.4530   -1.7600   -2.7000 ca        1 GVJ     -0.079000
     12 C12         3.1380   -3.1060   -2.4740 cp        1 GVJ     -0.092500
     13 C13         2.2800   -3.4510   -1.4190 ca        1 GVJ     -0.079000
     14 C14         1.7520   -2.4590   -0.5970 ca        1 GVJ     -0.120500
     15 C15         3.7070   -4.1540   -3.3390 cp        1 GVJ      0.521800
     16 N16         3.7460   -3.9610   -4.6770 nb        1 GVJ     -0.701000
     17 C17         4.2900   -4.9440   -5.4540 ca        1 GVJ      0.649900
     18 N18         4.8260   -6.1290   -5.0750 nb        1 GVJ     -0.659000
     19 C19         4.7920   -6.3220   -3.7280 ca        1 GVJ      0.426800
     20 N20         5.2430   -7.3870   -2.9390 na        1 GVJ     -0.371000
     21 C21         4.9490   -7.0390   -1.6070 cc        1 GVJ      0.446700
     22 N22         4.3460   -5.8450   -1.4740 nd        1 GVJ     -0.564100
     23 C23         4.2230   -5.3480   -2.7800 ca        1 GVJ     -0.146200
     24 H1N1       -0.3820   -0.0360   -0.8880 hn        1 GVJ      0.453800
     25 H1N2       -0.2810   -1.0420    0.4350 hn        1 GVJ      0.453800
     26 H2          1.7200    0.9850   -0.4640 hx        1 GVJ      0.107700
     27 H4          1.2190    2.0570    1.7160 ha        1 GVJ      0.143000
     28 H8          2.9880   -1.9010    1.4500 ha        1 GVJ      0.143000
     29 H5          2.0510    2.2690    4.0450 ha        1 GVJ      0.159000
     30 H6          3.3610    0.4120    5.0820 ha        1 GVJ      0.161000
     31 H7          3.8280   -1.6670    3.7730 ha        1 GVJ      0.159000
     32 H10         3.1790    0.2860   -2.0660 ha        1 GVJ      0.137500
     33 H14         1.1080   -2.7560    0.2450 ha        1 GVJ      0.137500
     34 H11         4.1230   -1.4790   -3.5290 ha        1 GVJ      0.173000
     35 H13         2.0260   -4.5080   -1.2340 ha        1 GVJ      0.173000
     36 H17         4.2940   -4.7420   -6.5480 h5        1 GVJ      0.071100
     37 H20         5.6870   -8.2080   -3.2640 hn        1 GVJ      0.333700
     38 H21         5.2050   -7.7100   -0.7740 h5        1 GVJ      0.086800
     39 H131       -0.3970    0.6050    0.6620 hn        1 GVJ      0.453800
@<TRIPOS>BOND
     1    1    2 1   
     2    1   24 1   
     3    1   25 1   
     4    1   39 1   
     5    2    3 1   
     6    2    9 1   
     7    2   26 1   
     8    3    4 ar  
     9    3    8 ar  
    10    4    5 ar  
    11    4   27 1   
    12    5    6 ar  
    13    5   29 1   
    14    6    7 ar  
    15    6   30 1   
    16    7    8 ar  
    17    7   31 1   
    18    8   28 1   
    19    9   10 ar  
    20    9   14 ar  
    21   10   11 ar  
    22   10   32 1   
    23   11   12 ar  
    24   11   34 1   
    25   12   13 ar  
    26   12   15 1   
    27   13   14 ar  
    28   13   35 1   
    29   14   33 1   
    30   15   16 ar  
    31   15   23 ar  
    32   16   17 ar  
    33   17   18 ar  
    34   17   36 1   
    35   18   19 ar  
    36   19   20 1   
    37   19   23 ar  
    38   20   21 1   
    39   20   37 1   
    40   21   22 2   
    41   21   38 1   
    42   22   23 1   
@<TRIPOS>SUBSTRUCTURE
     1 GVJ         1 TEMP              0 ****  ****    0 ROOT
