@<TRIPOS>MOLECULE
GVJ
   38    34     1     0     0
SMALL
bcc


@<TRIPOS>ATOM
      1 N1         -2.3150    2.8740    0.4540 n3        1 GVJ     -0.349000
      2 C2         -0.9760    2.6280    0.8750 c3        1 GVJ      0.054000
      3 C3         -0.9380    2.5170    2.3640 c2        1 GVJ     -0.069000
      4 C4          0.0210    3.3870    3.1650 c2        1 GVJ     -0.120000
      5 C5         -0.0110    3.3520    4.6840 c1        1 GVJ     -0.111500
      6 C6         -0.9720    2.4290    5.3990 c1        1 GVJ     -0.130500
      7 C7         -1.9310    1.5630    4.6000 c1        1 GVJ     -0.130500
      8 C8         -1.8970    1.5950    3.0770 c1        1 GVJ     -0.118000
      9 C9         -0.4820    1.3340    0.2550 c2        1 GVJ     -0.069000
     10 C10        -1.4730    0.3250   -0.2690 c2        1 GVJ     -0.120000
     11 C11        -0.9890   -0.8640   -1.0730 c1        1 GVJ     -0.111500
     12 C12         0.4990   -1.0870   -1.2780 c1        1 GVJ     -0.052000
     13 C13         1.4940   -0.0770   -0.7510 c1        1 GVJ     -0.086000
     14 C14         1.0110    1.1140    0.0440 c1        1 GVJ     -0.118000
     15 C15         0.9870   -2.3230   -2.0040 c2        1 GVJ      0.134000
     16 N16         1.1710   -3.2770   -0.9510 n2        1 GVJ     -0.184000
     17 C17         1.6270   -4.6780   -1.2700 c1        1 GVJ     -0.016000
     18 N18         1.8980   -5.0740   -2.6800 n1        1 GVJ     -0.165000
     19 C19         1.7530   -4.1230   -3.7290 c1        1 GVJ      0.027000
     20 N20         1.9310   -4.1220   -5.2590 n2        1 GVJ     -0.229000
     21 C21         1.6110   -2.8380   -5.6260 c2        1 GVJ     -0.038000
     22 N22         1.2780   -2.0740   -4.6400 n1        1 GVJ     -0.110000
     23 C23         1.3030   -2.6980   -3.4070 c1        1 GVJ     -0.164000
     24 H1N1       -2.6330    3.5630    0.8850 hn        1 GVJ      0.153000
     25 H1N2       -2.3250    3.0410   -0.4270 hn        1 GVJ      0.153000
     26 H2         -0.3860    3.3870    0.5810 h1        1 GVJ      0.058000
     27 H4          0.6360    3.9790    2.7070 ha        1 GVJ      0.139000
     28 H8         -2.5220    1.0310    2.5550 ha        1 GVJ      0.139000
     29 H5          0.6240    3.9260    5.2150 ha        1 GVJ      0.138000
     30 H6         -0.9930    2.4080    6.3430 ha        1 GVJ      0.131000
     31 H7         -2.5580    0.9610    5.0670 ha        1 GVJ      0.131000
     32 H10        -2.4120    0.4660   -0.1400 ha        1 GVJ      0.139000
     33 H14         1.6430    1.7560    0.3790 ha        1 GVJ      0.139000
     34 H11        -1.6150   -1.5010   -1.4040 ha        1 GVJ      0.138000
     35 H13         2.4680   -0.2210   -0.8870 ha        1 GVJ      0.147000
     36 H17         1.7520   -5.3230   -0.5530 ha        1 GVJ      0.194000
     37 H20         2.4540   -4.7090   -5.7440 hn        1 GVJ      0.271000
     38 H21         1.2640   -2.6470   -6.5540 h5        1 GVJ      0.205000
@<TRIPOS>BOND
     1    1    2 1   
     2    1   24 1   
     3    1   25 1   
     4    2    3 1   
     5    2    9 1   
     6    2   26 1   
     7    3    4 1   
     8    3    8 1   
     9    4    5 1   
    10    4   27 1   
    11    5   29 1   
    12    6    7 1   
    13    6   30 1   
    14    7   31 1   
    15    8   28 1   
    16    9   10 1   
    17    9   14 1   
    18   10   11 1   
    19   10   32 1   
    20   11   34 1   
    21   12   13 1   
    22   12   15 1   
    23   13   35 1   
    24   14   33 1   
    25   15   16 1   
    26   15   23 1   
    27   16   17 1   
    28   17   36 1   
    29   18   19 1   
    30   19   23 1   
    31   20   21 1   
    32   20   37 1   
    33   21   22 1   
    34   21   38 1   
@<TRIPOS>SUBSTRUCTURE
     1 GVJ         1 TEMP              0 ****  ****    0 ROOT
