@<TRIPOS>MOLECULE
GVJ
   39    42     1     0     0
SMALL
bcc


@<TRIPOS>ATOM
      1 N1         -0.0180   -0.1410    0.0740 nz        1 GVJ     -0.851600
      2 C2          1.5020   -0.0230    0.0400 c3        1 GVJ      0.267100
      3 C3          2.0150    0.0410    1.4460 ca        1 GVJ     -0.183300
      4 C4          1.7640    1.2130    2.1820 ca        1 GVJ     -0.103000
      5 C5          2.2440    1.3400    3.4800 ca        1 GVJ     -0.118500
      6 C6          2.9870    0.3040    4.0550 ca        1 GVJ     -0.079000
      7 C7          3.2480   -0.8530    3.3250 ca        1 GVJ     -0.118500
      8 C8          2.7640   -0.9880    2.0220 ca        1 GVJ     -0.103000
      9 C9          2.0600   -1.1150   -0.8200 ca        1 GVJ     -0.169300
     10 C10         2.9050   -0.7670   -1.8790 ca        1 GVJ     -0.120500
     11 C11         3.4420   -1.7560   -2.7020 ca        1 GVJ     -0.079000
     12 C12         3.1340   -3.1040   -2.4750 cp        1 GVJ     -0.092500
     13 C13         2.2820   -3.4520   -1.4180 ca        1 GVJ     -0.079000
     14 C14         1.7540   -2.4640   -0.5930 ca        1 GVJ     -0.120500
     15 C15         3.7040   -4.1480   -3.3440 cp        1 GVJ      0.521800
     16 N16         3.7360   -3.9540   -4.6820 nb        1 GVJ     -0.701000
     17 C17         4.2820   -4.9350   -5.4620 ca        1 GVJ      0.649900
     18 N18         4.8240   -6.1170   -5.0870 nb        1 GVJ     -0.659000
     19 C19         4.7970   -6.3120   -3.7400 ca        1 GVJ      0.426800
     20 N20         5.2560   -7.3750   -2.9530 na        1 GVJ     -0.371000
     21 C21         4.9660   -7.0290   -1.6190 cc        1 GVJ      0.446700
     22 N22         4.3580   -5.8380   -1.4830 nd        1 GVJ     -0.564100
     23 C23         4.2270   -5.3400   -2.7880 ca        1 GVJ     -0.146200
     24 H1N1       -0.2820   -1.0560    0.4490 hn        1 GVJ      0.453800
     25 H1N2       -0.3930   -0.0510   -0.8730 hn        1 GVJ      0.453800
     26 H2          1.7070    0.9800   -0.4570 hx        1 GVJ      0.107700
     27 H4          1.2090    2.0470    1.7260 ha        1 GVJ      0.143000
     28 H8          2.9960   -1.9010    1.4500 ha        1 GVJ      0.143000
     29 H5          2.0490    2.2610    4.0530 ha        1 GVJ      0.159000
     30 H6          3.3720    0.4090    5.0830 ha        1 GVJ      0.161000
     31 H7          3.8440   -1.6660    3.7700 ha        1 GVJ      0.159000
     32 H10         3.1620    0.2880   -2.0660 ha        1 GVJ      0.137500
     33 H14         1.1150   -2.7640    0.2520 ha        1 GVJ      0.137500
     34 H11         4.1080   -1.4710   -3.5340 ha        1 GVJ      0.173000
     35 H13         2.0340   -4.5110   -1.2320 ha        1 GVJ      0.173000
     36 H17         4.2800   -4.7310   -6.5560 h5        1 GVJ      0.071100
     37 H20         5.7010   -8.1940   -3.2810 hn        1 GVJ      0.333700
     38 H21         5.2280   -7.7000   -0.7880 h5        1 GVJ      0.086800
     39 H131       -0.4040    0.5900    0.6780 hn        1 GVJ      0.453800
@<TRIPOS>BOND
     1    1    2 1   
     2    1   24 1   
     3    1   25 1   
     4    1   39 1   
     5    2    3 1   
     6    2    9 1   
     7    2   26 1   
     8    3    4 ar  
     9    3    8 ar  
    10    4    5 ar  
    11    4   27 1   
    12    5    6 ar  
    13    5   29 1   
    14    6    7 ar  
    15    6   30 1   
    16    7    8 ar  
    17    7   31 1   
    18    8   28 1   
    19    9   10 ar  
    20    9   14 ar  
    21   10   11 ar  
    22   10   32 1   
    23   11   12 ar  
    24   11   34 1   
    25   12   13 ar  
    26   12   15 1   
    27   13   14 ar  
    28   13   35 1   
    29   14   33 1   
    30   15   16 ar  
    31   15   23 ar  
    32   16   17 ar  
    33   17   18 ar  
    34   17   36 1   
    35   18   19 ar  
    36   19   20 1   
    37   19   23 ar  
    38   20   21 1   
    39   20   37 1   
    40   21   22 2   
    41   21   38 1   
    42   22   23 1   
@<TRIPOS>SUBSTRUCTURE
     1 GVJ         1 TEMP              0 ****  ****    0 ROOT
