@<TRIPOS>MOLECULE
GVJ
   38    41     1     0     0
SMALL
bcc


@<TRIPOS>ATOM
      1 N1         -5.2340    8.7010   -0.2890 n3        1 GVJ     -0.895800
      2 C2         -4.1670    7.7310   -0.1120 c3        1 GVJ      0.254100
      3 C3         -3.3510    7.4260   -1.3530 ca        1 GVJ     -0.116300
      4 C4         -2.9370    6.1100   -1.5880 ca        1 GVJ     -0.123000
      5 C5         -2.1920    5.7990   -2.7240 ca        1 GVJ     -0.126000
      6 C6         -1.8560    6.7990   -3.6370 ca        1 GVJ     -0.128000
      7 C7         -2.2660    8.1120   -3.4070 ca        1 GVJ     -0.126000
      8 C8         -3.0100    8.4250   -2.2700 ca        1 GVJ     -0.123000
      9 C9         -3.2330    8.1200    1.0140 ca        1 GVJ     -0.053300
     10 C10        -3.1410    7.3060    2.1470 ca        1 GVJ     -0.131000
     11 C11        -2.2870    7.6500    3.1930 ca        1 GVJ     -0.082500
     12 C12        -1.5100    8.8140    3.1140 cp        1 GVJ     -0.159500
     13 C13        -1.6110    9.6360    1.9840 ca        1 GVJ     -0.082500
     14 C14        -2.4680    9.2870    0.9430 ca        1 GVJ     -0.131000
     15 C15        -0.6030    9.1710    4.2150 cp        1 GVJ      0.568800
     16 N16        -1.0090    9.0190    5.4970 nb        1 GVJ     -0.711000
     17 C17        -0.1410    9.3530    6.4970 ca        1 GVJ      0.646900
     18 N18         1.1230    9.8290    6.4100 nb        1 GVJ     -0.690000
     19 C19         1.5400    9.9790    5.1200 ca        1 GVJ      0.418800
     20 N20         2.7610   10.4210    4.5990 na        1 GVJ     -0.381000
     21 C21         2.6310   10.3600    3.1960 cc        1 GVJ      0.418700
     22 N22         1.4330    9.9200    2.7800 nd        1 GVJ     -0.536100
     23 C23         0.7040    9.6650    3.9520 ca        1 GVJ     -0.155200
     24 H1N1       -5.7180    8.5240   -1.1470 hn        1 GVJ      0.350800
     25 H1N2       -4.8740    9.6350   -0.3040 hn        1 GVJ      0.350800
     26 H2         -4.6920    6.7670    0.1850 h1        1 GVJ      0.070700
     27 H4         -3.1990    5.3170   -0.8720 ha        1 GVJ      0.129500
     28 H8         -3.3170    9.4680   -2.1000 ha        1 GVJ      0.129500
     29 H5         -1.8680    4.7630   -2.9000 ha        1 GVJ      0.132000
     30 H6         -1.2680    6.5530   -4.5330 ha        1 GVJ      0.132000
     31 H7         -2.0010    8.9040   -4.1230 ha        1 GVJ      0.132000
     32 H10        -3.7500    6.3920    2.2220 ha        1 GVJ      0.133500
     33 H14        -2.5300    9.9320    0.0530 ha        1 GVJ      0.133500
     34 H11        -2.2280    7.0050    4.0830 ha        1 GVJ      0.147500
     35 H13        -1.0160   10.5590    1.9140 ha        1 GVJ      0.147500
     36 H17        -0.5300    9.2130    7.5280 h5        1 GVJ      0.057100
     37 H20         3.5470   10.7090    5.1190 hn        1 GVJ      0.320700
     38 H21         3.4570   10.6550    2.5360 h5        1 GVJ      0.075800
@<TRIPOS>BOND
     1    1    2 1   
     2    1   24 1   
     3    1   25 1   
     4    2    3 1   
     5    2    9 1   
     6    2   26 1   
     7    3    4 ar  
     8    3    8 ar  
     9    4    5 ar  
    10    4   27 1   
    11    5    6 ar  
    12    5   29 1   
    13    6    7 ar  
    14    6   30 1   
    15    7    8 ar  
    16    7   31 1   
    17    8   28 1   
    18    9   10 ar  
    19    9   14 ar  
    20   10   11 ar  
    21   10   32 1   
    22   11   12 ar  
    23   11   34 1   
    24   12   13 ar  
    25   12   15 1   
    26   13   14 ar  
    27   13   35 1   
    28   14   33 1   
    29   15   16 ar  
    30   15   23 ar  
    31   16   17 ar  
    32   17   18 ar  
    33   17   36 1   
    34   18   19 ar  
    35   19   20 1   
    36   19   23 ar  
    37   20   21 1   
    38   20   37 1   
    39   21   22 2   
    40   21   38 1   
    41   22   23 1   
@<TRIPOS>SUBSTRUCTURE
     1 GVJ         1 TEMP              0 ****  ****    0 ROOT
