@<TRIPOS>MOLECULE
GVJ
   39    42     1     0     0
SMALL
bcc


@<TRIPOS>ATOM
      1 N1         -0.0280   -0.1500    0.0650 n4        1 GVJ     -0.851600
      2 C2          1.4920   -0.0280    0.0380 c3        1 GVJ      0.267100
      3 C3          1.9980    0.0340    1.4480 ca        1 GVJ     -0.183300
      4 C4          1.7410    1.2040    2.1840 ca        1 GVJ     -0.103000
      5 C5          2.2150    1.3290    3.4850 ca        1 GVJ     -0.118500
      6 C6          2.9570    0.2940    4.0620 ca        1 GVJ     -0.079000
      7 C7          3.2240   -0.8610    3.3300 ca        1 GVJ     -0.118500
      8 C8          2.7460   -0.9940    2.0240 ca        1 GVJ     -0.103000
      9 C9          2.0580   -1.1170   -0.8210 ca        1 GVJ     -0.169300
     10 C10         2.9070   -0.7640   -1.8750 ca        1 GVJ     -0.120500
     11 C11         3.4510   -1.7500   -2.6970 ca        1 GVJ     -0.079000
     12 C12         3.1450   -3.0990   -2.4760 cp        1 GVJ     -0.092500
     13 C13         2.2880   -3.4520   -1.4230 ca        1 GVJ     -0.079000
     14 C14         1.7540   -2.4670   -0.5990 ca        1 GVJ     -0.120500
     15 C15         3.7230   -4.1400   -3.3440 cp        1 GVJ      0.521800
     16 N16         3.7610   -3.9420   -4.6810 nb        1 GVJ     -0.701000
     17 C17         4.3130   -4.9200   -5.4600 ca        1 GVJ      0.649900
     18 N18         4.8570   -6.1020   -5.0850 nb        1 GVJ     -0.659000
     19 C19         4.8230   -6.3000   -3.7390 ca        1 GVJ      0.426800
     20 N20         5.2800   -7.3640   -2.9530 na        1 GVJ     -0.371000
     21 C21         4.9820   -7.0220   -1.6190 cc        1 GVJ      0.446700
     22 N22         4.3710   -5.8330   -1.4840 nd        1 GVJ     -0.564100
     23 C23         4.2450   -5.3320   -2.7890 ca        1 GVJ     -0.146200
     24 H1N1       -0.4190    0.5780    0.6680 hn        1 GVJ      0.453800
     25 H1N2       -0.2910   -1.0670    0.4370 hn        1 GVJ      0.453800
     26 H2          1.6970    0.9760   -0.4550 hx        1 GVJ      0.107700
     27 H4          1.1860    2.0380    1.7280 ha        1 GVJ      0.143000
     28 H8          2.9840   -1.9060    1.4510 ha        1 GVJ      0.143000
     29 H5          2.0140    2.2480    4.0590 ha        1 GVJ      0.159000
     30 H6          3.3370    0.3970    5.0910 ha        1 GVJ      0.161000
     31 H7          3.8200   -1.6740    3.7760 ha        1 GVJ      0.159000
     32 H10         3.1620    0.2920   -2.0580 ha        1 GVJ      0.137500
     33 H14         1.1110   -2.7710    0.2420 ha        1 GVJ      0.137500
     34 H11         4.1200   -1.4620   -3.5260 ha        1 GVJ      0.173000
     35 H13         2.0420   -4.5110   -1.2410 ha        1 GVJ      0.173000
     36 H17         4.3170   -4.7130   -6.5540 h5        1 GVJ      0.071100
     37 H20         5.7290   -8.1800   -3.2800 hn        1 GVJ      0.333700
     38 H21         5.2420   -7.6940   -0.7890 h5        1 GVJ      0.086800
     39 H131       -0.3980   -0.0590   -0.8840 hn        1 GVJ      0.453800
@<TRIPOS>BOND
     1    1    2 1   
     2    1   24 1   
     3    1   25 1   
     4    1   39 1   
     5    2    3 1   
     6    2    9 1   
     7    2   26 1   
     8    3    4 ar  
     9    3    8 ar  
    10    4    5 ar  
    11    4   27 1   
    12    5    6 ar  
    13    5   29 1   
    14    6    7 ar  
    15    6   30 1   
    16    7    8 ar  
    17    7   31 1   
    18    8   28 1   
    19    9   10 ar  
    20    9   14 ar  
    21   10   11 ar  
    22   10   32 1   
    23   11   12 ar  
    24   11   34 1   
    25   12   13 ar  
    26   12   15 1   
    27   13   14 ar  
    28   13   35 1   
    29   14   33 1   
    30   15   16 ar  
    31   15   23 ar  
    32   16   17 ar  
    33   17   18 ar  
    34   17   36 1   
    35   18   19 ar  
    36   19   20 1   
    37   19   23 ar  
    38   20   21 1   
    39   20   37 1   
    40   21   22 2   
    41   21   38 1   
    42   22   23 1   
@<TRIPOS>SUBSTRUCTURE
     1 GVJ         1 TEMP              0 ****  ****    0 ROOT
