@<TRIPOS>MOLECULE
GVK
   48    52     1     0     0
SMALL
bcc


@<TRIPOS>ATOM
      1 CL1         0.0670   -0.0160   -0.3380 cl        1 GVK     -0.097400
      2 C2          1.7620   -0.0010   -0.2060 ca        1 GVK      0.015400
      3 C3          2.3660    0.5080    0.9450 ca        1 GVK     -0.123500
      4 C4          3.7570    0.5220    1.0500 ca        1 GVK     -0.117000
      5 C5          4.5570    0.0350    0.0120 ca        1 GVK     -0.068300
      6 C6          3.9330   -0.4820   -1.1340 ca        1 GVK     -0.117000
      7 C7          2.5470   -0.5020   -1.2500 ca        1 GVK     -0.123500
      8 C8          6.0700    0.0410    0.0680 c3        1 GVK      0.043600
      9 C9          6.5720    0.9560   -1.0630 c3        1 GVK     -0.070900
     10 C10         8.0850    1.1680   -1.0370 c3        1 GVK      0.159800
     11 N11         8.5880    1.6040    0.2510 n3        1 GVK     -0.817200
     12 C14         8.1110    0.8010    1.3600 c3        1 GVK      0.159800
     13 C15         6.5910    0.6590    1.3740 c3        1 GVK     -0.070900
     14 C16         6.5310   -1.3940   -0.0610 ca        1 GVK     -0.047300
     15 C17         6.3580   -2.2720    1.0210 ca        1 GVK     -0.140500
     16 C18         6.7560   -3.6030    0.9400 ca        1 GVK     -0.083500
     17 C19         7.3300   -4.0950   -0.2390 cp        1 GVK     -0.161500
     18 C20         7.4950   -3.2310   -1.3280 ca        1 GVK     -0.083500
     19 C21         7.0890   -1.9010   -1.2400 ca        1 GVK     -0.140500
     20 C22         7.7560   -5.4990   -0.3350 cp        1 GVK      0.567800
     21 N23         8.9300   -5.8040   -0.9360 nb        1 GVK     -0.712000
     22 C24         9.2940   -7.1180   -1.0160 ca        1 GVK      0.646900
     23 N25         8.6390   -8.2170   -0.5760 nb        1 GVK     -0.689000
     24 C26         7.4530   -7.9150    0.0260 ca        1 GVK      0.418800
     25 N27         6.4790   -8.7430    0.5960 na        1 GVK     -0.381000
     26 C29         5.4600   -7.8850    1.0580 cc        1 GVK      0.419700
     27 N30         5.7020   -6.5840    0.8330 nd        1 GVK     -0.536100
     28 C31         6.9460   -6.5440    0.1850 ca        1 GVK     -0.154200
     29 H3          1.7510    0.8970    1.7710 ha        1 GVK      0.146500
     30 H7          2.0740   -0.9110   -2.1550 ha        1 GVK      0.146500
     31 H4          4.2050    0.9230    1.9720 ha        1 GVK      0.140000
     32 H6          4.5510   -0.8920   -1.9490 ha        1 GVK      0.140000
     33 H9C1        6.2820    0.5440   -2.0620 hc        1 GVK      0.053450
     34 H9C2        6.0600    1.9490   -0.9510 hc        1 GVK      0.053450
     35 H151        6.3010    0.0360    2.2570 hc        1 GVK      0.053450
     36 H152        6.1300    1.6750    1.5000 hc        1 GVK      0.053450
     37 H101        8.5870    0.2150   -1.3820 h1        1 GVK      0.032700
     38 H102        8.3430    1.9740   -1.7820 h1        1 GVK      0.032700
     39 H11         9.5920    1.6060    0.2390 hn        1 GVK      0.362800
     40 H141        8.4340    1.3180    2.3080 h1        1 GVK      0.032700
     41 H142        8.5620   -0.2350    1.3640 h1        1 GVK      0.032700
     42 H17         5.8860   -1.9170    1.9500 ha        1 GVK      0.136000
     43 H21         7.2160   -1.2600   -2.1260 ha        1 GVK      0.136000
     44 H18         6.6140   -4.2650    1.8080 ha        1 GVK      0.147500
     45 H20         7.9440   -3.6000   -2.2630 ha        1 GVK      0.147500
     46 H24        10.2690   -7.3090   -1.5150 h5        1 GVK      0.057100
     47 H27         6.5090   -9.7260    0.6510 hn        1 GVK      0.321700
     48 H29         4.5630   -8.2820    1.5520 h5        1 GVK      0.076800
@<TRIPOS>BOND
     1    1    2 1   
     2    2    3 ar  
     3    2    7 ar  
     4    3    4 ar  
     5    3   29 1   
     6    4    5 ar  
     7    4   31 1   
     8    5    6 ar  
     9    5    8 1   
    10    6    7 ar  
    11    6   32 1   
    12    7   30 1   
    13    8    9 1   
    14    8   13 1   
    15    8   14 1   
    16    9   10 1   
    17    9   33 1   
    18    9   34 1   
    19   10   11 1   
    20   10   37 1   
    21   10   38 1   
    22   11   12 1   
    23   11   39 1   
    24   12   13 1   
    25   12   40 1   
    26   12   41 1   
    27   13   35 1   
    28   13   36 1   
    29   14   15 ar  
    30   14   19 ar  
    31   15   16 ar  
    32   15   42 1   
    33   16   17 ar  
    34   16   44 1   
    35   17   18 ar  
    36   17   20 1   
    37   18   19 ar  
    38   18   45 1   
    39   19   43 1   
    40   20   21 ar  
    41   20   28 ar  
    42   21   22 ar  
    43   22   23 ar  
    44   22   46 1   
    45   23   24 ar  
    46   24   25 1   
    47   24   28 ar  
    48   25   26 1   
    49   25   47 1   
    50   26   27 2   
    51   26   48 1   
    52   27   28 1   
@<TRIPOS>SUBSTRUCTURE
     1 GVK         1 TEMP              0 ****  ****    0 ROOT
