@<TRIPOS>MOLECULE
GVK
   48    52     1     0     0
SMALL
bcc


@<TRIPOS>ATOM
      1 CL1        -0.8650    0.3300   -6.5300 cl        1 GVK     -0.097400
      2 C2         -0.6510    0.7840   -4.9050 ca        1 GVK      0.015400
      3 C3          0.0990   -0.0250   -4.0490 ca        1 GVK     -0.123500
      4 C4          0.2700    0.3490   -2.7160 ca        1 GVK     -0.117000
      5 C5         -0.3040    1.5240   -2.2230 ca        1 GVK     -0.068300
      6 C6         -1.0460    2.3310   -3.1010 ca        1 GVK     -0.117000
      7 C7         -1.2240    1.9690   -4.4320 ca        1 GVK     -0.123500
      8 C8         -0.1630    1.9670   -0.7820 c3        1 GVK      0.043600
      9 C9         -1.5700    1.9810   -0.1610 c3        1 GVK     -0.070900
     10 C10        -1.5610    2.2750    1.3380 c3        1 GVK      0.159800
     11 N11        -0.6640    1.4220    2.0930 n3        1 GVK     -0.817200
     12 C14         0.6680    1.3390    1.5260 c3        1 GVK      0.159800
     13 C15         0.6560    0.9650    0.0450 c3        1 GVK     -0.070900
     14 C16         0.5110    3.3210   -0.7930 ca        1 GVK     -0.047300
     15 C17         1.8790    3.4080   -1.0980 ca        1 GVK     -0.140500
     16 C18         2.5340    4.6350   -1.1310 ca        1 GVK     -0.083500
     17 C19         1.8290    5.8160   -0.8690 cp        1 GVK     -0.161500
     18 C20         0.4620    5.7430   -0.5780 ca        1 GVK     -0.083500
     19 C21        -0.1880    4.5100   -0.5520 ca        1 GVK     -0.140500
     20 C22         2.5110    7.1190   -0.9000 cp        1 GVK      0.567800
     21 N23         2.2370    8.0420    0.0510 nb        1 GVK     -0.712000
     22 C24         2.8820    9.2450   -0.0080 ca        1 GVK      0.646900
     23 N25         3.7900    9.6850   -0.9100 nb        1 GVK     -0.689000
     24 C26         4.0650    8.7610   -1.8730 ca        1 GVK      0.418800
     25 N27         4.9210    8.8190   -2.9800 na        1 GVK     -0.381000
     26 C29         4.7960    7.5750   -3.6340 cc        1 GVK      0.419700
     27 N30         3.9390    6.7320   -3.0390 nd        1 GVK     -0.536100
     28 C31         3.4490    7.4260   -1.9220 ca        1 GVK     -0.154200
     29 H3          0.5550   -0.9550   -4.4200 ha        1 GVK      0.146500
     30 H7         -1.8080    2.6130   -5.1060 ha        1 GVK      0.146500
     31 H4          0.8710   -0.3050   -2.0660 ha        1 GVK      0.140000
     32 H6         -1.4830    3.2720   -2.7310 ha        1 GVK      0.140000
     33 H9C1       -2.0290    0.9710   -0.3340 hc        1 GVK      0.053450
     34 H9C2       -2.2210    2.7330   -0.6740 hc        1 GVK      0.053450
     35 H151        1.7140    0.9140   -0.3170 hc        1 GVK      0.053450
     36 H152        0.2000   -0.0540   -0.0720 hc        1 GVK      0.053450
     37 H101       -1.3220    3.3700    1.4870 h1        1 GVK      0.032700
     38 H102       -2.5990    2.1000    1.7400 h1        1 GVK      0.032700
     39 H11        -0.6110    1.7430    3.0420 hn        1 GVK      0.362800
     40 H141        1.2220    0.5390    2.0950 h1        1 GVK      0.032700
     41 H142        1.2440    2.3040    1.6410 h1        1 GVK      0.032700
     42 H17         2.4500    2.4970   -1.3320 ha        1 GVK      0.136000
     43 H21        -1.2680    4.4970   -0.3390 ha        1 GVK      0.136000
     44 H18         3.6090    4.6700   -1.3660 ha        1 GVK      0.147500
     45 H20        -0.1090    6.6610   -0.3700 ha        1 GVK      0.147500
     46 H24         2.6230    9.9610    0.8000 h5        1 GVK      0.057100
     47 H27         5.4860    9.5830   -3.2410 hn        1 GVK      0.321700
     48 H29         5.3660    7.3540   -4.5460 h5        1 GVK      0.076800
@<TRIPOS>BOND
     1    1    2 1   
     2    2    3 ar  
     3    2    7 ar  
     4    3    4 ar  
     5    3   29 1   
     6    4    5 ar  
     7    4   31 1   
     8    5    6 ar  
     9    5    8 1   
    10    6    7 ar  
    11    6   32 1   
    12    7   30 1   
    13    8    9 1   
    14    8   13 1   
    15    8   14 1   
    16    9   10 1   
    17    9   33 1   
    18    9   34 1   
    19   10   11 1   
    20   10   37 1   
    21   10   38 1   
    22   11   12 1   
    23   11   39 1   
    24   12   13 1   
    25   12   40 1   
    26   12   41 1   
    27   13   35 1   
    28   13   36 1   
    29   14   15 ar  
    30   14   19 ar  
    31   15   16 ar  
    32   15   42 1   
    33   16   17 ar  
    34   16   44 1   
    35   17   18 ar  
    36   17   20 1   
    37   18   19 ar  
    38   18   45 1   
    39   19   43 1   
    40   20   21 ar  
    41   20   28 ar  
    42   21   22 ar  
    43   22   23 ar  
    44   22   46 1   
    45   23   24 ar  
    46   24   25 1   
    47   24   28 ar  
    48   25   26 1   
    49   25   47 1   
    50   26   27 2   
    51   26   48 1   
    52   27   28 1   
@<TRIPOS>SUBSTRUCTURE
     1 GVK         1 TEMP              0 ****  ****    0 ROOT
