@<TRIPOS>MOLECULE
GVK
   48    45     1     0     0
SMALL
bcc


@<TRIPOS>ATOM
      1 CL1        -6.5910   -2.6170   -0.7160 cl        1 GVK     -0.018000
      2 C2         -4.8470   -2.3640   -0.4870 c2        1 GVK     -0.063000
      3 C3         -4.2430   -2.4810    0.8970 c2        1 GVK     -0.125000
      4 C4         -2.7270   -2.3710    1.0820 c1        1 GVK     -0.121000
      5 C5         -1.8270   -2.1860   -0.1250 c1        1 GVK     -0.055000
      6 C6         -2.4340   -2.0710   -1.5150 c1        1 GVK     -0.115000
      7 C7         -3.9430   -2.1740   -1.6980 c1        1 GVK     -0.122000
      8 C8         -0.2700   -2.1090    0.0610 c3        1 GVK      0.034000
      9 C9          0.4760   -2.2760    1.3330 c3        1 GVK     -0.186500
     10 C10         0.5550   -3.7350    1.7710 c3        1 GVK     -0.090000
     11 N11         1.0490   -4.6170    0.7050 n3        1 GVK     -0.271000
     12 C14         0.3070   -4.4530   -0.5640 c3        1 GVK     -0.090000
     13 C15         0.2310   -3.0000   -1.0100 c3        1 GVK     -0.186500
     14 C16         0.0820   -0.5580   -0.1860 c2        1 GVK     -0.049000
     15 C17        -0.6690    0.5190    0.5790 c2        1 GVK     -0.134000
     16 C18        -0.1930    1.9650    0.5240 c1        1 GVK     -0.081000
     17 C19         0.9940    2.3350   -0.3290 c1        1 GVK     -0.053000
     18 C20         1.7460    1.2590   -1.0930 c1        1 GVK     -0.084000
     19 C21         1.2680   -0.1840   -1.0440 c1        1 GVK     -0.144000
     20 C22         1.4250    3.7920   -0.4430 c2        1 GVK      0.133000
     21 N23         0.6280    4.3090   -1.5370 n2        1 GVK     -0.185000
     22 C24         0.7380    5.7490   -1.9300 c1        1 GVK     -0.016000
     23 N25         1.5590    6.6790   -1.1190 n1        1 GVK     -0.163000
     24 C26         2.3290    6.1820   -0.0140 c1        1 GVK      0.028000
     25 N27         3.2750    6.7870    1.0400 n2        1 GVK     -0.229000
     26 C29         3.6580    5.7090    1.7970 c2        1 GVK     -0.036000
     27 N30         3.1420    4.5920    1.4190 n1        1 GVK     -0.111000
     28 C31         2.3020    4.6980    0.3210 c1        1 GVK     -0.163000
     29 H3         -4.8230   -2.6000    1.6730 ha        1 GVK      0.146000
     30 H7         -4.3200   -2.1010   -2.5630 ha        1 GVK      0.147000
     31 H4         -2.3340   -2.4460    1.9820 ha        1 GVK      0.139000
     32 H6         -1.8220   -1.9440   -2.3380 ha        1 GVK      0.140000
     33 H9C1        0.0200   -1.7490    2.0460 hc        1 GVK      0.090000
     34 H9C2        1.3990   -1.9260    1.2130 hc        1 GVK      0.090000
     35 H151       -0.3570   -2.9360   -1.7710 hc        1 GVK      0.090000
     36 H152        1.1190   -2.7040   -1.2740 hc        1 GVK      0.090000
     37 H101       -0.3270   -4.0290    2.0370 h1        1 GVK      0.095250
     38 H102        1.1670   -3.8020    2.5530 h1        1 GVK      0.095250
     39 H11         1.9630   -4.4480    0.5580 hn        1 GVK      0.143000
     40 H141       -0.6230   -4.8010   -0.4420 h1        1 GVK      0.095250
     41 H142        0.7450   -4.9660   -1.2500 h1        1 GVK      0.095250
     42 H17        -1.4280    0.2820    1.1240 ha        1 GVK      0.137000
     43 H21         1.7440   -0.8640   -1.5270 ha        1 GVK      0.135000
     44 H18        -0.6870    2.6720    1.0260 ha        1 GVK      0.149000
     45 H20         2.5170    1.5010   -1.6480 ha        1 GVK      0.146000
     46 H24         0.1870    6.1010   -2.6850 ha        1 GVK      0.194000
     47 H27         3.2960    7.6590    1.3020 hn        1 GVK      0.272000
     48 H29         4.5450    5.7180    2.2680 h5        1 GVK      0.206000
@<TRIPOS>BOND
     1    1    2 1   
     2    2    3 1   
     3    2    7 1   
     4    3    4 1   
     5    3   29 1   
     6    4   31 1   
     7    5    6 1   
     8    5    8 1   
     9    6   32 1   
    10    7   30 1   
    11    8    9 1   
    12    8   13 1   
    13    8   14 1   
    14    9   10 1   
    15    9   33 1   
    16    9   34 1   
    17   10   11 1   
    18   10   37 1   
    19   10   38 1   
    20   11   12 1   
    21   11   39 1   
    22   12   13 1   
    23   12   40 1   
    24   12   41 1   
    25   13   35 1   
    26   13   36 1   
    27   14   15 1   
    28   14   19 1   
    29   15   16 1   
    30   15   42 1   
    31   16   44 1   
    32   17   18 1   
    33   17   20 1   
    34   18   45 1   
    35   19   43 1   
    36   20   21 1   
    37   20   28 1   
    38   21   22 1   
    39   22   46 1   
    40   23   24 1   
    41   24   28 1   
    42   25   26 1   
    43   25   47 1   
    44   26   27 1   
    45   26   48 1   
@<TRIPOS>SUBSTRUCTURE
     1 GVK         1 TEMP              0 ****  ****    0 ROOT
