@<TRIPOS>MOLECULE
GVK
   48    52     1     0     0
SMALL
bcc


@<TRIPOS>ATOM
      1 CL1         0.0660   -0.0190   -0.3320 cl        1 GVK     -0.097400
      2 C2          1.7610   -0.0030   -0.2000 ca        1 GVK      0.015400
      3 C3          2.3650    0.5050    0.9510 ca        1 GVK     -0.123500
      4 C4          3.7570    0.5190    1.0550 ca        1 GVK     -0.117000
      5 C5          4.5560    0.0340    0.0160 ca        1 GVK     -0.068300
      6 C6          3.9310   -0.4830   -1.1310 ca        1 GVK     -0.117000
      7 C7          2.5450   -0.5020   -1.2450 ca        1 GVK     -0.123500
      8 C8          6.0690    0.0410    0.0700 c3        1 GVK      0.043600
      9 C9          6.5700    0.9570   -1.0600 c3        1 GVK     -0.070900
     10 C10         8.0820    1.1700   -1.0340 c3        1 GVK      0.159800
     11 N11         8.5860    1.6050    0.2530 n3        1 GVK     -0.817200
     12 C14         8.1110    0.8010    1.3620 c3        1 GVK      0.159800
     13 C15         6.5900    0.6570    1.3770 c3        1 GVK     -0.070900
     14 C16         6.5300   -1.3930   -0.0600 ca        1 GVK     -0.047300
     15 C17         6.3580   -2.2730    1.0200 ca        1 GVK     -0.140500
     16 C18         6.7560   -3.6040    0.9380 ca        1 GVK     -0.083500
     17 C19         7.3310   -4.0940   -0.2410 cp        1 GVK     -0.161500
     18 C20         7.4950   -3.2290   -1.3300 ca        1 GVK     -0.083500
     19 C21         7.0880   -1.8990   -1.2400 ca        1 GVK     -0.140500
     20 C22         7.7580   -5.4980   -0.3390 cp        1 GVK      0.567800
     21 N23         8.9310   -5.8020   -0.9400 nb        1 GVK     -0.712000
     22 C24         9.2970   -7.1150   -1.0220 ca        1 GVK      0.646900
     23 N25         8.6420   -8.2150   -0.5830 nb        1 GVK     -0.689000
     24 C26         7.4560   -7.9150    0.0180 ca        1 GVK      0.418800
     25 N27         6.4820   -8.7440    0.5870 na        1 GVK     -0.381000
     26 C29         5.4630   -7.8870    1.0500 cc        1 GVK      0.419700
     27 N30         5.7040   -6.5850    0.8280 nd        1 GVK     -0.536100
     28 C31         6.9490   -6.5430    0.1800 ca        1 GVK     -0.154200
     29 H3          1.7510    0.8930    1.7780 ha        1 GVK      0.146500
     30 H7          2.0710   -0.9110   -2.1510 ha        1 GVK      0.146500
     31 H4          4.2050    0.9200    1.9760 ha        1 GVK      0.140000
     32 H6          4.5490   -0.8910   -1.9460 ha        1 GVK      0.140000
     33 H9C1        6.2790    0.5460   -2.0590 hc        1 GVK      0.053450
     34 H9C2        6.0570    1.9500   -0.9470 hc        1 GVK      0.053450
     35 H151        6.1280    1.6730    1.5040 hc        1 GVK      0.053450
     36 H152        6.3010    0.0330    2.2590 hc        1 GVK      0.053450
     37 H101        8.3390    1.9770   -1.7790 h1        1 GVK      0.032700
     38 H102        8.5850    0.2180   -1.3810 h1        1 GVK      0.032700
     39 H11         9.5900    1.6080    0.2410 hn        1 GVK      0.362800
     40 H141        8.4340    1.3170    2.3100 h1        1 GVK      0.032700
     41 H142        8.5620   -0.2350    1.3640 h1        1 GVK      0.032700
     42 H17         5.8860   -1.9200    1.9500 ha        1 GVK      0.136000
     43 H21         7.2150   -1.2570   -2.1250 ha        1 GVK      0.136000
     44 H18         6.6150   -4.2670    1.8050 ha        1 GVK      0.147500
     45 H20         7.9440   -3.5970   -2.2650 ha        1 GVK      0.147500
     46 H24        10.2720   -7.3050   -1.5210 h5        1 GVK      0.057100
     47 H27         6.5130   -9.7270    0.6410 hn        1 GVK      0.321700
     48 H29         4.5660   -8.2850    1.5430 h5        1 GVK      0.076800
@<TRIPOS>BOND
     1    1    2 1   
     2    2    3 ar  
     3    2    7 ar  
     4    3    4 ar  
     5    3   29 1   
     6    4    5 ar  
     7    4   31 1   
     8    5    6 ar  
     9    5    8 1   
    10    6    7 ar  
    11    6   32 1   
    12    7   30 1   
    13    8    9 1   
    14    8   13 1   
    15    8   14 1   
    16    9   10 1   
    17    9   33 1   
    18    9   34 1   
    19   10   11 1   
    20   10   37 1   
    21   10   38 1   
    22   11   12 1   
    23   11   39 1   
    24   12   13 1   
    25   12   40 1   
    26   12   41 1   
    27   13   35 1   
    28   13   36 1   
    29   14   15 ar  
    30   14   19 ar  
    31   15   16 ar  
    32   15   42 1   
    33   16   17 ar  
    34   16   44 1   
    35   17   18 ar  
    36   17   20 1   
    37   18   19 ar  
    38   18   45 1   
    39   19   43 1   
    40   20   21 ar  
    41   20   28 ar  
    42   21   22 ar  
    43   22   23 ar  
    44   22   46 1   
    45   23   24 ar  
    46   24   25 1   
    47   24   28 ar  
    48   25   26 1   
    49   25   47 1   
    50   26   27 2   
    51   26   48 1   
    52   27   28 1   
@<TRIPOS>SUBSTRUCTURE
     1 GVK         1 TEMP              0 ****  ****    0 ROOT
