@<TRIPOS>MOLECULE
GVK
   48    52     1     0     0
SMALL
bcc


@<TRIPOS>ATOM
      1 Cl1         0.0690   -0.0130   -0.3410 cl        1 GVK     -0.097400
      2 C2          1.7640    0.0020   -0.2100 ca        1 GVK      0.015400
      3 C3          2.3690    0.5140    0.9390 ca        1 GVK     -0.123500
      4 C4          3.7610    0.5270    1.0420 ca        1 GVK     -0.117000
      5 C5          4.5590    0.0360    0.0050 ca        1 GVK     -0.068300
      6 C6          3.9330   -0.4850   -1.1380 ca        1 GVK     -0.117000
      7 C7          2.5470   -0.5030   -1.2530 ca        1 GVK     -0.123500
      8 C8          6.0720    0.0420    0.0600 c3        1 GVK      0.043600
      9 C9          6.5740    0.9520   -1.0750 c3        1 GVK     -0.070900
     10 C10         8.0870    1.1620   -1.0510 c3        1 GVK      0.159800
     11 N11         8.5920    1.6030    0.2340 n7        1 GVK     -0.817200
     12 C14         8.1150    0.8050    1.3470 c3        1 GVK      0.159800
     13 C15         6.5940    0.6640    1.3630 c3        1 GVK     -0.070900
     14 C16         6.5320   -1.3940   -0.0640 ca        1 GVK     -0.047300
     15 C17         6.3590   -2.2680    1.0210 ca        1 GVK     -0.140500
     16 C18         6.7550   -3.6000    0.9450 ca        1 GVK     -0.083500
     17 C19         7.3290   -4.0970   -0.2320 cp        1 GVK     -0.161500
     18 C20         7.4930   -3.2370   -1.3250 ca        1 GVK     -0.083500
     19 C21         7.0880   -1.9060   -1.2420 ca        1 GVK     -0.140500
     20 C22         7.7530   -5.5020   -0.3230 cp        1 GVK      0.567800
     21 N23         8.9260   -5.8100   -0.9240 nb        1 GVK     -0.712000
     22 C24         9.2900   -7.1250   -1.0000 ca        1 GVK      0.646900
     23 N25         8.6330   -8.2210   -0.5540 nb        1 GVK     -0.689000
     24 C26         7.4480   -7.9160    0.0460 ca        1 GVK      0.418800
     25 N27         6.4730   -8.7410    0.6200 na        1 GVK     -0.381000
     26 C29         5.4550   -7.8800    1.0790 cc        1 GVK      0.419700
     27 N30         5.6980   -6.5800    0.8500 nd        1 GVK     -0.536100
     28 C31         6.9420   -6.5430    0.2010 ca        1 GVK     -0.154200
     29 H3          1.7560    0.9070    1.7640 ha        1 GVK      0.146500
     30 H7          2.0730   -0.9160   -2.1560 ha        1 GVK      0.146500
     31 H4          4.2100    0.9320    1.9620 ha        1 GVK      0.140000
     32 H6          4.5510   -0.8970   -1.9520 ha        1 GVK      0.140000
     33 H9C1        6.2820    0.5360   -2.0730 hc        1 GVK      0.053450
     34 H9C2        6.0630    1.9460   -0.9670 hc        1 GVK      0.053450
     35 H151        6.1340    1.6800    1.4860 hc        1 GVK      0.053450
     36 H152        6.3040    0.0440    2.2490 hc        1 GVK      0.053450
     37 H101        8.3450    1.9650   -1.7990 h1        1 GVK      0.032700
     38 H102        8.5880    0.2080   -1.3930 h1        1 GVK      0.032700
     39 H11         9.5950    1.6050    0.2220 hn        1 GVK      0.362800
     40 H141        8.5650   -0.2320    1.3550 h1        1 GVK      0.032700
     41 H142        8.4390    1.3250    2.2930 h1        1 GVK      0.032700
     42 H17         5.8880   -1.9090    1.9490 ha        1 GVK      0.136000
     43 H21         7.2150   -1.2690   -2.1300 ha        1 GVK      0.136000
     44 H18         6.6130   -4.2580    1.8150 ha        1 GVK      0.147500
     45 H20         7.9410   -3.6110   -2.2590 ha        1 GVK      0.147500
     46 H24        10.2640   -7.3190   -1.4980 h5        1 GVK      0.057100
     47 H27         6.5020   -9.7240    0.6790 hn        1 GVK      0.321700
     48 H29         4.5580   -8.2740    1.5750 h5        1 GVK      0.076800
@<TRIPOS>BOND
     1    1    2 1   
     2    2    3 ar  
     3    2    7 ar  
     4    3    4 ar  
     5    3   29 1   
     6    4    5 ar  
     7    4   31 1   
     8    5    6 ar  
     9    5    8 1   
    10    6    7 ar  
    11    6   32 1   
    12    7   30 1   
    13    8    9 1   
    14    8   13 1   
    15    8   14 1   
    16    9   10 1   
    17    9   33 1   
    18    9   34 1   
    19   10   11 1   
    20   10   37 1   
    21   10   38 1   
    22   11   12 1   
    23   11   39 1   
    24   12   13 1   
    25   12   40 1   
    26   12   41 1   
    27   13   35 1   
    28   13   36 1   
    29   14   15 ar  
    30   14   19 ar  
    31   15   16 ar  
    32   15   42 1   
    33   16   17 ar  
    34   16   44 1   
    35   17   18 ar  
    36   17   20 1   
    37   18   19 ar  
    38   18   45 1   
    39   19   43 1   
    40   20   21 ar  
    41   20   28 ar  
    42   21   22 ar  
    43   22   23 ar  
    44   22   46 1   
    45   23   24 ar  
    46   24   25 1   
    47   24   28 ar  
    48   25   26 1   
    49   25   47 1   
    50   26   27 2   
    51   26   48 1   
    52   27   28 1   
@<TRIPOS>SUBSTRUCTURE
     1 GVK         1 TEMP              0 ****  ****    0 ROOT
