@<TRIPOS>MOLECULE
GVL
   37    36     1     0     0
SMALL
bcc


@<TRIPOS>ATOM
      1 O           0.5410   -9.5320   -2.7180 o         1 GVL     -0.864300
      2 C           1.4020   -8.9870   -3.4690 c         1 GVL      0.886600
      3 CA          2.0350   -7.6390   -3.0120 c3        1 GVL      0.007500
      4 N           3.3470   -7.3940   -3.6050 n3        1 GVL     -0.879800
      5 CB          1.0400   -6.4810   -3.2630 c3        1 GVL      0.214400
      6 O25         0.7640   -5.8500   -2.0490 os        1 GVL     -0.593200
      7 P24        -0.7360   -5.2930   -1.7090 p5        1 GVL      1.443800
      8 O23        -0.9000   -5.5230   -0.2520 o         1 GVL     -0.844500
      9 O26        -0.9580   -4.0140   -2.4110 o         1 GVL     -0.844500
     10 O27        -1.7470   -6.3970   -2.4160 os        1 GVL     -0.581200
     11 C28        -1.6310   -7.7110   -1.9630 c3        1 GVL      0.171400
     12 C29        -2.9440   -8.2710   -1.3730 c3        1 GVL     -0.091000
     13 C30        -3.8510   -7.1770   -0.8390 c3        1 GVL     -0.084600
     14 C31        -3.6790   -9.0050   -2.4930 c3        1 GVL     -0.084600
     15 C32        -2.6710   -9.2990   -0.2540 c3        1 GVL      0.102100
     16 O33        -1.6260  -10.2080   -0.5060 oh        1 GVL     -0.618800
     17 C34        -2.5070   -8.6590    1.1390 c         1 GVL      0.626100
     18 O35        -3.3530   -8.9340    2.0310 o         1 GVL     -0.703100
     19 N36        -1.4220   -7.8830    1.4390 n         1 GVL     -0.613000
     20 OXT         1.8000   -9.5060   -4.5550 o         1 GVL     -0.864300
     21 HA          2.1920   -7.7090   -1.8960 h1        1 GVL      0.070700
     22 HN1         3.2160   -7.1830   -4.5800 hn        1 GVL      0.318300
     23 HN2         3.8520   -8.2640   -3.5780 hn        1 GVL      0.318300
     24 HBC1        0.0900   -6.8850   -3.7080 h1        1 GVL      0.015700
     25 HBC2        1.4760   -5.7230   -3.9770 h1        1 GVL      0.015700
     26 H281       -0.7930   -7.7740   -1.2110 h1        1 GVL      0.058200
     27 H282       -1.3390   -8.3620   -2.8430 h1        1 GVL      0.058200
     28 H301       -4.1300   -6.4870   -1.6710 hc        1 GVL      0.033533
     29 H302       -4.7790   -7.6220   -0.4050 hc        1 GVL      0.033533
     30 H303       -3.3350   -6.5800   -0.0480 hc        1 GVL      0.033533
     31 H311       -3.7930   -8.3240   -3.3700 hc        1 GVL      0.033533
     32 H312       -3.0940   -9.9040   -2.8040 hc        1 GVL      0.033533
     33 H313       -4.6920   -9.3320   -2.1550 hc        1 GVL      0.033533
     34 H32        -3.5880   -9.9600   -0.1550 h1        1 GVL      0.057700
     35 H33        -0.9310   -9.7870   -1.0420 ho        1 GVL      0.464000
     36 H361       -1.4560   -7.3820    2.2960 hn        1 GVL      0.318000
     37 H362       -0.9360   -7.4080    0.7030 hn        1 GVL      0.318000
@<TRIPOS>BOND
     1    1    2 1   
     2    2    3 1   
     3    2   20 1   
     4    3    4 1   
     5    3    5 1   
     6    3   21 1   
     7    4   22 1   
     8    4   23 1   
     9    5    6 1   
    10    5   24 1   
    11    5   25 1   
    12    6    7 1   
    13    7    8 1   
    14    7    9 1   
    15    7   10 1   
    16   10   11 1   
    17   11   12 1   
    18   11   26 1   
    19   11   27 1   
    20   12   13 1   
    21   12   14 1   
    22   12   15 1   
    23   13   28 1   
    24   13   29 1   
    25   13   30 1   
    26   14   31 1   
    27   14   32 1   
    28   14   33 1   
    29   15   16 1   
    30   15   17 1   
    31   15   34 1   
    32   16   35 1   
    33   17   18 2   
    34   17   19 1   
    35   19   36 1   
    36   19   37 1   
@<TRIPOS>SUBSTRUCTURE
     1 GVL         1 TEMP              0 ****  ****    0 ROOT
