@<TRIPOS>MOLECULE
GVM
   26    25     1     0     0
SMALL
bcc


@<TRIPOS>ATOM
      1 C1         -0.3450   -0.0250   -0.0660 c         1 GVM      0.908600
      2 O1A         0.8770    0.2750    0.1030 o         1 GVM     -0.851300
      3 O1B        -1.1040   -0.4080    0.8670 o         1 GVM     -0.851300
      4 C2         -0.9310    0.0610   -1.4840 c3        1 GVM     -0.231400
      5 C3         -0.3750    1.2280   -2.2910 c3        1 GVM      0.178100
      6 O3          0.9980    1.0340   -2.5920 oh        1 GVM     -0.654800
      7 C4         -0.6020    2.5410   -1.5420 c3        1 GVM     -0.105400
      8 C5A         0.8020    3.8910   -3.1230 c3        1 GVM     -0.081100
      9 C5B        -0.6550    5.0110   -1.4590 c3        1 GVM     -0.081100
     10 C5C        -1.6670    3.8560   -3.3990 c3        1 GVM     -0.081100
     11 C5         -0.5280    3.8100   -2.3910 c3        1 GVM     -0.050000
     12 H2C1       -2.0430    0.1470   -1.4180 hc        1 GVM      0.033700
     13 H2C2       -0.6800   -0.8930   -2.0110 hc        1 GVM      0.033700
     14 H3         -0.8730    1.2660   -3.3020 h1        1 GVM      0.020700
     15 HA          1.4400    0.8110   -1.7530 ho        1 GVM      0.449000
     16 H4C1        0.1670    2.5960   -0.7240 hc        1 GVM      0.061200
     17 H4C2       -1.6110    2.5010   -1.0550 hc        1 GVM      0.061200
     18 H5A1        0.9080    3.0260   -3.8220 hc        1 GVM      0.026811
     19 H5A2        1.6430    3.8460   -2.3900 hc        1 GVM      0.026811
     20 H5A3        0.8720    4.8430   -3.7010 hc        1 GVM      0.026811
     21 H5B1       -0.6060    5.9630   -2.0410 hc        1 GVM      0.026811
     22 H5B2        0.1720    5.0070   -0.7110 hc        1 GVM      0.026811
     23 H5B3       -1.6280    4.9760   -0.9140 hc        1 GVM      0.026811
     24 H5C1       -1.6710    4.8360   -3.9330 hc        1 GVM      0.026811
     25 H5C2       -2.6470    3.7270   -2.8810 hc        1 GVM      0.026811
     26 H5C3       -1.5540    3.0440   -4.1560 hc        1 GVM      0.026811
@<TRIPOS>BOND
     1    1    2 1   
     2    1    3 1   
     3    1    4 1   
     4    4    5 1   
     5    4   12 1   
     6    4   13 1   
     7    5    6 1   
     8    5    7 1   
     9    5   14 1   
    10    6   15 1   
    11    7   11 1   
    12    7   16 1   
    13    7   17 1   
    14    8   11 1   
    15    8   18 1   
    16    8   19 1   
    17    8   20 1   
    18    9   11 1   
    19    9   21 1   
    20    9   22 1   
    21    9   23 1   
    22   10   11 1   
    23   10   24 1   
    24   10   25 1   
    25   10   26 1   
@<TRIPOS>SUBSTRUCTURE
     1 GVM         1 TEMP              0 ****  ****    0 ROOT
