@<TRIPOS>MOLECULE
GVM
   26    25     1     0     0
SMALL
bcc


@<TRIPOS>ATOM
      1 C1          5.4030    1.0190    1.0570 c         1 GVM      0.908600
      2 O1A         4.4720    1.8800    0.9930 o         1 GVM     -0.851300
      3 O1B         6.6030    1.3070    1.3190 o         1 GVM     -0.851300
      4 C2          5.0570   -0.4530    0.7840 c3        1 GVM     -0.231400
      5 C3          3.6880   -0.8560    1.3160 c3        1 GVM      0.178100
      6 O3          2.6490   -0.2100    0.5970 oh        1 GVM     -0.654800
      7 C4          3.5960   -0.5590    2.8130 c3        1 GVM     -0.105400
      8 C5A         1.1410   -1.0500    2.9420 c3        1 GVM     -0.081100
      9 C5B         2.4850   -0.7920    5.0080 c3        1 GVM     -0.081100
     10 C5C         2.7780   -2.8010    3.5940 c3        1 GVM     -0.081100
     11 C5          2.5000   -1.3050    3.5720 c3        1 GVM     -0.050000
     12 H2C1        5.8420   -1.1060    1.2370 hc        1 GVM      0.033700
     13 H2C2        5.0710   -0.6020   -0.3260 hc        1 GVM      0.033700
     14 H3          3.5100   -1.9530    1.1250 h1        1 GVM      0.020700
     15 HA          2.8680    0.7390    0.5780 ho        1 GVM      0.449000
     16 H4C1        3.4390    0.5490    2.9240 hc        1 GVM      0.061200
     17 H4C2        4.5840   -0.8070    3.2830 hc        1 GVM      0.061200
     18 H5A1        0.9350    0.0470    2.9110 hc        1 GVM      0.026811
     19 H5A2        0.3370   -1.5560    3.5290 hc        1 GVM      0.026811
     20 H5A3        1.1260   -1.4330    1.8930 hc        1 GVM      0.026811
     21 H5B1        2.2780    0.3040    5.0230 hc        1 GVM      0.026811
     22 H5B2        1.6950   -1.3130    5.6010 hc        1 GVM      0.026811
     23 H5B3        3.4740   -0.9730    5.4940 hc        1 GVM      0.026811
     24 H5C1        2.7040   -3.2300    2.5670 hc        1 GVM      0.026811
     25 H5C2        3.8020   -2.9990    3.9910 hc        1 GVM      0.026811
     26 H5C3        2.0360   -3.3220    4.2460 hc        1 GVM      0.026811
@<TRIPOS>BOND
     1    1    2 1   
     2    1    3 1   
     3    1    4 1   
     4    4    5 1   
     5    4   12 1   
     6    4   13 1   
     7    5    6 1   
     8    5    7 1   
     9    5   14 1   
    10    6   15 1   
    11    7   11 1   
    12    7   16 1   
    13    7   17 1   
    14    8   11 1   
    15    8   18 1   
    16    8   19 1   
    17    8   20 1   
    18    9   11 1   
    19    9   21 1   
    20    9   22 1   
    21    9   23 1   
    22   10   11 1   
    23   10   24 1   
    24   10   25 1   
    25   10   26 1   
@<TRIPOS>SUBSTRUCTURE
     1 GVM         1 TEMP              0 ****  ****    0 ROOT
