@<TRIPOS>MOLECULE
GVM
   26    25     1     0     0
SMALL
bcc


@<TRIPOS>ATOM
      1 C1         -0.3220   -0.0170   -0.0560 c         1 GVM      0.908600
      2 O1A         0.9090    0.2670    0.0730 o         1 GVM     -0.851300
      3 O1B        -1.0570   -0.3840    0.9010 o         1 GVM     -0.851300
      4 C2         -0.9490    0.0710   -1.4560 c3        1 GVM     -0.231400
      5 C3         -0.4030    1.2260   -2.2860 c3        1 GVM      0.178100
      6 O3          0.9580    1.0110   -2.6280 oh        1 GVM     -0.654800
      7 C4         -0.5880    2.5450   -1.5380 c3        1 GVM     -0.105400
      8 C5A         0.7870    3.8710   -3.1630 c3        1 GVM     -0.081100
      9 C5B        -0.6100    5.0160   -1.4660 c3        1 GVM     -0.081100
     10 C5C        -1.6880    3.8640   -3.3710 c3        1 GVM     -0.081100
     11 C5         -0.5220    3.8090   -2.3950 c3        1 GVM     -0.050000
     12 H2C1       -2.0580    0.1720   -1.3570 hc        1 GVM      0.033700
     13 H2C2       -0.7280   -0.8900   -1.9850 hc        1 GVM      0.033700
     14 H3         -0.9310    1.2650   -3.2820 h1        1 GVM      0.020700
     15 HA          1.4220    0.7860   -1.8020 ho        1 GVM      0.449000
     16 H4C1        0.2050    2.5930   -0.7430 hc        1 GVM      0.061200
     17 H4C2       -1.5830    2.5220   -1.0200 hc        1 GVM      0.061200
     18 H5A1        0.8650    3.0000   -3.8590 hc        1 GVM      0.026811
     19 H5A2        1.6480    3.8210   -2.4530 hc        1 GVM      0.026811
     20 H5A3        0.8520    4.8180   -3.7500 hc        1 GVM      0.026811
     21 H5B1       -0.5640    5.9650   -2.0530 hc        1 GVM      0.026811
     22 H5B2        0.2370    5.0050   -0.7390 hc        1 GVM      0.026811
     23 H5B3       -1.5690    4.9960   -0.8950 hc        1 GVM      0.026811
     24 H5C1       -1.6970    4.8430   -3.9090 hc        1 GVM      0.026811
     25 H5C2       -2.6550    3.7470   -2.8270 hc        1 GVM      0.026811
     26 H5C3       -1.6050    3.0490   -4.1290 hc        1 GVM      0.026811
@<TRIPOS>BOND
     1    1    2 1   
     2    1    3 1   
     3    1    4 1   
     4    4    5 1   
     5    4   12 1   
     6    4   13 1   
     7    5    6 1   
     8    5    7 1   
     9    5   14 1   
    10    6   15 1   
    11    7   11 1   
    12    7   16 1   
    13    7   17 1   
    14    8   11 1   
    15    8   18 1   
    16    8   19 1   
    17    8   20 1   
    18    9   11 1   
    19    9   21 1   
    20    9   22 1   
    21    9   23 1   
    22   10   11 1   
    23   10   24 1   
    24   10   25 1   
    25   10   26 1   
@<TRIPOS>SUBSTRUCTURE
     1 GVM         1 TEMP              0 ****  ****    0 ROOT
