@<TRIPOS>MOLECULE
GVN
   38    40     1     0     0
SMALL
bcc


@<TRIPOS>ATOM
      1 N1         -0.0510    0.0280    0.2860 nz        1 GVN     -0.840600
      2 C2          1.4340   -0.1080    0.2030 c3        1 GVN      0.100800
      3 C3          2.0830   -0.0980    1.6020 c3        1 GVN      0.036900
      4 C4          3.5630   -0.2720    1.4710 ca        1 GVN     -0.114300
      5 C5          4.2130   -1.1230    2.3750 ca        1 GVN     -0.111500
      6 C6          5.5900   -1.3210    2.2990 ca        1 GVN     -0.114000
      7 C7          6.3310   -0.6680    1.3080 ca        1 GVN      0.035400
      8 Cl8         8.0020   -0.9080    1.2050 cl        1 GVN     -0.047400
      9 C9          5.6920    0.1860    0.4020 ca        1 GVN     -0.114000
     10 C10         4.3160    0.3820    0.4890 ca        1 GVN     -0.111500
     11 C11         1.6670    1.1350    2.3400 ca        1 GVN     -0.176300
     12 C12         0.5560    1.0720    3.1960 ca        1 GVN     -0.124000
     13 C13         0.1350    2.1940    3.8970 ca        1 GVN     -0.129000
     14 C14         0.8170    3.4200    3.7650 ca        1 GVN      0.069000
     15 C15         1.9370    3.4730    2.9170 ca        1 GVN     -0.129000
     16 C16         2.3560    2.3450    2.2180 ca        1 GVN     -0.124000
     17 C17         0.3800    4.5770    4.4870 cc        1 GVN     -0.260300
     18 C18         1.0490    5.8130    4.6500 cd        1 GVN     -0.098300
     19 N19         0.2190    6.6040    5.4330 na        1 GVN     -0.001600
     20 N20        -0.9100    5.9790    5.7790 nd        1 GVN     -0.490800
     21 C21        -0.8600    4.7420    5.2290 cc        1 GVN      0.321200
     22 H1N1       -0.4590   -0.8140    0.7030 hn        1 GVN      0.462133
     23 H1N2       -0.2830    0.8330    0.8890 hn        1 GVN      0.462133
     24 H2C1        1.6760   -1.0710   -0.3280 hx        1 GVN      0.112200
     25 H2C2        1.8150    0.7610   -0.4060 hx        1 GVN      0.112200
     26 H3          1.6880   -0.9960    2.1690 hc        1 GVN      0.073700
     27 H5          3.6400   -1.6370    3.1630 ha        1 GVN      0.134500
     28 H10         3.8380    1.0700   -0.2250 ha        1 GVN      0.134500
     29 H6          6.0900   -1.9890    3.0190 ha        1 GVN      0.164000
     30 H9          6.2740    0.7050   -0.3770 ha        1 GVN      0.164000
     31 H12         0.0380    0.1130    3.3580 ha        1 GVN      0.135000
     32 H16         3.2520    2.4050    1.5780 ha        1 GVN      0.135000
     33 H13        -0.7270    2.1240    4.5790 ha        1 GVN      0.150500
     34 H15         2.4950    4.4160    2.8110 ha        1 GVN      0.150500
     35 H18         2.0170    6.1580    4.2850 h4        1 GVN      0.186000
     36 H21        -1.6650    4.0190    5.3580 h4        1 GVN      0.047100
     37 H19         0.3940    7.5320    5.7480 hn        1 GVN      0.337700
     38 H131       -0.4480    0.1700   -0.6460 hn        1 GVN      0.462133
@<TRIPOS>BOND
     1    1    2 1   
     2    1   22 1   
     3    1   23 1   
     4    1   38 1   
     5    2    3 1   
     6    2   24 1   
     7    2   25 1   
     8    3    4 1   
     9    3   11 1   
    10    3   26 1   
    11    4    5 ar  
    12    4   10 ar  
    13    5    6 ar  
    14    5   27 1   
    15    6    7 ar  
    16    6   29 1   
    17    7    8 1   
    18    7    9 ar  
    19    9   10 ar  
    20    9   30 1   
    21   10   28 1   
    22   11   12 ar  
    23   11   16 ar  
    24   12   13 ar  
    25   12   31 1   
    26   13   14 ar  
    27   13   33 1   
    28   14   15 ar  
    29   14   17 1   
    30   15   16 ar  
    31   15   34 1   
    32   16   32 1   
    33   17   18 2   
    34   17   21 1   
    35   18   19 1   
    36   18   35 1   
    37   19   20 1   
    38   19   37 1   
    39   20   21 2   
    40   21   36 1   
@<TRIPOS>SUBSTRUCTURE
     1 GVN         1 TEMP              0 ****  ****    0 ROOT
