@<TRIPOS>MOLECULE
GVN
   38    40     1     0     0
SMALL
bcc


@<TRIPOS>ATOM
      1 N1         -0.0490    0.0350    0.2780 n4        1 GVN     -0.840600
      2 C2          1.4360   -0.1010    0.1980 c3        1 GVN      0.100800
      3 C3          2.0820   -0.0960    1.5980 c3        1 GVN      0.036900
      4 C4          3.5620   -0.2720    1.4680 ca        1 GVN     -0.114300
      5 C5          4.2100   -1.1250    2.3720 ca        1 GVN     -0.111500
      6 C6          5.5870   -1.3240    2.2980 ca        1 GVN     -0.114000
      7 C7          6.3300   -0.6700    1.3100 ca        1 GVN      0.035400
      8 CL8         8.0020   -0.9120    1.2090 cl        1 GVN     -0.047400
      9 C9          5.6940    0.1870    0.4040 ca        1 GVN     -0.114000
     10 C10         4.3170    0.3840    0.4890 ca        1 GVN     -0.111500
     11 C11         1.6670    1.1360    2.3390 ca        1 GVN     -0.176300
     12 C12         0.5540    1.0710    3.1930 ca        1 GVN     -0.124000
     13 C13         0.1340    2.1920    3.8960 ca        1 GVN     -0.129000
     14 C14         0.8170    3.4170    3.7680 ca        1 GVN      0.069000
     15 C15         1.9380    3.4720    2.9220 ca        1 GVN     -0.129000
     16 C16         2.3570    2.3450    2.2200 ca        1 GVN     -0.124000
     17 C17         0.3810    4.5730    4.4920 cc        1 GVN     -0.260300
     18 C18         1.0500    5.8080    4.6590 cd        1 GVN     -0.098300
     19 N19         0.2200    6.5980    5.4440 na        1 GVN     -0.001600
     20 N20        -0.9100    5.9730    5.7850 nd        1 GVN     -0.490800
     21 C21        -0.8600    4.7380    5.2320 cc        1 GVN      0.321200
     22 H1N1       -0.2810    0.8390    0.8830 hn        1 GVN      0.462133
     23 H1N2       -0.4590   -0.8070    0.6920 hn        1 GVN      0.462133
     24 H2C1        1.6780   -1.0640   -0.3350 hx        1 GVN      0.112200
     25 H2C2        1.8190    0.7690   -0.4090 hx        1 GVN      0.112200
     26 H3          1.6850   -0.9950    2.1620 hc        1 GVN      0.073700
     27 H5          3.6350   -1.6400    3.1580 ha        1 GVN      0.134500
     28 H10         3.8420    1.0740   -0.2240 ha        1 GVN      0.134500
     29 H6          6.0850   -1.9950    3.0170 ha        1 GVN      0.164000
     30 H9          6.2770    0.7070   -0.3720 ha        1 GVN      0.164000
     31 H12         0.0350    0.1130    3.3510 ha        1 GVN      0.135000
     32 H16         3.2540    2.4060    1.5820 ha        1 GVN      0.135000
     33 H13        -0.7300    2.1210    4.5760 ha        1 GVN      0.150500
     34 H15         2.4980    4.4140    2.8190 ha        1 GVN      0.150500
     35 H18         2.0190    6.1530    4.2960 h4        1 GVN      0.186000
     36 H21        -1.6670    4.0150    5.3590 h4        1 GVN      0.047100
     37 H19         0.3950    7.5250    5.7610 hn        1 GVN      0.337700
     38 H131       -0.4440    0.1810   -0.6540 hn        1 GVN      0.462133
@<TRIPOS>BOND
     1    1    2 1   
     2    1   22 1   
     3    1   23 1   
     4    1   38 1   
     5    2    3 1   
     6    2   24 1   
     7    2   25 1   
     8    3    4 1   
     9    3   11 1   
    10    3   26 1   
    11    4    5 ar  
    12    4   10 ar  
    13    5    6 ar  
    14    5   27 1   
    15    6    7 ar  
    16    6   29 1   
    17    7    8 1   
    18    7    9 ar  
    19    9   10 ar  
    20    9   30 1   
    21   10   28 1   
    22   11   12 ar  
    23   11   16 ar  
    24   12   13 ar  
    25   12   31 1   
    26   13   14 ar  
    27   13   33 1   
    28   14   15 ar  
    29   14   17 1   
    30   15   16 ar  
    31   15   34 1   
    32   16   32 1   
    33   17   18 2   
    34   17   21 1   
    35   18   19 1   
    36   18   35 1   
    37   19   20 1   
    38   19   37 1   
    39   20   21 2   
    40   21   36 1   
@<TRIPOS>SUBSTRUCTURE
     1 GVN         1 TEMP              0 ****  ****    0 ROOT
