@<TRIPOS>MOLECULE
GVN
   38    40     1     0     0
SMALL
bcc


@<TRIPOS>ATOM
      1 N1         -0.0510    0.0290    0.2860 n4        1 GVN     -0.840600
      2 C2          1.4330   -0.1060    0.2020 c3        1 GVN      0.100800
      3 C3          2.0830   -0.0970    1.6000 c3        1 GVN      0.036900
      4 C4          3.5630   -0.2700    1.4680 ca        1 GVN     -0.114300
      5 C5          4.2150   -1.1210    2.3710 ca        1 GVN     -0.111500
      6 C6          5.5910   -1.3190    2.2930 ca        1 GVN     -0.114000
      7 C7          6.3320   -0.6640    1.3020 ca        1 GVN      0.035400
      8 CL8         8.0030   -0.9030    1.1980 cl        1 GVN     -0.047400
      9 C9          5.6910    0.1900    0.3970 ca        1 GVN     -0.114000
     10 C10         4.3150    0.3860    0.4860 ca        1 GVN     -0.111500
     11 C11         1.6670    1.1350    2.3400 ca        1 GVN     -0.176300
     12 C12         0.5580    1.0690    3.1980 ca        1 GVN     -0.124000
     13 C13         0.1370    2.1910    3.9000 ca        1 GVN     -0.129000
     14 C14         0.8170    3.4170    3.7690 ca        1 GVN      0.069000
     15 C15         1.9350    3.4730    2.9190 ca        1 GVN     -0.129000
     16 C16         2.3550    2.3460    2.2180 ca        1 GVN     -0.124000
     17 C17         0.3800    4.5740    4.4910 cc        1 GVN     -0.260300
     18 C18         1.0470    5.8110    4.6520 cd        1 GVN     -0.098300
     19 N19         0.2180    6.6000    5.4390 na        1 GVN     -0.001600
     20 N20        -0.9090    5.9730    5.7880 nd        1 GVN     -0.490800
     21 C21        -0.8570    4.7360    5.2370 cc        1 GVN      0.321200
     22 H1N1       -0.2830    0.8330    0.8910 hn        1 GVN      0.462133
     23 H1N2       -0.4490    0.1720   -0.6450 hn        1 GVN      0.462133
     24 H2C1        1.6750   -1.0690   -0.3300 hx        1 GVN      0.112200
     25 H2C2        1.8130    0.7640   -0.4070 hx        1 GVN      0.112200
     26 H3          1.6900   -0.9960    2.1670 hc        1 GVN      0.073700
     27 H5          3.6430   -1.6360    3.1590 ha        1 GVN      0.134500
     28 H10         3.8370    1.0730   -0.2280 ha        1 GVN      0.134500
     29 H6          6.0930   -1.9870    3.0120 ha        1 GVN      0.164000
     30 H9          6.2720    0.7100   -0.3810 ha        1 GVN      0.164000
     31 H12         0.0410    0.1110    3.3600 ha        1 GVN      0.135000
     32 H16         3.2500    2.4070    1.5770 ha        1 GVN      0.135000
     33 H13        -0.7240    2.1190    4.5830 ha        1 GVN      0.150500
     34 H15         2.4930    4.4160    2.8120 ha        1 GVN      0.150500
     35 H18         2.0120    6.1590    4.2840 h4        1 GVN      0.186000
     36 H21        -1.6610    4.0110    5.3700 h4        1 GVN      0.047100
     37 H19         0.3920    7.5290    5.7530 hn        1 GVN      0.337700
     38 H131       -0.4590   -0.8140    0.7020 hn        1 GVN      0.462133
@<TRIPOS>BOND
     1    1    2 1   
     2    1   22 1   
     3    1   23 1   
     4    1   38 1   
     5    2    3 1   
     6    2   24 1   
     7    2   25 1   
     8    3    4 1   
     9    3   11 1   
    10    3   26 1   
    11    4    5 ar  
    12    4   10 ar  
    13    5    6 ar  
    14    5   27 1   
    15    6    7 ar  
    16    6   29 1   
    17    7    8 1   
    18    7    9 ar  
    19    9   10 ar  
    20    9   30 1   
    21   10   28 1   
    22   11   12 ar  
    23   11   16 ar  
    24   12   13 ar  
    25   12   31 1   
    26   13   14 ar  
    27   13   33 1   
    28   14   15 ar  
    29   14   17 1   
    30   15   16 ar  
    31   15   34 1   
    32   16   32 1   
    33   17   18 2   
    34   17   21 1   
    35   18   19 1   
    36   18   35 1   
    37   19   20 1   
    38   19   37 1   
    39   20   21 2   
    40   21   36 1   
@<TRIPOS>SUBSTRUCTURE
     1 GVN         1 TEMP              0 ****  ****    0 ROOT
