@<TRIPOS>MOLECULE
GVN
   37    39     1     0     0
SMALL
bcc


@<TRIPOS>ATOM
      1 N1          3.3610    0.6660    4.5520 n3        1 GVN     -0.917800
      2 C2          2.0240    0.1680    4.7690 c3        1 GVN      0.166800
      3 C3          1.8080   -1.2420    4.1820 c3        1 GVN      0.017900
      4 C4          0.5670   -1.8750    4.7310 ca        1 GVN     -0.067300
      5 C5          0.5560   -3.2610    4.9460 ca        1 GVN     -0.118500
      6 C6         -0.5710   -3.8950    5.4600 ca        1 GVN     -0.123500
      7 C7         -1.7060   -3.1390    5.7690 ca        1 GVN      0.015400
      8 CL8        -3.0870   -3.9050    6.4010 cl        1 GVN     -0.096400
      9 C9         -1.7110   -1.7570    5.5630 ca        1 GVN     -0.123500
     10 C10        -0.5770   -1.1340    5.0440 ca        1 GVN     -0.118500
     11 C11         1.8020   -1.1760    2.6850 ca        1 GVN     -0.089300
     12 C12         2.9810   -1.4470    1.9790 ca        1 GVN     -0.121500
     13 C13         3.0090   -1.3750    0.5900 ca        1 GVN     -0.127000
     14 C14         1.8550   -1.0270   -0.1300 ca        1 GVN      0.013000
     15 C15         0.6750   -0.7540    0.5810 ca        1 GVN     -0.127000
     16 C16         0.6510   -0.8270    1.9700 ca        1 GVN     -0.121500
     17 C17         1.8810   -0.9540   -1.5650 cc        1 GVN     -0.209300
     18 C18         0.7900   -0.8970   -2.4570 cd        1 GVN     -0.130300
     19 N19         1.3340   -0.8380   -3.7380 na        1 GVN     -0.019600
     20 N20         2.6680   -0.8510   -3.7280 nd        1 GVN     -0.514800
     21 C21         3.0490   -0.9220   -2.4290 cc        1 GVN      0.309200
     22 H1N1        3.4150    1.6330    4.8020 hn        1 GVN      0.352800
     23 H1N2        3.6330    0.5550    3.5940 hn        1 GVN      0.352800
     24 H2C1        1.2340    0.8520    4.3360 h1        1 GVN      0.031200
     25 H2C2        1.8570    0.1190    5.8830 h1        1 GVN      0.031200
     26 H3          2.6830   -1.8850    4.5030 hc        1 GVN      0.077700
     27 H5          1.4490   -3.8590    4.7040 ha        1 GVN      0.139000
     28 H10        -0.5940   -0.0440    4.8860 ha        1 GVN      0.139000
     29 H6         -0.5670   -4.9830    5.6230 ha        1 GVN      0.147000
     30 H9         -2.6030   -1.1610    5.8070 ha        1 GVN      0.147000
     31 H12         3.8960   -1.7230    2.5280 ha        1 GVN      0.137500
     32 H16        -0.2820   -0.6150    2.5140 ha        1 GVN      0.137500
     33 H13         3.9410   -1.5970    0.0510 ha        1 GVN      0.131000
     34 H15        -0.2390   -0.4780    0.0350 ha        1 GVN      0.131000
     35 H18        -0.2840   -0.9010   -2.2760 h4        1 GVN      0.179000
     36 H21         4.0970   -0.9430   -2.1300 h4        1 GVN      0.045100
     37 H19         0.8390   -0.7940   -4.5980 hn        1 GVN      0.322700
@<TRIPOS>BOND
     1    1    2 1   
     2    1   22 1   
     3    1   23 1   
     4    2    3 1   
     5    2   24 1   
     6    2   25 1   
     7    3    4 1   
     8    3   11 1   
     9    3   26 1   
    10    4    5 ar  
    11    4   10 ar  
    12    5    6 ar  
    13    5   27 1   
    14    6    7 ar  
    15    6   29 1   
    16    7    8 1   
    17    7    9 ar  
    18    9   10 ar  
    19    9   30 1   
    20   10   28 1   
    21   11   12 ar  
    22   11   16 ar  
    23   12   13 ar  
    24   12   31 1   
    25   13   14 ar  
    26   13   33 1   
    27   14   15 ar  
    28   14   17 1   
    29   15   16 ar  
    30   15   34 1   
    31   16   32 1   
    32   17   18 2   
    33   17   21 1   
    34   18   19 1   
    35   18   35 1   
    36   19   20 1   
    37   19   37 1   
    38   20   21 2   
    39   21   36 1   
@<TRIPOS>SUBSTRUCTURE
     1 GVN         1 TEMP              0 ****  ****    0 ROOT
