@<TRIPOS>MOLECULE
GVO
   38    40     1     0     0
SMALL
bcc


@<TRIPOS>ATOM
      1 N1         -0.0180    0.0620    0.3700 n4        1 GVO     -0.839600
      2 C2          1.4480    0.3390    0.3510 c3        1 GVO      0.098800
      3 C3          2.0920    0.1590    1.7410 c3        1 GVO      0.036900
      4 C4          3.5720    0.3120    1.5710 ca        1 GVO     -0.128300
      5 C5          4.1120    1.6070    1.5430 ca        1 GVO     -0.106000
      6 C6          5.4810    1.7990    1.3940 ca        1 GVO     -0.118000
      7 C7          6.3280    0.6890    1.2760 ca        1 GVO      0.038400
      8 CL8         7.9950    0.9170    1.0940 cl        1 GVO     -0.048400
      9 C9          5.8000   -0.6060    1.3120 ca        1 GVO     -0.118000
     10 C10         4.4260   -0.7890    1.4590 ca        1 GVO     -0.106000
     11 C11         1.6600   -1.1220    2.3780 ca        1 GVO     -0.172300
     12 C12         1.3470   -1.1310    3.7430 ca        1 GVO     -0.128500
     13 C13         0.9370   -2.3040    4.3680 ca        1 GVO     -0.127500
     14 C14         0.8290   -3.5050    3.6440 ca        1 GVO      0.067000
     15 C15         1.1560   -3.4930    2.2760 ca        1 GVO     -0.127500
     16 C16         1.5690   -2.3200    1.6550 ca        1 GVO     -0.128500
     17 C17         0.4010   -4.7100    4.2880 cc        1 GVO     -0.260300
     18 C18        -0.2290   -4.8370    5.5930 cc        1 GVO      0.324200
     19 N19        -0.4830   -6.1400    5.8610 nd        1 GVO     -0.489800
     20 N20        -0.0510   -6.8440    4.8110 na        1 GVO     -0.001600
     21 C21         0.4970   -6.0410    3.8190 cd        1 GVO     -0.103300
     22 H1N1       -0.4070    0.1320   -0.5730 hn        1 GVO      0.461800
     23 H1N2       -0.1750   -0.8880    0.7400 hn        1 GVO      0.461800
     24 H2C1        1.6050    1.3990   -0.0020 hx        1 GVO      0.112700
     25 H2C2        1.9240   -0.3670   -0.3890 hx        1 GVO      0.112700
     26 H3          1.7360    1.0110    2.3970 hc        1 GVO      0.074700
     27 H5          3.4540    2.4830    1.6500 ha        1 GVO      0.140000
     28 H10         4.0210   -1.8120    1.5050 ha        1 GVO      0.140000
     29 H6          5.8970    2.8190    1.3760 ha        1 GVO      0.164000
     30 H9          6.4650   -1.4800    1.2300 ha        1 GVO      0.164000
     31 H12         1.4430   -0.2080    4.3370 ha        1 GVO      0.135000
     32 H16         1.8650   -2.3520    0.5950 ha        1 GVO      0.135000
     33 H13         0.7080   -2.2970    5.4460 ha        1 GVO      0.152000
     34 H15         1.0950   -4.4260    1.6950 ha        1 GVO      0.152000
     35 H18        -0.4870   -4.0400    6.2920 h4        1 GVO      0.051100
     36 H21         0.9090   -6.4480    2.8960 h4        1 GVO      0.183000
     37 H20        -0.1280   -7.8360    4.8080 hn        1 GVO      0.337700
     38 H131       -0.4950    0.7290    0.9830 hn        1 GVO      0.461800
@<TRIPOS>BOND
     1    1    2 1   
     2    1   22 1   
     3    1   23 1   
     4    1   38 1   
     5    2    3 1   
     6    2   24 1   
     7    2   25 1   
     8    3    4 1   
     9    3   11 1   
    10    3   26 1   
    11    4    5 ar  
    12    4   10 ar  
    13    5    6 ar  
    14    5   27 1   
    15    6    7 ar  
    16    6   29 1   
    17    7    8 1   
    18    7    9 ar  
    19    9   10 ar  
    20    9   30 1   
    21   10   28 1   
    22   11   12 ar  
    23   11   16 ar  
    24   12   13 ar  
    25   12   31 1   
    26   13   14 ar  
    27   13   33 1   
    28   14   15 ar  
    29   14   17 1   
    30   15   16 ar  
    31   15   34 1   
    32   16   32 1   
    33   17   18 1   
    34   17   21 2   
    35   18   19 2   
    36   18   35 1   
    37   19   20 1   
    38   20   21 1   
    39   20   37 1   
    40   21   36 1   
@<TRIPOS>SUBSTRUCTURE
     1 GVO         1 TEMP              0 ****  ****    0 ROOT
