@<TRIPOS>MOLECULE
GVO
   38    40     1     0     0
SMALL
bcc


@<TRIPOS>ATOM
      1 N1         -0.0100    0.0390    0.3410 n4        1 GVO     -0.839600
      2 C2          1.4550    0.3190    0.3290 c3        1 GVO      0.098800
      3 C3          2.0910    0.1540    1.7240 c3        1 GVO      0.036900
      4 C4          3.5720    0.3080    1.5630 ca        1 GVO     -0.128300
      5 C5          4.1090    1.6040    1.5310 ca        1 GVO     -0.106000
      6 C6          5.4790    1.7980    1.3890 ca        1 GVO     -0.118000
      7 C7          6.3290    0.6890    1.2800 ca        1 GVO      0.038400
      8 CL8         7.9960    0.9190    1.1070 cl        1 GVO     -0.048400
      9 C9          5.8020   -0.6060    1.3190 ca        1 GVO     -0.118000
     10 C10         4.4280   -0.7910    1.4600 ca        1 GVO     -0.106000
     11 C11         1.6590   -1.1230    2.3700 ca        1 GVO     -0.172300
     12 C12         1.3380   -1.1210    3.7340 ca        1 GVO     -0.129000
     13 C13         0.9280   -2.2880    4.3680 ca        1 GVO     -0.127500
     14 C14         0.8260   -3.4960    3.6550 ca        1 GVO      0.067000
     15 C15         1.1600   -3.4960    2.2880 ca        1 GVO     -0.127500
     16 C16         1.5730   -2.3270    1.6580 ca        1 GVO     -0.129000
     17 C17         0.3970   -4.6960    4.3070 cc        1 GVO     -0.260300
     18 C18        -0.2400   -4.8120    5.6100 cc        1 GVO      0.324200
     19 N19        -0.4930   -6.1130    5.8880 nd        1 GVO     -0.489800
     20 N20        -0.0540   -6.8260    4.8470 na        1 GVO     -0.001600
     21 C21         0.4980   -6.0310    3.8510 cd        1 GVO     -0.103300
     22 H1N1       -0.1680   -0.9080    0.7190 hn        1 GVO      0.461800
     23 H1N2       -0.4920    0.7110    0.9450 hn        1 GVO      0.461800
     24 H2C1        1.6120    1.3750   -0.0330 hx        1 GVO      0.112700
     25 H2C2        1.9380   -0.3930   -0.4010 hx        1 GVO      0.112700
     26 H3          1.7290    1.0100    2.3710 hc        1 GVO      0.074700
     27 H5          3.4500    2.4790    1.6310 ha        1 GVO      0.140000
     28 H10         4.0250   -1.8160    1.5070 ha        1 GVO      0.140000
     29 H6          5.8940    2.8190    1.3700 ha        1 GVO      0.164000
     30 H9          6.4690   -1.4800    1.2440 ha        1 GVO      0.164000
     31 H12         1.4290   -0.1910    4.3200 ha        1 GVO      0.135000
     32 H16         1.8750   -2.3690    0.6000 ha        1 GVO      0.135000
     33 H13         0.6920   -2.2710    5.4440 ha        1 GVO      0.152000
     34 H15         1.1050   -4.4340    1.7150 ha        1 GVO      0.152000
     35 H18        -0.5030   -4.0100    6.3010 h4        1 GVO      0.051100
     36 H21         0.9160   -6.4450    2.9330 h4        1 GVO      0.183000
     37 H20        -0.1290   -7.8190    4.8520 hn        1 GVO      0.337700
     38 H131       -0.3930    0.0990   -0.6050 hn        1 GVO      0.461800
@<TRIPOS>BOND
     1    1    2 1   
     2    1   22 1   
     3    1   23 1   
     4    1   38 1   
     5    2    3 1   
     6    2   24 1   
     7    2   25 1   
     8    3    4 1   
     9    3   11 1   
    10    3   26 1   
    11    4    5 ar  
    12    4   10 ar  
    13    5    6 ar  
    14    5   27 1   
    15    6    7 ar  
    16    6   29 1   
    17    7    8 1   
    18    7    9 ar  
    19    9   10 ar  
    20    9   30 1   
    21   10   28 1   
    22   11   12 ar  
    23   11   16 ar  
    24   12   13 ar  
    25   12   31 1   
    26   13   14 ar  
    27   13   33 1   
    28   14   15 ar  
    29   14   17 1   
    30   15   16 ar  
    31   15   34 1   
    32   16   32 1   
    33   17   18 1   
    34   17   21 2   
    35   18   19 2   
    36   18   35 1   
    37   19   20 1   
    38   20   21 1   
    39   20   37 1   
    40   21   36 1   
@<TRIPOS>SUBSTRUCTURE
     1 GVO         1 TEMP              0 ****  ****    0 ROOT
