@<TRIPOS>MOLECULE
GVO
   38    40     1     0     0
SMALL
bcc


@<TRIPOS>ATOM
      1 N1         -0.0250    0.0760    0.3870 nz        1 GVO     -0.839600
      2 C2          1.4420    0.3470    0.3590 c3        1 GVO      0.098800
      3 C3          2.0940    0.1610    1.7450 c3        1 GVO      0.036900
      4 C4          3.5740    0.3090    1.5670 ca        1 GVO     -0.128300
      5 C5          4.1200    1.6000    1.5490 ca        1 GVO     -0.106000
      6 C6          5.4890    1.7880    1.3920 ca        1 GVO     -0.118000
      7 C7          6.3290    0.6750    1.2540 ca        1 GVO      0.038400
      8 Cl8         7.9950    0.8970    1.0620 cl        1 GVO     -0.048400
      9 C9          5.7940   -0.6170    1.2790 ca        1 GVO     -0.118000
     10 C10         4.4210   -0.7950    1.4350 ca        1 GVO     -0.106000
     11 C11         1.6620   -1.1200    2.3810 ca        1 GVO     -0.172300
     12 C12         1.3600   -1.1330    3.7490 ca        1 GVO     -0.129000
     13 C13         0.9500   -2.3060    4.3740 ca        1 GVO     -0.127500
     14 C14         0.8310   -3.5040    3.6480 ca        1 GVO      0.067000
     15 C15         1.1470   -3.4890    2.2770 ca        1 GVO     -0.127500
     16 C16         1.5590   -2.3160    1.6560 ca        1 GVO     -0.129000
     17 C17         0.4030   -4.7090    4.2920 cc        1 GVO     -0.260300
     18 C18        -0.2170   -4.8360    5.6010 cc        1 GVO      0.324200
     19 N19        -0.4740   -6.1390    5.8670 nd        1 GVO     -0.489800
     20 N20        -0.0540   -6.8420    4.8120 na        1 GVO     -0.001600
     21 C21         0.4890   -6.0390    3.8180 cd        1 GVO     -0.103300
     22 H1N1       -0.1840   -0.8750    0.7560 hn        1 GVO      0.461800
     23 H1N2       -0.4200    0.1490   -0.5530 hn        1 GVO      0.461800
     24 H2C1        1.9100   -0.3590   -0.3850 hx        1 GVO      0.112700
     25 H2C2        1.6000    1.4070    0.0080 hx        1 GVO      0.112700
     26 H3          1.7450    1.0120    2.4060 hc        1 GVO      0.074700
     27 H5          3.4670    2.4790    1.6710 ha        1 GVO      0.140000
     28 H10         4.0110   -1.8170    1.4710 ha        1 GVO      0.140000
     29 H6          5.9100    2.8060    1.3840 ha        1 GVO      0.164000
     30 H9          6.4540   -1.4940    1.1820 ha        1 GVO      0.164000
     31 H12         1.4640   -0.2110    4.3450 ha        1 GVO      0.135000
     32 H16         1.8470   -2.3470    0.5930 ha        1 GVO      0.135000
     33 H13         0.7300   -2.3000    5.4540 ha        1 GVO      0.152000
     34 H15         1.0780   -4.4200    1.6940 ha        1 GVO      0.152000
     35 H18        -0.4650   -4.0410    6.3050 h4        1 GVO      0.051100
     36 H21         0.8920   -6.4440    2.8900 h4        1 GVO      0.183000
     37 H20        -0.1350   -7.8340    4.8060 hn        1 GVO      0.337700
     38 H131       -0.4950    0.7440    1.0050 hn        1 GVO      0.461800
@<TRIPOS>BOND
     1    1    2 1   
     2    1   22 1   
     3    1   23 1   
     4    1   38 1   
     5    2    3 1   
     6    2   24 1   
     7    2   25 1   
     8    3    4 1   
     9    3   11 1   
    10    3   26 1   
    11    4    5 ar  
    12    4   10 ar  
    13    5    6 ar  
    14    5   27 1   
    15    6    7 ar  
    16    6   29 1   
    17    7    8 1   
    18    7    9 ar  
    19    9   10 ar  
    20    9   30 1   
    21   10   28 1   
    22   11   12 ar  
    23   11   16 ar  
    24   12   13 ar  
    25   12   31 1   
    26   13   14 ar  
    27   13   33 1   
    28   14   15 ar  
    29   14   17 1   
    30   15   16 ar  
    31   15   34 1   
    32   16   32 1   
    33   17   18 1   
    34   17   21 2   
    35   18   19 2   
    36   18   35 1   
    37   19   20 1   
    38   20   21 1   
    39   20   37 1   
    40   21   36 1   
@<TRIPOS>SUBSTRUCTURE
     1 GVO         1 TEMP              0 ****  ****    0 ROOT
