@<TRIPOS>MOLECULE
GVO
   37    39     1     0     0
SMALL
bcc


@<TRIPOS>ATOM
      1 N1          0.9150   -3.4090    4.5080 n3        1 GVO     -0.913800
      2 C2          0.7040   -1.9960    4.7020 c3        1 GVO      0.165800
      3 C3          1.8630   -1.1280    4.1680 c3        1 GVO      0.025900
      4 C4          1.8150    0.2480    4.7610 ca        1 GVO     -0.071300
      5 C5          3.0180    0.9120    5.0340 ca        1 GVO     -0.118000
      6 C6          3.0180    2.1910    5.5870 ca        1 GVO     -0.122500
      7 C7          1.8020    2.8170    5.8750 ca        1 GVO      0.015400
      8 CL8         1.7930    4.3760    6.5530 cl        1 GVO     -0.095400
      9 C9          0.5930    2.1680    5.6070 ca        1 GVO     -0.122500
     10 C10         0.6050    0.8900    5.0520 ca        1 GVO     -0.118000
     11 C11         1.8480   -1.0840    2.6710 ca        1 GVO     -0.066300
     12 C12         2.8260   -1.7710    1.9430 ca        1 GVO     -0.114000
     13 C13         2.8200   -1.7480    0.5510 ca        1 GVO     -0.125500
     14 C14         1.8340   -1.0340   -0.1480 ca        1 GVO      0.011000
     15 C15         0.8530   -0.3470    0.5860 ca        1 GVO     -0.125500
     16 C16         0.8610   -0.3740    1.9770 ca        1 GVO     -0.114000
     17 C17         1.8280   -1.0080   -1.5850 cc        1 GVO     -0.204300
     18 C18         2.8860   -1.4400   -2.4830 cc        1 GVO      0.309200
     19 N19         2.5090   -1.2580   -3.7730 nd        1 GVO     -0.516800
     20 N20         1.2790   -0.7400   -3.7450 na        1 GVO     -0.021600
     21 C21         0.8050   -0.5610   -2.4460 cd        1 GVO     -0.133300
     22 H1N1        0.1490   -3.9300    4.8840 hn        1 GVO      0.350800
     23 H1N2        1.7660   -3.7130    4.9370 hn        1 GVO      0.350800
     24 H2C1        0.5510   -1.7280    5.7900 h1        1 GVO      0.031200
     25 H2C2       -0.2390   -1.7180    4.1490 h1        1 GVO      0.031200
     26 H3          2.8370   -1.6000    4.4980 hc        1 GVO      0.059700
     27 H5          3.9780    0.4230    4.8060 ha        1 GVO      0.138000
     28 H10        -0.3520    0.3880    4.8440 ha        1 GVO      0.138000
     29 H6          3.9700    2.7020    5.7940 ha        1 GVO      0.147000
     30 H9         -0.3650    2.6620    5.8320 ha        1 GVO      0.147000
     31 H12         3.6020   -2.3440    2.4710 ha        1 GVO      0.130000
     32 H16         0.0890    0.1730    2.5390 ha        1 GVO      0.130000
     33 H13         3.5920   -2.2990   -0.0050 ha        1 GVO      0.129000
     34 H15         0.0740    0.2210    0.0570 ha        1 GVO      0.129000
     35 H18         3.8590   -1.8510   -2.2140 h4        1 GVO      0.044100
     36 H21        -0.1820   -0.1520   -2.2350 h4        1 GVO      0.178000
     37 H20         0.8050   -0.5280   -4.5900 hn        1 GVO      0.321700
@<TRIPOS>BOND
     1    1    2 1   
     2    1   22 1   
     3    1   23 1   
     4    2    3 1   
     5    2   24 1   
     6    2   25 1   
     7    3    4 1   
     8    3   11 1   
     9    3   26 1   
    10    4    5 ar  
    11    4   10 ar  
    12    5    6 ar  
    13    5   27 1   
    14    6    7 ar  
    15    6   29 1   
    16    7    8 1   
    17    7    9 ar  
    18    9   10 ar  
    19    9   30 1   
    20   10   28 1   
    21   11   12 ar  
    22   11   16 ar  
    23   12   13 ar  
    24   12   31 1   
    25   13   14 ar  
    26   13   33 1   
    27   14   15 ar  
    28   14   17 1   
    29   15   16 ar  
    30   15   34 1   
    31   16   32 1   
    32   17   18 1   
    33   17   21 2   
    34   18   19 2   
    35   18   35 1   
    36   19   20 1   
    37   20   21 1   
    38   20   37 1   
    39   21   36 1   
@<TRIPOS>SUBSTRUCTURE
     1 GVO         1 TEMP              0 ****  ****    0 ROOT
