@<TRIPOS>MOLECULE
GVO
   37    34     1     0     0
SMALL
bcc


@<TRIPOS>ATOM
      1 N1         -3.4560   -1.4600   -1.6590 n3        1 GVO     -0.351000
      2 C2         -2.3800   -0.5130   -1.5880 c3        1 GVO     -0.071000
      3 C3         -1.8540   -0.4540   -0.1710 c3        1 GVO     -0.035000
      4 C4         -2.2960    0.8470    0.4770 c2        1 GVO     -0.072000
      5 C5         -3.1350    0.8160    1.7200 c2        1 GVO     -0.120000
      6 C6         -3.6260    2.1140    2.3370 c1        1 GVO     -0.127000
      7 C7         -3.2440    3.4350    1.7180 c1        1 GVO     -0.063000
      8 CL8        -3.8430    4.9210    2.4030 cl        1 GVO     -0.018000
      9 C9         -2.4040    3.4660    0.4580 c1        1 GVO     -0.123000
     10 C10        -1.9070    2.1810   -0.1470 c1        1 GVO     -0.120000
     11 C11        -0.3550   -0.5210   -0.1890 c2        1 GVO     -0.072000
     12 C12         0.3920   -1.1230    0.9880 c2        1 GVO     -0.120000
     13 C13         1.9000   -1.2930    0.9250 c1        1 GVO     -0.127000
     14 C14         2.6640   -0.8250   -0.2910 c1        1 GVO      0.014000
     15 C15         1.9220   -0.2180   -1.4640 c1        1 GVO     -0.124000
     16 C16         0.4040   -0.0580   -1.4060 c1        1 GVO     -0.120000
     17 C17         4.1710   -0.9810   -0.3430 c2        1 GVO     -0.143000
     18 C18         4.9530   -0.3400    0.5840 c2        1 GVO     -0.155000
     19 N19         6.0560   -1.1670    0.9350 n1        1 GVO     -0.082000
     20 N20         5.9970   -2.4760    0.1620 n2        1 GVO     -0.164000
     21 C21         4.7490   -2.2700   -0.6480 c2        1 GVO     -0.106000
     22 H1N1       -3.3620   -1.9690   -2.4030 hn        1 GVO      0.147500
     23 H1N2       -4.2570   -1.0110   -1.6950 hn        1 GVO      0.147500
     24 H2C1       -1.6580   -0.7920   -2.1950 h1        1 GVO      0.072000
     25 H2C2       -2.7110    0.3860   -1.8580 h1        1 GVO      0.072000
     26 H3         -2.2070   -1.2070    0.3390 hc        1 GVO      0.117000
     27 H5         -3.3780   -0.0240    2.1140 ha        1 GVO      0.138500
     28 H10        -1.3700    2.2010   -0.9530 ha        1 GVO      0.138500
     29 H6         -4.1660    2.0940    3.1370 ha        1 GVO      0.137500
     30 H9         -2.1570    4.3180    0.0590 ha        1 GVO      0.148000
     31 H12        -0.0990   -1.4260    1.7750 ha        1 GVO      0.138500
     32 H16        -0.0710    0.3300   -2.1550 ha        1 GVO      0.138500
     33 H13         2.3750   -1.6790    1.6740 ha        1 GVO      0.137500
     34 H15         2.4160    0.0840   -2.2530 ha        1 GVO      0.133000
     35 H18         5.0630    0.6310    0.5450 h4        1 GVO      0.181000
     36 H21         4.1700   -3.0280   -0.8550 h4        1 GVO      0.178000
     37 H20         6.7050   -2.9900   -0.0720 hn        1 GVO      0.273000
@<TRIPOS>BOND
     1    1    2 1   
     2    1   22 1   
     3    1   23 1   
     4    2    3 1   
     5    2   24 1   
     6    2   25 1   
     7    3    4 1   
     8    3   11 1   
     9    3   26 1   
    10    4    5 1   
    11    4   10 1   
    12    5    6 1   
    13    5   27 1   
    14    6   29 1   
    15    7    8 1   
    16    7    9 1   
    17    9   30 1   
    18   10   28 1   
    19   11   12 1   
    20   11   16 1   
    21   12   13 1   
    22   12   31 1   
    23   13   33 1   
    24   14   15 1   
    25   14   17 1   
    26   15   34 1   
    27   16   32 1   
    28   17   18 1   
    29   17   21 1   
    30   18   19 1   
    31   18   35 1   
    32   20   21 1   
    33   20   37 1   
    34   21   36 1   
@<TRIPOS>SUBSTRUCTURE
     1 GVO         1 TEMP              0 ****  ****    0 ROOT
