@<TRIPOS>MOLECULE
GVP
   44    47     1     0     0
SMALL
bcc


@<TRIPOS>ATOM
      1 CL1         0.0610   -0.0400    0.0810 cl        1 GVP     -0.097400
      2 C2          1.7600   -0.0150    0.0180 ca        1 GVP      0.014400
      3 C3          2.5040   -0.5800    1.0600 ca        1 GVP     -0.123500
      4 C4          3.8930   -0.5530    1.0010 ca        1 GVP     -0.117500
      5 C5          4.5620    0.0350   -0.0850 ca        1 GVP     -0.067300
      6 C6          3.8030    0.5860   -1.1210 ca        1 GVP     -0.117500
      7 C7          2.4080    0.5650   -1.0730 ca        1 GVP     -0.123500
      8 C8          6.0760    0.0430   -0.0790 c3        1 GVP      0.046600
      9 C9          6.6460    0.7430   -1.3230 c3        1 GVP     -0.070400
     10 C10         8.1640    0.8850   -1.2390 c3        1 GVP      0.160800
     11 N11         8.5940    1.6160   -0.0640 n3        1 GVP     -0.817200
     12 C12         8.0420    1.0990    1.1730 c3        1 GVP      0.160800
     13 C13         6.5310    0.8840    1.1260 c3        1 GVP     -0.070400
     14 C14         6.5340   -1.3960   -0.0250 ca        1 GVP     -0.071300
     15 C15         7.0500   -1.9790    1.1380 ca        1 GVP     -0.122500
     16 C16         7.4500   -3.3130    1.1570 ca        1 GVP     -0.126500
     17 C17         7.3350   -4.1140    0.0120 ca        1 GVP      0.011000
     18 C18         6.7950   -3.5380   -1.1500 ca        1 GVP     -0.126500
     19 C19         6.3970   -2.2060   -1.1630 ca        1 GVP     -0.122500
     20 C20         7.7520   -5.4880    0.0290 cc        1 GVP     -0.207300
     21 C21         7.4710   -6.4980   -0.9150 cd        1 GVP     -0.131300
     22 N22         8.0970   -7.6540   -0.4500 na        1 GVP     -0.020600
     23 N23         8.7450   -7.4560    0.7000 nd        1 GVP     -0.514800
     24 C24         8.5650   -6.1540    1.0330 cc        1 GVP      0.309200
     25 H3          1.9960   -1.0440    1.9190 ha        1 GVP      0.146500
     26 H7          1.8260    1.0060   -1.8970 ha        1 GVP      0.146500
     27 H4          4.4800   -1.0120    1.8130 ha        1 GVP      0.140000
     28 H6          4.2860    1.0450   -1.9970 ha        1 GVP      0.140000
     29 H9C1        6.3930    0.1760   -2.2530 hc        1 GVP      0.053200
     30 H9C2        6.1870    1.7640   -1.4030 hc        1 GVP      0.053200
     31 H131        6.2030    0.4080    2.0850 hc        1 GVP      0.053200
     32 H132        6.0200    1.8820    1.0590 hc        1 GVP      0.053200
     33 H101        8.6180   -0.1490   -1.2900 h1        1 GVP      0.032200
     34 H102        8.5230    1.4610   -2.1390 h1        1 GVP      0.032200
     35 H11         9.5970    1.6190   -0.0120 hn        1 GVP      0.362800
     36 H121        8.5340    0.1270    1.4770 h1        1 GVP      0.032200
     37 H122        8.2680    1.8570    1.9770 h1        1 GVP      0.032200
     38 H15         7.1450   -1.3960    2.0670 ha        1 GVP      0.133000
     39 H19         5.9560   -1.7930   -2.0830 ha        1 GVP      0.133000
     40 H16         7.8560   -3.7450    2.0850 ha        1 GVP      0.130500
     41 H18         6.6840   -4.1480   -2.0590 ha        1 GVP      0.130500
     42 H21         6.8920   -6.4760   -1.8370 h4        1 GVP      0.178000
     43 H24         8.9960   -5.7190    1.9340 h4        1 GVP      0.044100
     44 H22         8.0940   -8.5490   -0.8770 hn        1 GVP      0.322700
@<TRIPOS>BOND
     1    1    2 1   
     2    2    3 ar  
     3    2    7 ar  
     4    3    4 ar  
     5    3   25 1   
     6    4    5 ar  
     7    4   27 1   
     8    5    6 ar  
     9    5    8 1   
    10    6    7 ar  
    11    6   28 1   
    12    7   26 1   
    13    8    9 1   
    14    8   13 1   
    15    8   14 1   
    16    9   10 1   
    17    9   29 1   
    18    9   30 1   
    19   10   11 1   
    20   10   33 1   
    21   10   34 1   
    22   11   12 1   
    23   11   35 1   
    24   12   13 1   
    25   12   36 1   
    26   12   37 1   
    27   13   31 1   
    28   13   32 1   
    29   14   15 ar  
    30   14   19 ar  
    31   15   16 ar  
    32   15   38 1   
    33   16   17 ar  
    34   16   40 1   
    35   17   18 ar  
    36   17   20 1   
    37   18   19 ar  
    38   18   41 1   
    39   19   39 1   
    40   20   21 2   
    41   20   24 1   
    42   21   22 1   
    43   21   42 1   
    44   22   23 1   
    45   22   44 1   
    46   23   24 2   
    47   24   43 1   
@<TRIPOS>SUBSTRUCTURE
     1 GVP         1 TEMP              0 ****  ****    0 ROOT
