@<TRIPOS>MOLECULE
GVP
   44    47     1     0     0
SMALL
bcc


@<TRIPOS>ATOM
      1 CL1        -0.4890    0.1590   -6.5080 cl        1 GVP     -0.097400
      2 C2         -0.4470    0.6990   -4.8960 ca        1 GVP      0.014400
      3 C3          0.7810    0.8410   -4.2410 ca        1 GVP     -0.123500
      4 C4          0.8060    1.2810   -2.9220 ca        1 GVP     -0.117500
      5 C5         -0.3810    1.5820   -2.2360 ca        1 GVP     -0.067300
      6 C6         -1.5990    1.4440   -2.9090 ca        1 GVP     -0.117500
      7 C7         -1.6370    1.0030   -4.2320 ca        1 GVP     -0.123500
      8 C8         -0.2850    2.0430   -0.7960 c3        1 GVP      0.046600
      9 C9         -1.6700    2.3050   -0.1880 c3        1 GVP     -0.070400
     10 C10        -1.5770    2.6200    1.3040 c3        1 GVP      0.160800
     11 N11        -0.9370    1.5620    2.0600 n3        1 GVP     -0.817200
     12 C12         0.3480    1.1630    1.5220 c3        1 GVP      0.160800
     13 C13         0.3250    0.8890    0.0190 c3        1 GVP     -0.070400
     14 C14         0.5480    3.3040   -0.7830 ca        1 GVP     -0.071300
     15 C15         1.8740    3.3280   -0.3350 ca        1 GVP     -0.122500
     16 C16         2.6170    4.5050   -0.3490 ca        1 GVP     -0.126500
     17 C17         2.0590    5.7010   -0.8240 ca        1 GVP      0.011000
     18 C18         0.7370    5.6760   -1.2960 ca        1 GVP     -0.126500
     19 C19        -0.0000    4.4970   -1.2800 ca        1 GVP     -0.122500
     20 C20         2.8220    6.9180   -0.8350 cc        1 GVP     -0.207300
     21 C21         2.5350    8.1240   -1.5060 cd        1 GVP     -0.131300
     22 N22         3.5770    8.9990   -1.2030 na        1 GVP     -0.020600
     23 N23         4.4900    8.4480   -0.4000 nd        1 GVP     -0.514800
     24 C24         4.0760    7.1810   -0.1480 cc        1 GVP      0.309200
     25 H3          1.7210    0.6100   -4.7640 ha        1 GVP      0.146500
     26 H7         -2.6040    0.8970   -4.7460 ha        1 GVP      0.146500
     27 H4          1.7730    1.4090   -2.4100 ha        1 GVP      0.140000
     28 H6         -2.5520    1.6810   -2.4130 ha        1 GVP      0.140000
     29 H9C1       -2.3050    1.3900   -0.3300 hc        1 GVP      0.053200
     30 H9C2       -2.1780    3.1610   -0.7000 hc        1 GVP      0.053200
     31 H131        1.3670    0.6710   -0.3250 hc        1 GVP      0.053200
     32 H132       -0.2890   -0.0300   -0.1770 hc        1 GVP      0.053200
     33 H101       -1.0480    3.6120    1.4220 h1        1 GVP      0.032200
     34 H102       -2.6200    2.7380    1.7140 h1        1 GVP      0.032200
     35 H11        -0.8310    1.8440    3.0170 hn        1 GVP      0.362800
     36 H121        0.6460    0.2130    2.0510 h1        1 GVP      0.032200
     37 H122        1.1480    1.9330    1.7340 h1        1 GVP      0.032200
     38 H15         2.3600    2.4110    0.0320 ha        1 GVP      0.133000
     39 H19        -1.0260    4.5070   -1.6800 ha        1 GVP      0.133000
     40 H16         3.6560    4.4950    0.0110 ha        1 GVP      0.130500
     41 H18         0.2790    6.5980   -1.6850 ha        1 GVP      0.130500
     42 H21         1.7050    8.4040   -2.1520 h4        1 GVP      0.178000
     43 H24         4.6400    6.5020    0.4910 h4        1 GVP      0.044100
     44 H22         3.6850    9.9330   -1.5190 hn        1 GVP      0.322700
@<TRIPOS>BOND
     1    1    2 1   
     2    2    3 ar  
     3    2    7 ar  
     4    3    4 ar  
     5    3   25 1   
     6    4    5 ar  
     7    4   27 1   
     8    5    6 ar  
     9    5    8 1   
    10    6    7 ar  
    11    6   28 1   
    12    7   26 1   
    13    8    9 1   
    14    8   13 1   
    15    8   14 1   
    16    9   10 1   
    17    9   29 1   
    18    9   30 1   
    19   10   11 1   
    20   10   33 1   
    21   10   34 1   
    22   11   12 1   
    23   11   35 1   
    24   12   13 1   
    25   12   36 1   
    26   12   37 1   
    27   13   31 1   
    28   13   32 1   
    29   14   15 ar  
    30   14   19 ar  
    31   15   16 ar  
    32   15   38 1   
    33   16   17 ar  
    34   16   40 1   
    35   17   18 ar  
    36   17   20 1   
    37   18   19 ar  
    38   18   41 1   
    39   19   39 1   
    40   20   21 2   
    41   20   24 1   
    42   21   22 1   
    43   21   42 1   
    44   22   23 1   
    45   22   44 1   
    46   23   24 2   
    47   24   43 1   
@<TRIPOS>SUBSTRUCTURE
     1 GVP         1 TEMP              0 ****  ****    0 ROOT
