@<TRIPOS>MOLECULE
GVP
   44    47     1     0     0
SMALL
bcc


@<TRIPOS>ATOM
      1 Cl1         0.0590   -0.0500    0.0850 cl        1 GVP     -0.097400
      2 C2          1.7580   -0.0220    0.0190 ca        1 GVP      0.014400
      3 C3          2.5040   -0.5810    1.0620 ca        1 GVP     -0.123500
      4 C4          3.8930   -0.5520    1.0010 ca        1 GVP     -0.117500
      5 C5          4.5590    0.0320   -0.0880 ca        1 GVP     -0.067300
      6 C6          3.7970    0.5780   -1.1260 ca        1 GVP     -0.117500
      7 C7          2.4030    0.5550   -1.0760 ca        1 GVP     -0.123500
      8 C8          6.0740    0.0430   -0.0860 c3        1 GVP      0.046600
      9 C9          6.6400    0.7380   -1.3330 c3        1 GVP     -0.070400
     10 C10         8.1590    0.8830   -1.2520 c3        1 GVP      0.160800
     11 N11         8.5890    1.6190   -0.0810 n7        1 GVP     -0.817200
     12 C12         8.0400    1.1070    1.1590 c3        1 GVP      0.160800
     13 C13         6.5290    0.8890    1.1150 c3        1 GVP     -0.070400
     14 C14         6.5330   -1.3960   -0.0260 ca        1 GVP     -0.071300
     15 C15         7.0520   -1.9730    1.1390 ca        1 GVP     -0.122500
     16 C16         7.4550   -3.3060    1.1630 ca        1 GVP     -0.126500
     17 C17         7.3390   -4.1120    0.0210 ca        1 GVP      0.011000
     18 C18         6.7970   -3.5420   -1.1420 ca        1 GVP     -0.126500
     19 C19         6.3970   -2.2110   -1.1600 ca        1 GVP     -0.122500
     20 C20         7.7580   -5.4860    0.0430 cc        1 GVP     -0.207300
     21 C21         7.4790   -6.5000   -0.8960 cd        1 GVP     -0.131300
     22 N22         8.1070   -7.6520   -0.4270 na        1 GVP     -0.020600
     23 N23         8.7550   -7.4500    0.7220 nd        1 GVP     -0.514800
     24 C24         8.5720   -6.1470    1.0500 cc        1 GVP      0.309200
     25 H3          1.9980   -1.0430    1.9230 ha        1 GVP      0.146500
     26 H7          1.8190    0.9910   -1.9000 ha        1 GVP      0.146500
     27 H4          4.4820   -1.0070    1.8140 ha        1 GVP      0.140000
     28 H6          4.2790    1.0340   -2.0040 ha        1 GVP      0.140000
     29 H9C1        6.3870    0.1670   -2.2610 hc        1 GVP      0.053200
     30 H9C2        6.1800    1.7580   -1.4170 hc        1 GVP      0.053200
     31 H131        6.0160    1.8860    1.0450 hc        1 GVP      0.053200
     32 H132        6.2030    0.4170    2.0770 hc        1 GVP      0.053200
     33 H101        8.5150    1.4560   -2.1550 h1        1 GVP      0.032200
     34 H102        8.6140   -0.1510   -1.3000 h1        1 GVP      0.032200
     35 H11         9.5920    1.6240   -0.0310 hn        1 GVP      0.362800
     36 H121        8.5330    0.1370    1.4660 h1        1 GVP      0.032200
     37 H122        8.2660    1.8680    1.9590 h1        1 GVP      0.032200
     38 H15         7.1470   -1.3850    2.0650 ha        1 GVP      0.133000
     39 H19         5.9540   -1.8020   -2.0810 ha        1 GVP      0.133000
     40 H16         7.8610   -3.7330    2.0920 ha        1 GVP      0.130500
     41 H18         6.6860   -4.1560   -2.0480 ha        1 GVP      0.130500
     42 H21         6.9000   -6.4820   -1.8180 h4        1 GVP      0.178000
     43 H24         9.0020   -5.7070    1.9500 h4        1 GVP      0.044100
     44 H22         8.1050   -8.5500   -0.8510 hn        1 GVP      0.322700
@<TRIPOS>BOND
     1    1    2 1   
     2    2    3 ar  
     3    2    7 ar  
     4    3    4 ar  
     5    3   25 1   
     6    4    5 ar  
     7    4   27 1   
     8    5    6 ar  
     9    5    8 1   
    10    6    7 ar  
    11    6   28 1   
    12    7   26 1   
    13    8    9 1   
    14    8   13 1   
    15    8   14 1   
    16    9   10 1   
    17    9   29 1   
    18    9   30 1   
    19   10   11 1   
    20   10   33 1   
    21   10   34 1   
    22   11   12 1   
    23   11   35 1   
    24   12   13 1   
    25   12   36 1   
    26   12   37 1   
    27   13   31 1   
    28   13   32 1   
    29   14   15 ar  
    30   14   19 ar  
    31   15   16 ar  
    32   15   38 1   
    33   16   17 ar  
    34   16   40 1   
    35   17   18 ar  
    36   17   20 1   
    37   18   19 ar  
    38   18   41 1   
    39   19   39 1   
    40   20   21 2   
    41   20   24 1   
    42   21   22 1   
    43   21   42 1   
    44   22   23 1   
    45   22   44 1   
    46   23   24 2   
    47   24   43 1   
@<TRIPOS>SUBSTRUCTURE
     1 GVP         1 TEMP              0 ****  ****    0 ROOT
