@<TRIPOS>MOLECULE
GVP
   44    39     1     0     0
SMALL
bcc


@<TRIPOS>ATOM
      1 CL1        -6.2310   -1.8210    0.4960 cl        1 GVP     -0.018000
      2 C2         -4.4990   -1.7200    0.3250 c2        1 GVP     -0.064000
      3 C3         -3.8500   -2.0280   -1.0080 c1        1 GVP     -0.124000
      4 C4         -2.3520   -1.8870   -1.1710 c1        1 GVP     -0.120000
      5 C5         -1.4990   -1.4680    0.0070 c2        1 GVP     -0.053000
      6 C6         -2.1470   -1.1590    1.3400 c1        1 GVP     -0.120000
      7 C7         -3.6460   -1.3000    1.5030 c1        1 GVP     -0.124000
      8 C8          0.0080   -1.3730   -0.1440 c3        1 GVP      0.032000
      9 C9          0.7500   -1.5660   -1.3970 c3        1 GVP     -0.149500
     10 C10         0.8600   -3.0260   -1.7820 c3        1 GVP     -0.076500
     11 N11         1.3730   -3.8550   -0.6890 n3        1 GVP     -0.296000
     12 C12         0.6350   -3.6650    0.5610 c3        1 GVP     -0.076500
     13 C13         0.5250   -2.2070    0.9510 c3        1 GVP     -0.149500
     14 C14         0.4040    0.0890   -0.0950 c2        1 GVP     -0.070000
     15 C15         1.6190    0.5180    0.6990 c1        1 GVP     -0.122000
     16 C16         1.9940    1.9820    0.7770 c1        1 GVP     -0.131000
     17 C17         1.1660    3.0150    0.0430 c1        1 GVP      0.012000
     18 C18        -0.0490    2.5850   -0.7500 c1        1 GVP     -0.122000
     19 C19        -0.4240    1.1210   -0.8280 c1        1 GVP     -0.119000
     20 C20         1.5830    4.4680    0.0590 c2        1 GVP     -0.142000
     21 C21         1.2570    5.2920    1.1780 c1        1 GVP     -0.108000
     22 N22         2.3610    6.2790    1.4250 n2        1 GVP     -0.165000
     23 N23         3.3280    5.9040    0.3200 n2        1 GVP     -0.082000
     24 C24         2.8080    4.8360   -0.4400 c2        1 GVP     -0.155000
     25 H3         -4.4000   -2.2990   -1.7670 DU        1 GVP      0.140600
     26 H7         -4.0640   -1.1010    2.3630 DU        1 GVP      0.140600
     27 H4         -1.9340   -2.0860   -2.0300 DU        1 GVP      0.140600
     28 H6         -1.5970   -0.8890    2.0990 DU        1 GVP      0.140600
     29 H9C1        0.2920   -1.0840   -2.1130 hc        1 GVP      0.092750
     30 H9C2        1.6510   -1.1980   -1.2920 hc        1 GVP      0.092750
     31 H131       -0.0750   -2.1290    1.7180 hc        1 GVP      0.092750
     32 H132        1.4100   -1.8800    1.2070 hc        1 GVP      0.092750
     33 H101       -0.0250   -3.3520   -2.0370 h1        1 GVP      0.070500
     34 H102        1.4610   -3.1060   -2.5490 h1        1 GVP      0.070500
     35 H11         1.3380   -4.7360   -0.9330 hn        1 GVP      0.158000
     36 H121       -0.2650   -4.0330    0.4560 h1        1 GVP      0.070500
     37 H122        1.0950   -4.1500    1.2760 h1        1 GVP      0.070500
     38 H15         2.1520   -0.1470    1.1710 DU        1 GVP      0.140600
     39 H19        -1.2080    0.8440   -1.3400 ha        1 GVP      0.134000
     40 H16         2.7780    2.2590    1.2890 ha        1 GVP      0.127000
     41 H18        -0.5840    3.2530   -1.2240 ha        1 GVP      0.134000
     42 H21         0.7570    4.9200    1.9300 ha        1 GVP      0.178000
     43 H24         2.9760    4.7930   -1.3990 h4        1 GVP      0.182000
     44 H22         2.2670    7.1050    1.7980 hn        1 GVP      0.273000
@<TRIPOS>BOND
     1    1    2 1   
     2    2    3 1   
     3    2    7 1   
     4    3    4 1   
     5    4    5 1   
     6    5    6 1   
     7    5    8 1   
     8    6    7 1   
     9    8    9 1   
    10    8   13 1   
    11    8   14 1   
    12    9   10 1   
    13    9   29 1   
    14    9   30 1   
    15   10   11 1   
    16   10   33 1   
    17   10   34 1   
    18   11   12 1   
    19   11   35 1   
    20   12   13 1   
    21   12   36 1   
    22   12   37 1   
    23   13   31 1   
    24   13   32 1   
    25   14   15 1   
    26   14   19 1   
    27   15   16 1   
    28   16   40 1   
    29   17   18 1   
    30   17   20 1   
    31   18   41 1   
    32   19   39 1   
    33   20   21 1   
    34   20   24 1   
    35   21   42 1   
    36   22   23 1   
    37   22   44 1   
    38   23   24 1   
    39   24   43 1   
@<TRIPOS>SUBSTRUCTURE
     1 GVP         1 TEMP              0 ****  ****    0 ROOT
