@<TRIPOS>MOLECULE
GVP
   44    47     1     0     0
SMALL
bcc


@<TRIPOS>ATOM
      1 CL1         0.0580   -0.0600    0.1370 cl        1 GVP     -0.097400
      2 C2          1.7560   -0.0300    0.0570 ca        1 GVP      0.014400
      3 C3          2.5120   -0.5880    1.0940 ca        1 GVP     -0.123500
      4 C4          3.9000   -0.5560    1.0210 ca        1 GVP     -0.117500
      5 C5          4.5560    0.0290   -0.0730 ca        1 GVP     -0.067300
      6 C6          3.7850    0.5730   -1.1050 ca        1 GVP     -0.117500
      7 C7          2.3910    0.5480   -1.0430 ca        1 GVP     -0.123500
      8 C8          6.0710    0.0430   -0.0830 c3        1 GVP      0.046600
      9 C9          6.6250    0.7390   -1.3350 c3        1 GVP     -0.070400
     10 C10         8.1440    0.8860   -1.2670 c3        1 GVP      0.160800
     11 N11         8.5840    1.6230   -0.0990 n3        1 GVP     -0.817200
     12 C12         8.0460    1.1090    1.1450 c3        1 GVP      0.160800
     13 C13         6.5340    0.8890    1.1140 c3        1 GVP     -0.070400
     14 C14         6.5330   -1.3950   -0.0270 ca        1 GVP     -0.071300
     15 C15         7.0630   -1.9720    1.1330 ca        1 GVP     -0.122500
     16 C16         7.4680   -3.3040    1.1530 ca        1 GVP     -0.126500
     17 C17         7.3440   -4.1100    0.0120 ca        1 GVP      0.011000
     18 C18         6.7900   -3.5410   -1.1460 ca        1 GVP     -0.126500
     19 C19         6.3880   -2.2110   -1.1610 ca        1 GVP     -0.122500
     20 C20         7.7650   -5.4830    0.0300 cc        1 GVP     -0.207300
     21 C21         7.4790   -6.4980   -0.9070 cd        1 GVP     -0.131300
     22 N22         8.1130   -7.6490   -0.4440 na        1 GVP     -0.020600
     23 N23         8.7720   -7.4460    0.7000 nd        1 GVP     -0.514800
     24 C24         8.5890   -6.1430    1.0290 cc        1 GVP      0.309200
     25 H3          2.0140   -1.0500    1.9600 ha        1 GVP      0.146500
     26 H7          1.7990    0.9830   -1.8620 ha        1 GVP      0.146500
     27 H4          4.4970   -1.0100    1.8290 ha        1 GVP      0.140000
     28 H6          4.2580    1.0300   -1.9870 ha        1 GVP      0.140000
     29 H9C1        6.3650    0.1670   -2.2610 hc        1 GVP      0.053200
     30 H9C2        6.1630    1.7580   -1.4150 hc        1 GVP      0.053200
     31 H131        6.0200    1.8850    1.0480 hc        1 GVP      0.053200
     32 H132        6.2180    0.4160    2.0780 hc        1 GVP      0.053200
     33 H101        8.6010   -0.1460   -1.3190 h1        1 GVP      0.032200
     34 H102        8.4920    1.4600   -2.1720 h1        1 GVP      0.032200
     35 H11         9.5860    1.6300   -0.0570 hn        1 GVP      0.362800
     36 H121        8.5430    0.1400    1.4480 h1        1 GVP      0.032200
     37 H122        8.2770    1.8710    1.9440 h1        1 GVP      0.032200
     38 H15         7.1650   -1.3850    2.0580 ha        1 GVP      0.133000
     39 H19         5.9360   -1.8030   -2.0780 ha        1 GVP      0.133000
     40 H16         7.8830   -3.7310    2.0780 ha        1 GVP      0.130500
     41 H18         6.6720   -4.1550   -2.0520 ha        1 GVP      0.130500
     42 H21         6.8920   -6.4810   -1.8240 h4        1 GVP      0.178000
     43 H24         9.0270   -5.7030    1.9250 h4        1 GVP      0.044100
     44 H22         8.1100   -8.5460   -0.8670 hn        1 GVP      0.322700
@<TRIPOS>BOND
     1    1    2 1   
     2    2    3 ar  
     3    2    7 ar  
     4    3    4 ar  
     5    3   25 1   
     6    4    5 ar  
     7    4   27 1   
     8    5    6 ar  
     9    5    8 1   
    10    6    7 ar  
    11    6   28 1   
    12    7   26 1   
    13    8    9 1   
    14    8   13 1   
    15    8   14 1   
    16    9   10 1   
    17    9   29 1   
    18    9   30 1   
    19   10   11 1   
    20   10   33 1   
    21   10   34 1   
    22   11   12 1   
    23   11   35 1   
    24   12   13 1   
    25   12   36 1   
    26   12   37 1   
    27   13   31 1   
    28   13   32 1   
    29   14   15 ar  
    30   14   19 ar  
    31   15   16 ar  
    32   15   38 1   
    33   16   17 ar  
    34   16   40 1   
    35   17   18 ar  
    36   17   20 1   
    37   18   19 ar  
    38   18   41 1   
    39   19   39 1   
    40   20   21 2   
    41   20   24 1   
    42   21   22 1   
    43   21   42 1   
    44   22   23 1   
    45   22   44 1   
    46   23   24 2   
    47   24   43 1   
@<TRIPOS>SUBSTRUCTURE
     1 GVP         1 TEMP              0 ****  ****    0 ROOT
