@<TRIPOS>MOLECULE
GVQ
   31    32     1     0     0
SMALL
bcc


@<TRIPOS>ATOM
      1 C1          0.0690    0.2370   -0.0160 ca        1 GVQ     -0.111000
      2 C2          1.4610    0.2550   -0.0010 ca        1 GVQ     -0.113500
      3 C3          2.1450    0.0520    1.2030 ca        1 GVQ      0.036400
      4 C4          1.4310   -0.1750    2.3860 ca        1 GVQ     -0.113500
      5 C5         -2.8140   -3.7160    1.5580 ca        1 GVQ     -0.112500
      6 C6         -3.9330   -3.8930    0.7470 ca        1 GVQ     -0.100000
      7 C7         -4.4620   -2.8060    0.0470 ca        1 GVQ     -0.112500
      8 C8         -3.8770   -1.5480    0.1660 ca        1 GVQ     -0.137500
      9 C9         -2.1490    0.0040    1.0850 c3        1 GVQ      0.031900
     10 C11        -2.2250   -2.4570    1.6790 ca        1 GVQ     -0.137500
     11 C12        -2.7540   -1.3630    0.9870 ca        1 GVQ     -0.151300
     12 C13        -0.6550    0.0130    1.1630 ca        1 GVQ     -0.117300
     13 C14         0.0390   -0.1970    2.3600 ca        1 GVQ     -0.111000
     14 C15        -2.7350    0.7430    2.3040 c3        1 GVQ      0.100800
     15 N1         -4.2240    0.8320    2.2310 nz        1 GVQ     -0.840600
     16 Cl1         3.8360    0.0780    1.2310 cl        1 GVQ     -0.044400
     17 H1         -0.4590    0.3920   -0.9700 ha        1 GVQ      0.134500
     18 H2          2.0200    0.4280   -0.9360 ha        1 GVQ      0.165000
     19 H4          1.9670   -0.3400    3.3340 ha        1 GVQ      0.165000
     20 H14        -0.5000   -0.3910    3.3000 ha        1 GVQ      0.134500
     21 H11        -1.3240   -2.3310    2.3010 ha        1 GVQ      0.137000
     22 H7         -5.3330   -2.9480   -0.6120 ha        1 GVQ      0.156000
     23 H8         -4.2700   -0.7110   -0.4320 ha        1 GVQ      0.137000
     24 H9         -2.4400    0.5840    0.1560 hc        1 GVQ      0.074700
     25 H151       -2.3170    1.7880    2.3580 hx        1 GVQ      0.114700
     26 H152       -2.4790    0.1890    3.2520 hx        1 GVQ      0.114700
     27 H1N1       -4.6030    1.1830    3.1140 hn        1 GVQ      0.461800
     28 H1N2       -4.6090   -0.1050    2.0360 hn        1 GVQ      0.461800
     29 H5         -2.3820   -4.5740    2.0990 ha        1 GVQ      0.156000
     30 H13        -4.5030    1.4590    1.4710 hn        1 GVQ      0.461800
     31 H6         -4.3910   -4.8900    0.6450 ha        1 GVQ      0.159000
@<TRIPOS>BOND
     1    1    2 ar  
     2    1   12 ar  
     3    1   17 1   
     4    2    3 ar  
     5    2   18 1   
     6    3    4 ar  
     7    3   16 1   
     8    4   13 ar  
     9    4   19 1   
    10    5    6 ar  
    11    5   10 ar  
    12    5   29 1   
    13    6    7 ar  
    14    6   31 1   
    15    7    8 ar  
    16    7   22 1   
    17    8   11 ar  
    18    8   23 1   
    19    9   11 1   
    20    9   12 1   
    21    9   14 1   
    22    9   24 1   
    23   10   11 ar  
    24   10   21 1   
    25   12   13 ar  
    26   13   20 1   
    27   14   15 1   
    28   14   25 1   
    29   14   26 1   
    30   15   27 1   
    31   15   28 1   
    32   15   30 1   
@<TRIPOS>SUBSTRUCTURE
     1 GVQ         1 TEMP              0 ****  ****    0 ROOT
