@<TRIPOS>MOLECULE
GVQ
   31    32     1     0     0
SMALL
bcc


@<TRIPOS>ATOM
      1 C1          0.0670    0.2400   -0.0150 ca        1 GVQ     -0.111000
      2 C2          1.4600    0.2580   -0.0020 ca        1 GVQ     -0.113500
      3 C3          2.1450    0.0510    1.2000 ca        1 GVQ      0.036400
      4 C4          1.4330   -0.1800    2.3830 ca        1 GVQ     -0.113500
      5 C5         -2.8150   -3.7160    1.5500 ca        1 GVQ     -0.112500
      6 C6         -3.9350   -3.8900    0.7380 ca        1 GVQ     -0.100000
      7 C7         -4.4640   -2.8000    0.0430 ca        1 GVQ     -0.112500
      8 C8         -3.8790   -1.5430    0.1660 ca        1 GVQ     -0.137500
      9 C9         -2.1490    0.0050    1.0890 c3        1 GVQ      0.031900
     10 C11        -2.2250   -2.4570    1.6740 ca        1 GVQ     -0.137500
     11 C12        -2.7550   -1.3610    0.9870 ca        1 GVQ     -0.151300
     12 C13        -0.6550    0.0130    1.1640 ca        1 GVQ     -0.117300
     13 C14         0.0410   -0.2010    2.3590 ca        1 GVQ     -0.111000
     14 C15        -2.7330    0.7400    2.3110 c3        1 GVQ      0.100800
     15 N1         -4.2220    0.8300    2.2400 n4        1 GVQ     -0.840600
     16 CL1         3.8360    0.0760    1.2250 cl        1 GVQ     -0.044400
     17 H1         -0.4630    0.3990   -0.9680 ha        1 GVQ      0.134500
     18 H2          2.0170    0.4340   -0.9370 ha        1 GVQ      0.165000
     19 H4          1.9700   -0.3480    3.3300 ha        1 GVQ      0.165000
     20 H14        -0.4960   -0.3980    3.2990 ha        1 GVQ      0.134500
     21 H11        -1.3240   -2.3350    2.2960 ha        1 GVQ      0.137000
     22 H7         -5.3360   -2.9400   -0.6160 ha        1 GVQ      0.156000
     23 H8         -4.2710   -0.7040   -0.4290 ha        1 GVQ      0.137000
     24 H9         -2.4420    0.5890    0.1620 hc        1 GVQ      0.074700
     25 H151       -2.3150    1.7850    2.3680 hx        1 GVQ      0.114700
     26 H152       -2.4760    0.1820    3.2570 hx        1 GVQ      0.114700
     27 H1N1       -4.6000    1.1770    3.1250 hn        1 GVQ      0.461800
     28 H1N2       -4.6080   -0.1070    2.0420 hn        1 GVQ      0.461800
     29 H5         -2.3830   -4.5770    2.0870 ha        1 GVQ      0.156000
     30 H13        -4.5030    1.4600    1.4840 hn        1 GVQ      0.461800
     31 H6         -4.3940   -4.8860    0.6340 ha        1 GVQ      0.159000
@<TRIPOS>BOND
     1    1    2 ar  
     2    1   12 ar  
     3    1   17 1   
     4    2    3 ar  
     5    2   18 1   
     6    3    4 ar  
     7    3   16 1   
     8    4   13 ar  
     9    4   19 1   
    10    5    6 ar  
    11    5   10 ar  
    12    5   29 1   
    13    6    7 ar  
    14    6   31 1   
    15    7    8 ar  
    16    7   22 1   
    17    8   11 ar  
    18    8   23 1   
    19    9   11 1   
    20    9   12 1   
    21    9   14 1   
    22    9   24 1   
    23   10   11 ar  
    24   10   21 1   
    25   12   13 ar  
    26   13   20 1   
    27   14   15 1   
    28   14   25 1   
    29   14   26 1   
    30   15   27 1   
    31   15   28 1   
    32   15   30 1   
@<TRIPOS>SUBSTRUCTURE
     1 GVQ         1 TEMP              0 ****  ****    0 ROOT
