@<TRIPOS>MOLECULE
GVQ
   31    32     1     0     0
SMALL
bcc


@<TRIPOS>ATOM
      1 C1          0.0700    0.2490   -0.0060 ca        1 GVQ     -0.111000
      2 C2          1.4620    0.2670    0.0090 ca        1 GVQ     -0.113500
      3 C3          2.1460    0.0510    1.2120 ca        1 GVQ      0.036400
      4 C4          1.4310   -0.1880    2.3920 ca        1 GVQ     -0.113500
      5 C5         -2.8150   -3.7180    1.5290 ca        1 GVQ     -0.112500
      6 C6         -3.9350   -3.8860    0.7150 ca        1 GVQ     -0.100000
      7 C7         -4.4640   -2.7920    0.0270 ca        1 GVQ     -0.112500
      8 C8         -3.8780   -1.5350    0.1590 ca        1 GVQ     -0.137500
      9 C9         -2.1490    0.0060    1.0930 c3        1 GVQ      0.031900
     10 C11        -2.2250   -2.4600    1.6610 ca        1 GVQ     -0.137500
     11 C12        -2.7540   -1.3590    0.9820 ca        1 GVQ     -0.151300
     12 C13        -0.6550    0.0140    1.1710 ca        1 GVQ     -0.117300
     13 C14         0.0390   -0.2080    2.3660 ca        1 GVQ     -0.111000
     14 C15        -2.7350    0.7340    2.3190 c3        1 GVQ      0.100800
     15 N1         -4.2230    0.8240    2.2470 n4        1 GVQ     -0.840600
     16 CL1         3.8360    0.0760    1.2400 cl        1 GVQ     -0.044400
     17 H1         -0.4590    0.4140   -0.9580 ha        1 GVQ      0.134500
     18 H2          2.0200    0.4480   -0.9230 ha        1 GVQ      0.165000
     19 H4          1.9670   -0.3620    3.3390 ha        1 GVQ      0.165000
     20 H14        -0.4990   -0.4120    3.3030 ha        1 GVQ      0.134500
     21 H11        -1.3240   -2.3420    2.2850 ha        1 GVQ      0.137500
     22 H7         -5.3350   -2.9270   -0.6330 ha        1 GVQ      0.156000
     23 H8         -4.2700   -0.6930   -0.4310 ha        1 GVQ      0.137500
     24 H9         -2.4390    0.5960    0.1700 hc        1 GVQ      0.074700
     25 H151       -2.3160    1.7780    2.3840 hx        1 GVQ      0.114700
     26 H152       -2.4790    0.1700    3.2620 hx        1 GVQ      0.114700
     27 H1N1       -4.6020    1.1660    3.1330 hn        1 GVQ      0.461800
     28 H1N2       -4.5020    1.4590    1.4930 hn        1 GVQ      0.461800
     29 H5         -2.3840   -4.5820    2.0600 ha        1 GVQ      0.156000
     30 H13        -4.6090   -0.1110    2.0430 hn        1 GVQ      0.461800
     31 H6         -4.3940   -4.8810    0.6040 ha        1 GVQ      0.159000
@<TRIPOS>BOND
     1    1    2 ar  
     2    1   12 ar  
     3    1   17 1   
     4    2    3 ar  
     5    2   18 1   
     6    3    4 ar  
     7    3   16 1   
     8    4   13 ar  
     9    4   19 1   
    10    5    6 ar  
    11    5   10 ar  
    12    5   29 1   
    13    6    7 ar  
    14    6   31 1   
    15    7    8 ar  
    16    7   22 1   
    17    8   11 ar  
    18    8   23 1   
    19    9   11 1   
    20    9   12 1   
    21    9   14 1   
    22    9   24 1   
    23   10   11 ar  
    24   10   21 1   
    25   12   13 ar  
    26   13   20 1   
    27   14   15 1   
    28   14   25 1   
    29   14   26 1   
    30   15   27 1   
    31   15   28 1   
    32   15   30 1   
@<TRIPOS>SUBSTRUCTURE
     1 GVQ         1 TEMP              0 ****  ****    0 ROOT
