@<TRIPOS>MOLECULE
GVQ
   30    31     1     0     0
SMALL
bcc


@<TRIPOS>ATOM
      1 C1          0.6740   -3.2800    4.9010 ca        1 GVQ     -0.118000
      2 C2         -0.4150   -3.9910    5.3970 ca        1 GVQ     -0.123000
      3 C3         -1.5980   -3.3120    5.7060 ca        1 GVQ      0.016400
      4 C4         -1.6890   -1.9310    5.5180 ca        1 GVQ     -0.123000
      5 C5          0.6710   -0.7010    0.5720 ca        1 GVQ     -0.129000
      6 C6          1.8680   -0.8980   -0.1160 ca        1 GVQ     -0.129000
      7 C7          3.0340   -1.1900    0.5920 ca        1 GVQ     -0.129000
      8 C8          3.0030   -1.2840    1.9820 ca        1 GVQ     -0.126000
      9 C9          1.8010   -1.1750    4.1750 c3        1 GVQ      0.016900
     10 C11         0.6380   -0.7940    1.9620 ca        1 GVQ     -0.126000
     11 C12         1.8030   -1.0880    2.6790 ca        1 GVQ     -0.084300
     12 C13         0.5990   -1.8930    4.7050 ca        1 GVQ     -0.068300
     13 C14        -0.5930   -1.2300    5.0180 ca        1 GVQ     -0.118000
     14 C15         1.9230    0.2380    4.7830 c3        1 GVQ      0.166800
     15 N1          3.2280    0.8210    4.5850 n3        1 GVQ     -0.917800
     16 CL1        -2.9320   -4.1720    6.3150 cl        1 GVQ     -0.095400
     17 H1          1.6040   -3.8160    4.6580 ha        1 GVQ      0.138500
     18 H2         -0.3430   -5.0790    5.5440 ha        1 GVQ      0.147000
     19 H4         -2.6190   -1.3960    5.7630 ha        1 GVQ      0.147000
     20 H14        -0.6770   -0.1420    4.8740 ha        1 GVQ      0.138500
     21 H6          1.8920   -0.8270   -1.2130 ha        1 GVQ      0.132000
     22 H11        -0.3090   -0.6430    2.5020 ha        1 GVQ      0.137000
     23 H7          3.9800   -1.3470    0.0540 ha        1 GVQ      0.132000
     24 H8          3.9260   -1.5150    2.5360 ha        1 GVQ      0.137000
     25 H9          2.7120   -1.7660    4.4960 hc        1 GVQ      0.077700
     26 H151        1.0950    0.8760    4.3510 h1        1 GVQ      0.031700
     27 H152        1.7500    0.1630    5.8940 h1        1 GVQ      0.031700
     28 H1N1        3.2180    1.7870    4.8470 hn        1 GVQ      0.352800
     29 H1N2        3.5160    0.7400    3.6290 hn        1 GVQ      0.352800
     30 H5         -0.2520   -0.4730    0.0170 ha        1 GVQ      0.132000
@<TRIPOS>BOND
     1    1    2 ar  
     2    1   12 ar  
     3    1   17 1   
     4    2    3 ar  
     5    2   18 1   
     6    3    4 ar  
     7    3   16 1   
     8    4   13 ar  
     9    4   19 1   
    10    5    6 ar  
    11    5   10 ar  
    12    5   30 1   
    13    6    7 ar  
    14    6   21 1   
    15    7    8 ar  
    16    7   23 1   
    17    8   11 ar  
    18    8   24 1   
    19    9   11 1   
    20    9   12 1   
    21    9   14 1   
    22    9   25 1   
    23   10   11 ar  
    24   10   22 1   
    25   12   13 ar  
    26   13   20 1   
    27   14   15 1   
    28   14   26 1   
    29   14   27 1   
    30   15   28 1   
    31   15   29 1   
@<TRIPOS>SUBSTRUCTURE
     1 GVQ         1 TEMP              0 ****  ****    0 ROOT
