@<TRIPOS>MOLECULE
GVQ
   30    26     1     0     0
SMALL
bcc


@<TRIPOS>ATOM
      1 C1          1.7590    0.6030   -1.7580 c1        1 GVQ     -0.107000
      2 C2          3.2720    0.6030   -1.7580 c1        1 GVQ     -0.124000
      3 C3          4.0290    0.6030   -0.4480 c1        1 GVQ     -0.063000
      4 C4          3.2720    0.6030    0.8620 c1        1 GVQ     -0.123000
      5 C5         -2.3420   -2.7540   -0.6400 c1        1 GVQ     -0.126750
      6 C6         -2.5540   -3.1810    0.7960 c1        1 GVQ     -0.126750
      7 C7         -2.0650   -2.3030    1.9260 c1        1 GVQ     -0.126750
      8 C8         -1.3640   -0.9970    1.6210 c1        1 GVQ     -0.129000
      9 C9         -0.5100    0.6350   -0.4480 c3        1 GVQ     -0.029000
     10 C11        -1.6410   -1.4490   -0.9450 c1        1 GVQ     -0.126750
     11 C12        -1.0400   -0.6340    0.1830 c1        1 GVQ     -0.069000
     12 C13         1.0030    0.6030   -0.4480 c2        1 GVQ     -0.051000
     13 C14         1.7590    0.6030    0.8620 c2        1 GVQ     -0.114000
     14 C15        -0.9890    1.8310    0.3460 c3        1 GVQ     -0.071000
     15 N1         -1.6000    2.7710   -0.5350 n3        1 GVQ     -0.348000
     16 CL1         5.7720    0.6310   -0.4480 cl        1 GVQ     -0.023000
     17 H1          1.2710    0.6030   -2.6030 ha        1 GVQ      0.135000
     18 H2          3.7600    0.6030   -2.6030 ha        1 GVQ      0.145000
     19 H4          3.7600    0.6030    1.7080 ha        1 GVQ      0.145000
     20 H14         1.2710    0.6030    1.7080 ha        1 GVQ      0.138000
     21 H5         -2.6940   -3.3020   -1.3670 ha        1 GVQ      0.132500
     22 H6         -3.0060   -4.0240    0.9930 ha        1 GVQ      0.132500
     23 H11        -1.4720   -1.1990   -1.8740 ha        1 GVQ      0.132500
     24 H7         -2.2380   -2.5590    2.8520 ha        1 GVQ      0.132500
     25 H8         -1.0480   -0.4300    2.3500 ha        1 GVQ      0.131000
     26 H9         -0.8340    0.7020   -1.3660 hc        1 GVQ      0.100000
     27 H151       -0.2300    2.2500    0.7940 h1        1 GVQ      0.071500
     28 H152       -1.6400    1.5390    1.0120 h1        1 GVQ      0.071500
     29 H1N1       -2.4820    2.8600   -0.3210 hn        1 GVQ      0.146000
     30 H1N2       -1.1840    3.5790   -0.4530 hn        1 GVQ      0.146000
@<TRIPOS>BOND
     1    1   12 1   
     2    1   17 1   
     3    2    3 1   
     4    2   18 1   
     5    3   16 1   
     6    4   13 1   
     7    4   19 1   
     8    5   10 1   
     9    5   21 1   
    10    6    7 1   
    11    6   22 1   
    12    7   24 1   
    13    8   11 1   
    14    8   25 1   
    15    9   11 1   
    16    9   12 1   
    17    9   14 1   
    18    9   26 1   
    19   10   23 1   
    20   12   13 1   
    21   13   20 1   
    22   14   15 1   
    23   14   27 1   
    24   14   28 1   
    25   15   29 1   
    26   15   30 1   
@<TRIPOS>SUBSTRUCTURE
     1 GVQ         1 TEMP              0 ****  ****    0 ROOT
