@<TRIPOS>MOLECULE
GVR
   52    54     1     0     0
SMALL
bcc


@<TRIPOS>ATOM
      1 O28         3.0330   -0.6830   -0.8900 o         1 GVR     -0.359100
      2 C27         2.2990   -0.2330   -0.0340 c         1 GVR      0.524100
      3 N29         1.1200    0.5940   -0.5720 n4        1 GVR     -0.462300
      4 O30        -0.0590    0.2210   -0.0270 oh        1 GVR     -0.353300
      5 C26         2.3890   -0.3790    1.4850 c3        1 GVR      0.111500
      6 C25         2.1560   -1.8780    1.7990 c3        1 GVR     -0.044100
      7 C15         2.3130   -2.1270    3.2550 ca        1 GVR     -0.162300
      8 C16         3.6040   -2.4380    3.7660 ca        1 GVR     -0.169000
      9 C17         3.7720   -2.7270    5.0960 ca        1 GVR     -0.080000
     10 C20         2.6630   -2.7160    5.9880 ca        1 GVR     -0.027000
     11 C21         2.8120   -3.0260    7.3660 ca        1 GVR     -0.119000
     12 C19         1.3730   -2.4090    5.4800 ca        1 GVR     -0.045000
     13 C24         0.2590   -2.4200    6.3630 ca        1 GVR     -0.123000
     14 C23         0.4300   -2.7280    7.6920 ca        1 GVR     -0.098000
     15 C22         1.7170   -3.0330    8.1980 ca        1 GVR     -0.094000
     16 C18         1.2230   -2.1190    4.0980 ca        1 GVR     -0.077000
     17 N1          3.6630    0.1610    1.9600 n3        1 GVR     -0.997800
     18 S2          4.0750    2.5880    1.4440 s4        1 GVR      1.710300
     19 O13         2.8750    2.5280    0.7760 o         1 GVR     -0.473400
     20 O14         5.2050    2.2040    0.8050 o         1 GVR     -0.473400
     21 C3          4.1310    3.2470    2.8110 ca        1 GVR     -0.668500
     22 C4          5.4100    3.3530    3.4830 ca        1 GVR     -0.053000
     23 C5          5.5440    3.9810    4.6820 ca        1 GVR     -0.095000
     24 C8          4.4190    4.5690    5.3370 ca        1 GVR      0.083000
     25 C9          4.5350    5.2390    6.5720 ca        1 GVR     -0.152000
     26 C7          3.1360    4.4760    4.7010 ca        1 GVR     -0.103000
     27 C6          3.0210    3.8240    3.4750 ca        1 GVR      0.127000
     28 C12         2.0030    5.0690    5.3430 ca        1 GVR     -0.068000
     29 C11         2.1490    5.7170    6.5440 ca        1 GVR     -0.116000
     30 C10         3.4210    5.8040    7.1640 ca        1 GVR      0.001000
     31 H29         1.0980    0.5620   -1.6100 hn        1 GVR      0.498300
     32 H26         1.5630    0.2170    1.9820 h1        1 GVR      0.116700
     33 H30        -0.3850   -0.5900   -0.4830 ho        1 GVR      0.483000
     34 H251        1.1190   -2.1450    1.4640 hc        1 GVR      0.083200
     35 H252        2.8840   -2.5050    1.2160 hc        1 GVR      0.083200
     36 H1          4.4320   -0.3250    1.5190 hn        1 GVR      0.421300
     37 H16         4.4570   -2.4960    3.0730 ha        1 GVR      0.128000
     38 H18         0.2110   -1.9100    3.7150 ha        1 GVR      0.133000
     39 H17         4.7660   -2.9920    5.4930 ha        1 GVR      0.156000
     40 H21         3.8140   -3.2720    7.7510 ha        1 GVR      0.152000
     41 H22         1.8260   -3.2840    9.2650 ha        1 GVR      0.160000
     42 H24        -0.7410   -2.1940    5.9620 ha        1 GVR      0.142000
     43 H23        -0.4330   -2.7490    8.3770 ha        1 GVR      0.157000
     44 H4          6.2960    2.9170    2.9830 ha        1 GVR      0.175000
     45 H6          2.0250    3.7670    2.9930 ha        1 GVR      0.157000
     46 H5          6.5340    4.0530    5.1710 ha        1 GVR      0.188000
     47 H9          5.5240    5.3110    7.0560 ha        1 GVR      0.179000
     48 H10         3.5120    6.3340    8.1310 ha        1 GVR      0.183000
     49 H12         1.0170    5.0020    4.8550 ha        1 GVR      0.159000
     50 H11         1.2790    6.1810    7.0420 ha        1 GVR      0.182000
     51 H292        1.2590    1.5900   -0.2720 hn        1 GVR      0.498300
     52 H121        3.7170   -0.0200    2.9560 hn        1 GVR      0.421300
@<TRIPOS>BOND
     1    1    2 2   
     2    2    3 1   
     3    2    5 1   
     4    3    4 1   
     5    3   31 1   
     6    3   51 1   
     7    4   33 1   
     8    5    6 1   
     9    5   17 1   
    10    5   32 1   
    11    6    7 1   
    12    6   34 1   
    13    6   35 1   
    14    7    8 ar  
    15    7   16 ar  
    16    8    9 ar  
    17    8   37 1   
    18    9   10 ar  
    19    9   39 1   
    20   10   11 ar  
    21   10   12 ar  
    22   11   15 ar  
    23   11   40 1   
    24   12   13 ar  
    25   12   16 ar  
    26   13   14 ar  
    27   13   42 1   
    28   14   15 ar  
    29   14   43 1   
    30   15   41 1   
    31   16   38 1   
    32   17   36 1   
    33   17   52 1   
    34   18   19 1   
    35   18   20 1   
    36   18   21 1   
    37   21   22 ar  
    38   21   27 ar  
    39   22   23 ar  
    40   22   44 1   
    41   23   24 ar  
    42   23   46 1   
    43   24   25 ar  
    44   24   26 ar  
    45   25   30 ar  
    46   25   47 1   
    47   26   27 ar  
    48   26   28 ar  
    49   27   45 1   
    50   28   29 ar  
    51   28   49 1   
    52   29   30 ar  
    53   29   50 1   
    54   30   48 1   
@<TRIPOS>SUBSTRUCTURE
     1 GVR         1 TEMP              0 ****  ****    0 ROOT
