@<TRIPOS>MOLECULE
GVR
   52    54     1     0     0
SMALL
bcc


@<TRIPOS>ATOM
      1 O28         3.0090   -0.7040   -0.8870 o         1 GVR     -0.359100
      2 C27         2.2810   -0.2440   -0.0310 c         1 GVR      0.524100
      3 N29         1.1090    0.5930   -0.5690 n4        1 GVR     -0.462300
      4 O30        -0.0720    0.2330   -0.0200 oh        1 GVR     -0.353300
      5 C26         2.3740   -0.3840    1.4880 c3        1 GVR      0.111500
      6 C25         2.1280   -1.8790    1.8090 c3        1 GVR     -0.044100
      7 C15         2.2870   -2.1250    3.2650 ca        1 GVR     -0.162300
      8 C16         3.5760   -2.4450    3.7740 ca        1 GVR     -0.169000
      9 C17         3.7450   -2.7300    5.1050 ca        1 GVR     -0.080000
     10 C20         2.6390   -2.7040    6.0000 ca        1 GVR     -0.027000
     11 C21         2.7880   -3.0100    7.3790 ca        1 GVR     -0.119000
     12 C19         1.3500   -2.3880    5.4950 ca        1 GVR     -0.045000
     13 C24         0.2390   -2.3850    6.3800 ca        1 GVR     -0.123000
     14 C23         0.4100   -2.6880    7.7100 ca        1 GVR     -0.098000
     15 C22         1.6960   -3.0030    8.2140 ca        1 GVR     -0.094000
     16 C18         1.1990   -2.1020    4.1120 ca        1 GVR     -0.077000
     17 N1          3.6540    0.1460    1.9570 n3        1 GVR     -0.997800
     18 S2          4.0870    2.5670    1.4330 s4        1 GVR      1.710300
     19 O13         2.8840    2.5150    0.7680 o         1 GVR     -0.473400
     20 O14         5.2120    2.1710    0.7930 o         1 GVR     -0.473400
     21 C3          4.1510    3.2290    2.7990 ca        1 GVR     -0.668500
     22 C4          5.4320    3.3260    3.4670 ca        1 GVR     -0.053000
     23 C5          5.5740    3.9550    4.6650 ca        1 GVR     -0.095000
     24 C8          4.4550    4.5550    5.3200 ca        1 GVR      0.083000
     25 C9          4.5800    5.2270    6.5530 ca        1 GVR     -0.152000
     26 C7          3.1710    4.4710    4.6880 ca        1 GVR     -0.103000
     27 C6          3.0480    3.8180    3.4630 ca        1 GVR      0.126000
     28 C12         2.0440    5.0760    5.3300 ca        1 GVR     -0.068000
     29 C11         2.1980    5.7250    6.5290 ca        1 GVR     -0.116000
     30 C10         3.4720    5.8030    7.1470 ca        1 GVR      0.001000
     31 H29         1.0840    0.5570   -1.6070 hn        1 GVR      0.498300
     32 H26         1.5550    0.2220    1.9850 h1        1 GVR      0.116700
     33 H30        -0.4070   -0.5770   -0.4730 ho        1 GVR      0.483000
     34 H251        1.0870   -2.1390    1.4780 hc        1 GVR      0.083200
     35 H252        2.8490   -2.5160    1.2270 hc        1 GVR      0.083200
     36 H1          3.7090   -0.0330    2.9540 hn        1 GVR      0.421300
     37 H16         4.4260   -2.5140    3.0790 ha        1 GVR      0.128000
     38 H18         0.1890   -1.8860    3.7310 ha        1 GVR      0.133000
     39 H17         4.7370   -3.0030    5.5010 ha        1 GVR      0.156000
     40 H21         3.7890   -3.2650    7.7620 ha        1 GVR      0.152000
     41 H22         1.8050   -3.2510    9.2820 ha        1 GVR      0.160000
     42 H24        -0.7600   -2.1500    5.9810 ha        1 GVR      0.142000
     43 H23        -0.4510   -2.6980    8.3980 ha        1 GVR      0.157000
     44 H4          6.3130    2.8810    2.9670 ha        1 GVR      0.175000
     45 H6          2.0500    3.7680    2.9830 ha        1 GVR      0.157000
     46 H5          6.5650    4.0200    5.1520 ha        1 GVR      0.188000
     47 H9          5.5700    5.2910    7.0360 ha        1 GVR      0.179000
     48 H10         3.5700    6.3340    8.1110 ha        1 GVR      0.183000
     49 H12         1.0570    5.0160    4.8440 ha        1 GVR      0.159000
     50 H11         1.3330    6.1970    7.0280 ha        1 GVR      0.182000
     51 H292        1.2580    1.5890   -0.2730 hn        1 GVR      0.498300
     52 H121        4.4180   -0.3480    1.5160 hn        1 GVR      0.421300
@<TRIPOS>BOND
     1    1    2 2   
     2    2    3 1   
     3    2    5 1   
     4    3    4 1   
     5    3   31 1   
     6    3   51 1   
     7    4   33 1   
     8    5    6 1   
     9    5   17 1   
    10    5   32 1   
    11    6    7 1   
    12    6   34 1   
    13    6   35 1   
    14    7    8 ar  
    15    7   16 ar  
    16    8    9 ar  
    17    8   37 1   
    18    9   10 ar  
    19    9   39 1   
    20   10   11 ar  
    21   10   12 ar  
    22   11   15 ar  
    23   11   40 1   
    24   12   13 ar  
    25   12   16 ar  
    26   13   14 ar  
    27   13   42 1   
    28   14   15 ar  
    29   14   43 1   
    30   15   41 1   
    31   16   38 1   
    32   17   36 1   
    33   17   52 1   
    34   18   19 1   
    35   18   20 1   
    36   18   21 1   
    37   21   22 ar  
    38   21   27 ar  
    39   22   23 ar  
    40   22   44 1   
    41   23   24 ar  
    42   23   46 1   
    43   24   25 ar  
    44   24   26 ar  
    45   25   30 ar  
    46   25   47 1   
    47   26   27 ar  
    48   26   28 ar  
    49   27   45 1   
    50   28   29 ar  
    51   28   49 1   
    52   29   30 ar  
    53   29   50 1   
    54   30   48 1   
@<TRIPOS>SUBSTRUCTURE
     1 GVR         1 TEMP              0 ****  ****    0 ROOT
