@<TRIPOS>MOLECULE
GVR
   50    45     1     0     0
SMALL
bcc


@<TRIPOS>ATOM
      1 O28        -0.6600   -0.1570   -1.6460 o         1 GVR     -0.331000
      2 C27        -1.2870   -0.0430   -0.5980 c1        1 GVR      0.222000
      3 N29        -2.7090    0.1630   -0.6320 n2        1 GVR     -0.203000
      4 O30        -3.4250   -0.1770   -1.7610 oh        1 GVR     -0.236000
      5 C26        -0.5490   -0.0050    0.7220 c3        1 GVR      0.032000
      6 C25        -0.2650   -1.4230    1.1860 c3        1 GVR     -0.128000
      7 C15        -1.5740   -2.2060    1.2640 c2        1 GVR     -0.085000
      8 C16        -1.9420   -2.8380    0.0780 c1        1 GVR     -0.118000
      9 C17        -3.0820   -3.6360    0.0390 c1        1 GVR     -0.117000
     10 C20        -3.8660   -3.8060    1.2020 c1        1 GVR     -0.033000
     11 C21        -5.0280   -4.6140    1.1610 c1        1 GVR     -0.122000
     12 C19        -3.5050   -3.1850    2.3680 c2        1 GVR     -0.038000
     13 C24        -4.2930   -3.3520    3.5290 c2        1 GVR     -0.116000
     14 C23        -5.4330   -4.1460    3.4870 c1        1 GVR     -0.128000
     15 C22        -5.8000   -4.7770    2.3020 c1        1 GVR     -0.122000
     16 C18        -2.3450   -2.3720    2.4080 c2        1 GVR     -0.110000
     17 N1          0.6780    0.6950    0.5560 n3        1 GVR     -0.893000
     18 S2          0.6880    2.1960   -0.1330 s4        1 GVR      2.087800
     19 O13         0.4630    3.2350    0.8640 o         1 GVR     -0.551900
     20 O14        -0.4450    2.3840   -0.9890 o         1 GVR     -0.551900
     21 C3          2.2260    2.4620   -1.0200 c1        1 GVR     -0.844000
     22 C4          2.4410    1.8780   -2.2730 c2        1 GVR     -0.044000
     23 C5          3.6110    2.1520   -2.9780 c1        1 GVR     -0.131000
     24 C8          4.5880    3.0270   -2.4240 c1        1 GVR     -0.030500
     25 C9          5.8080    3.2570   -3.1150 c2        1 GVR     -0.116000
     26 C7          4.3780    3.5990   -1.1970 c1        1 GVR     -0.030500
     27 C6          3.1860    3.3210   -0.4770 c1        1 GVR      0.033000
     28 C12         5.3770    4.4190   -0.6190 c2        1 GVR     -0.116000
     29 C11         6.5740    4.6450   -1.2980 c1        1 GVR     -0.115500
     30 C10         6.7880    4.0620   -2.5460 c1        1 GVR     -0.115500
     31 H29        -3.1280    0.5760    0.0680 hn        1 GVR      0.255000
     32 H26        -1.1000    0.4550    1.3920 h1        1 GVR      0.125000
     33 H30        -4.2660   -0.3690   -1.5340 ho        1 GVR      0.227000
     34 H251        0.1520   -1.4010    2.0620 hc        1 GVR      0.110500
     35 H252        0.3380   -1.8590    0.5490 hc        1 GVR      0.110500
     36 H1          1.4580    0.3080    0.8090 hn        1 GVR      0.250000
     37 H16        -1.4220   -2.6840   -0.7420 ha        1 GVR      0.151000
     38 H18        -2.0400   -1.9980    3.2610 ha        1 GVR      0.135000
     39 H17        -3.3380   -4.0750   -0.7850 ha        1 GVR      0.135000
     40 H21        -5.2900   -5.0640    0.3170 ha        1 GVR      0.132500
     41 H22        -6.5910   -5.3270    2.2740 ha        1 GVR      0.132500
     42 H24        -4.0360   -2.9090    4.3630 ha        1 GVR      0.134000
     43 H23        -5.9810   -4.2620    4.2960 ha        1 GVR      0.133000
     44 H4          1.7340    1.3290   -2.6870 ha        1 GVR      0.154000
     45 H6          3.0670    3.6780    0.4250 ha        1 GVR      0.159000
     46 H5          3.7620    1.7440   -3.8540 ha        1 GVR      0.146000
     47 H9          5.9610    2.8410   -4.0070 ha        1 GVR      0.141000
     48 H10         7.6270    4.2200   -3.0220 ha        1 GVR      0.139500
     49 H12         5.2290    4.8260    0.2520 ha        1 GVR      0.141000
     50 H11         7.2680    5.2150   -0.8950 ha        1 GVR      0.139500
@<TRIPOS>BOND
     1    1    2 1   
     2    2    5 1   
     3    3    4 1   
     4    3   31 1   
     5    4   33 1   
     6    5    6 1   
     7    5   17 1   
     8    5   32 1   
     9    6    7 1   
    10    6   34 1   
    11    6   35 1   
    12    7    8 1   
    13    7   16 1   
    14    8   37 1   
    15    9   10 1   
    16    9   39 1   
    17   10   12 1   
    18   11   15 1   
    19   11   40 1   
    20   12   13 1   
    21   12   16 1   
    22   13   14 1   
    23   13   42 1   
    24   14   43 1   
    25   15   41 1   
    26   16   38 1   
    27   17   18 1   
    28   17   36 1   
    29   18   19 1   
    30   18   20 1   
    31   21   22 1   
    32   21   27 1   
    33   22   23 1   
    34   22   44 1   
    35   23   46 1   
    36   24   25 1   
    37   24   26 1   
    38   25   30 1   
    39   25   47 1   
    40   26   28 1   
    41   27   45 1   
    42   28   29 1   
    43   28   49 1   
    44   29   50 1   
    45   30   48 1   
@<TRIPOS>SUBSTRUCTURE
     1 GVR         1 TEMP              0 ****  ****    0 ROOT
