@<TRIPOS>MOLECULE
GVR
   50    53     1     0     0
SMALL
bcc


@<TRIPOS>ATOM
      1 O28        12.1490   11.9300  -19.9320 o         1 GVR     -0.553100
      2 C27        12.2440   11.2980  -18.8700 c         1 GVR      0.571100
      3 N29        12.6460    9.9350  -18.8420 n         1 GVR     -0.338400
      4 O30        12.4590    9.2670  -19.9820 oh        1 GVR     -0.438100
      5 C26        12.0410   12.0210  -17.5170 c3        1 GVR      0.182500
      6 C25        10.5860   11.7290  -17.0960 c3        1 GVR     -0.045100
      7 C15        10.1910   12.4770  -15.8740 ca        1 GVR     -0.090300
      8 C16        10.2990   11.8470  -14.6050 ca        1 GVR     -0.128000
      9 C17         9.9250   12.5090  -13.4630 ca        1 GVR     -0.110000
     10 C20         9.4210   13.8370  -13.5270 ca        1 GVR     -0.035000
     11 C21         9.0250   14.5440  -12.3590 ca        1 GVR     -0.118000
     12 C19         9.3100   14.4690  -14.7910 ca        1 GVR     -0.035000
     13 C24         8.8040   15.7970  -14.8590 ca        1 GVR     -0.115000
     14 C23         8.4280   16.4580  -13.7160 ca        1 GVR     -0.126000
     15 C22         8.5390   15.8250  -12.4530 ca        1 GVR     -0.124000
     16 C18         9.7040   13.7630  -15.9590 ca        1 GVR     -0.102000
     17 N1         13.0160   11.6960  -16.5230 n3        1 GVR     -0.901100
     18 S2         14.4930   12.3660  -16.3540 sy        1 GVR      1.519200
     19 O13        15.2510   12.2170  -17.5290 o         1 GVR     -0.648300
     20 O14        15.0440   11.8380  -15.1660 o         1 GVR     -0.648300
     21 C3         14.1580   14.0030  -16.1540 ca        1 GVR     -0.391500
     22 C4         13.9200   14.5160  -14.8510 ca        1 GVR     -0.040000
     23 C5         13.6760   15.8490  -14.6460 ca        1 GVR     -0.133000
     24 C8         13.6570   16.7560  -15.7400 ca        1 GVR      0.013000
     25 C9         13.4060   18.1440  -15.5630 ca        1 GVR     -0.134000
     26 C7         13.9010   16.2600  -17.0470 ca        1 GVR     -0.076000
     27 C6         14.1500   14.8760  -17.2240 ca        1 GVR      0.025000
     28 C12        13.8920   17.1620  -18.1480 ca        1 GVR     -0.097000
     29 C11        13.6470   18.4980  -17.9470 ca        1 GVR     -0.137000
     30 C10        13.4010   18.9920  -16.6430 ca        1 GVR     -0.102000
     31 H29        12.2100    9.4080  -18.0940 hn        1 GVR      0.297500
     32 H26        12.1230   13.1310  -17.7490 h1        1 GVR      0.087700
     33 H30        13.1940    9.5380  -20.5690 ho        1 GVR      0.439000
     34 H251        9.9240   12.0210  -17.9560 hc        1 GVR      0.064200
     35 H252       10.4560   10.6260  -16.9260 hc        1 GVR      0.064200
     36 H1         12.6970   11.0390  -15.8480 hn        1 GVR      0.448800
     37 H16        10.6820   10.8170  -14.5510 ha        1 GVR      0.128000
     38 H18         9.6110   14.2640  -16.9350 ha        1 GVR      0.137000
     39 H17        10.0070   12.0220  -12.4780 ha        1 GVR      0.137000
     40 H21         9.1140   14.0440  -11.3830 ha        1 GVR      0.135000
     41 H22         8.2300   16.3750  -11.5520 ha        1 GVR      0.134000
     42 H24         8.7210   16.2800  -15.8440 ha        1 GVR      0.136000
     43 H23         8.0350   17.4840  -13.7650 ha        1 GVR      0.134000
     44 H4         13.9530   13.8140  -13.9980 ha        1 GVR      0.154000
     45 H6         14.3570   14.5010  -18.2440 ha        1 GVR      0.159000
     46 H5         13.4940   16.2390  -13.6330 ha        1 GVR      0.142000
     47 H9         13.2170   18.5200  -14.5460 ha        1 GVR      0.139000
     48 H10        13.2090   20.0680  -16.5090 ha        1 GVR      0.137000
     49 H12        14.0870   16.7670  -19.1570 ha        1 GVR      0.142000
     50 H11        13.6400   19.2000  -18.7940 ha        1 GVR      0.139000
@<TRIPOS>BOND
     1    1    2 2   
     2    2    3 1   
     3    2    5 1   
     4    3    4 1   
     5    3   31 1   
     6    4   33 1   
     7    5    6 1   
     8    5   17 1   
     9    5   32 1   
    10    6    7 1   
    11    6   34 1   
    12    6   35 1   
    13    7    8 ar  
    14    7   16 ar  
    15    8    9 ar  
    16    8   37 1   
    17    9   10 ar  
    18    9   39 1   
    19   10   11 ar  
    20   10   12 ar  
    21   11   15 ar  
    22   11   40 1   
    23   12   13 ar  
    24   12   16 ar  
    25   13   14 ar  
    26   13   42 1   
    27   14   15 ar  
    28   14   43 1   
    29   15   41 1   
    30   16   38 1   
    31   17   18 1   
    32   17   36 1   
    33   18   19 2   
    34   18   20 2   
    35   18   21 1   
    36   21   22 ar  
    37   21   27 ar  
    38   22   23 ar  
    39   22   44 1   
    40   23   24 ar  
    41   23   46 1   
    42   24   25 ar  
    43   24   26 ar  
    44   25   30 ar  
    45   25   47 1   
    46   26   27 ar  
    47   26   28 ar  
    48   27   45 1   
    49   28   29 ar  
    50   28   49 1   
    51   29   30 ar  
    52   29   50 1   
    53   30   48 1   
@<TRIPOS>SUBSTRUCTURE
     1 GVR         1 TEMP              0 ****  ****    0 ROOT
