@<TRIPOS>MOLECULE
GVR
   52    54     1     0     0
SMALL
bcc


@<TRIPOS>ATOM
      1 O28         2.9780   -0.7150   -0.8860 o         1 GVR     -0.359100
      2 C27         2.2560   -0.2520   -0.0270 c         1 GVR      0.524100
      3 N29         1.0820    0.5850   -0.5590 ny        1 GVR     -0.462300
      4 O30        -0.0960    0.2280   -0.0030 oh        1 GVR     -0.353300
      5 C26         2.3580   -0.3890    1.4920 c3        1 GVR      0.111500
      6 C25         2.1120   -1.8830    1.8180 c3        1 GVR     -0.044100
      7 C15         2.2790   -2.1250    3.2740 ca        1 GVR     -0.162300
      8 C16         3.5700   -2.4460    3.7760 ca        1 GVR     -0.169000
      9 C17         3.7470   -2.7280    5.1070 ca        1 GVR     -0.080000
     10 C20         2.6460   -2.6990    6.0080 ca        1 GVR     -0.027000
     11 C21         2.8020   -3.0010    7.3870 ca        1 GVR     -0.119000
     12 C19         1.3550   -2.3810    5.5090 ca        1 GVR     -0.045000
     13 C24         0.2480   -2.3740    6.4010 ca        1 GVR     -0.123000
     14 C23         0.4270   -2.6740    7.7310 ca        1 GVR     -0.098000
     15 C22         1.7140   -2.9900    8.2280 ca        1 GVR     -0.094000
     16 C18         1.1960   -2.0990    4.1260 ca        1 GVR     -0.077000
     17 N1          3.6420    0.1400    1.9520 n8        1 GVR     -0.997800
     18 S2          4.0750    2.5590    1.4200 s4        1 GVR      1.710300
     19 O13         2.8680    2.5080    0.7630 o         1 GVR     -0.473400
     20 O14         5.1960    2.1610    0.7740 o         1 GVR     -0.473400
     21 C3          4.1480    3.2250    2.7840 ca        1 GVR     -0.668500
     22 C4          5.4340    3.3210    3.4450 ca        1 GVR     -0.053000
     23 C5          5.5840    3.9520    4.6410 ca        1 GVR     -0.095000
     24 C8          4.4700    4.5550    5.3010 ca        1 GVR      0.083000
     25 C9          4.6020    5.2290    6.5320 ca        1 GVR     -0.152000
     26 C7          3.1810    4.4710    4.6770 ca        1 GVR     -0.103000
     27 C6          3.0500    3.8160    3.4550 ca        1 GVR      0.126000
     28 C12         2.0590    5.0780    5.3250 ca        1 GVR     -0.068000
     29 C11         2.2210    5.7300    6.5220 ca        1 GVR     -0.116000
     30 C10         3.4990    5.8070    7.1310 ca        1 GVR      0.001000
     31 H29         1.2350    1.5810   -0.2670 hn        1 GVR      0.498300
     32 H26         1.5440    0.2190    1.9930 h1        1 GVR      0.116700
     33 H30        -0.4340   -0.5820   -0.4520 ho        1 GVR      0.483000
     34 H251        1.0700   -2.1420    1.4930 hc        1 GVR      0.083200
     35 H252        2.8290   -2.5220    1.2330 hc        1 GVR      0.083200
     36 H1          3.7030   -0.0360    2.9490 hn        1 GVR      0.421300
     37 H16         4.4170   -2.5190    3.0770 ha        1 GVR      0.128000
     38 H18         0.1840   -1.8820    3.7500 ha        1 GVR      0.133000
     39 H17         4.7410   -3.0010    5.4970 ha        1 GVR      0.156000
     40 H21         3.8050   -3.2560    7.7650 ha        1 GVR      0.152000
     41 H22         1.8300   -3.2350    9.2960 ha        1 GVR      0.160000
     42 H24        -0.7520   -2.1390    6.0070 ha        1 GVR      0.142000
     43 H23        -0.4300   -2.6810    8.4240 ha        1 GVR      0.157000
     44 H4          6.3110    2.8740    2.9400 ha        1 GVR      0.175000
     45 H6          2.0500    3.7660    2.9800 ha        1 GVR      0.157000
     46 H5          6.5780    4.0170    5.1210 ha        1 GVR      0.188000
     47 H9          5.5960    5.2930    7.0090 ha        1 GVR      0.179000
     48 H10         3.6030    6.3400    8.0950 ha        1 GVR      0.183000
     49 H12         1.0690    5.0190    4.8450 ha        1 GVR      0.159000
     50 H11         1.3600    6.2040    7.0250 ha        1 GVR      0.182000
     51 H292        1.0510    0.5470   -1.5970 hn        1 GVR      0.498300
     52 H121        4.4020   -0.3560    1.5080 hn        1 GVR      0.421300
@<TRIPOS>BOND
     1    1    2 2   
     2    2    3 1   
     3    2    5 1   
     4    3    4 1   
     5    3   31 1   
     6    3   51 1   
     7    4   33 1   
     8    5    6 1   
     9    5   17 1   
    10    5   32 1   
    11    6    7 1   
    12    6   34 1   
    13    6   35 1   
    14    7    8 ar  
    15    7   16 ar  
    16    8    9 ar  
    17    8   37 1   
    18    9   10 ar  
    19    9   39 1   
    20   10   11 ar  
    21   10   12 ar  
    22   11   15 ar  
    23   11   40 1   
    24   12   13 ar  
    25   12   16 ar  
    26   13   14 ar  
    27   13   42 1   
    28   14   15 ar  
    29   14   43 1   
    30   15   41 1   
    31   16   38 1   
    32   17   36 1   
    33   17   52 1   
    34   18   19 1   
    35   18   20 1   
    36   18   21 1   
    37   21   22 ar  
    38   21   27 ar  
    39   22   23 ar  
    40   22   44 1   
    41   23   24 ar  
    42   23   46 1   
    43   24   25 ar  
    44   24   26 ar  
    45   25   30 ar  
    46   25   47 1   
    47   26   27 ar  
    48   26   28 ar  
    49   27   45 1   
    50   28   29 ar  
    51   28   49 1   
    52   29   30 ar  
    53   29   50 1   
    54   30   48 1   
@<TRIPOS>SUBSTRUCTURE
     1 GVR         1 TEMP              0 ****  ****    0 ROOT
