@<TRIPOS>MOLECULE
GVS
   52    51     1     0     0
SMALL
bcc


@<TRIPOS>ATOM
      1 CAE         2.6360   -0.7220    0.7080 cx        1 GVS     -0.009900
      2 CAO         3.7120   -0.9670    1.6890 cx        1 GVS     -0.009900
      3 CAF         2.4510   -0.2450    2.1570 cx        1 GVS     -0.552900
      4 SAG         1.2900   -0.8400    3.1270 s6        1 GVS      1.472000
      5 OAP         0.3580    0.1100    3.5240 o         1 GVS     -0.580800
      6 OAB         0.9000   -2.1270    2.8140 o         1 GVS     -0.580800
      7 NAH         2.2390   -1.0490    4.6580 nu        1 GVS     -0.355600
      8 CAI         1.8910   -0.5190    5.8110 ce        1 GVS      0.517100
      9 CAJ         2.5190   -0.7090    7.0350 cg        1 GVS     -0.310200
     10 CAK         3.0200   -0.8460    8.1300 ch        1 GVS      0.083700
     11 CAL         3.6270   -1.0420    9.3520 cd        1 GVS     -0.322300
     12 CAQ         4.7790   -1.8700    9.4520 cc        1 GVS      0.225600
     13 CAC         3.2010   -0.4200   10.5910 cd        1 GVS      0.653500
     14 NAA         2.0390    0.4980   10.5550 nz        1 GVS     -0.800600
     15 NAD         3.7780   -0.6040   11.7540 nc        1 GVS     -0.596100
     16 CAM         4.9080   -1.4670   11.8500 c         1 GVS      0.827900
     17 OAN         5.4570   -1.6920   12.9260 o         1 GVS     -0.442500
     18 NAR         5.4040   -2.0980   10.6210 n         1 GVS     -0.228200
     19 CAT         6.6050   -2.8880   10.6840 c2        1 GVS     -0.084600
     20 CAS        -1.5030    0.9710   12.1680 c         1 GVS      0.641700
     21 OAZ        -0.4630    0.7820   11.5250 o         1 GVS     -0.675100
     22 CBA         6.8020   -3.7960   11.6600 c2        1 GVS     -0.093000
     23 CAU         7.6470   -2.6850    9.6210 c3        1 GVS     -0.110200
     24 CAV         7.7550   -1.2740    9.1140 c         1 GVS      0.647100
     25 OBB         6.8380   -0.6050    8.6100 o         1 GVS     -0.616000
     26 OAW         8.9940   -0.7600    9.2290 os        1 GVS     -0.396900
     27 CAX         9.2470    0.5690    8.7210 c3        1 GVS      0.137400
     28 CAY         9.4980    0.5320    7.2360 c3        1 GVS     -0.130100
     29 HAE1        2.0040   -1.5670    0.3630 hc        1 GVS      0.112700
     30 HAE2        2.7580    0.0580   -0.0700 hc        1 GVS      0.112700
     31 HAO1        3.8850   -1.9970    2.0590 hc        1 GVS      0.112700
     32 HAO2        4.6480   -0.3780    1.6370 hc        1 GVS      0.112700
     33 HAF         2.5950    0.8630    2.2660 h1        1 GVS      0.178700
     34 HAH         3.0380   -1.6540    4.6310 hn        1 GVS      0.311700
     35 HAI1        0.9850    0.1590    5.8060 h4        1 GVS      0.106800
     36 HAI2       -0.6410    1.3060    5.4820 ha        1 GVS      0.004000
     37 HAQ         5.1930   -2.3470    8.5340 h4        1 GVS      0.214000
     38 HAA1        2.2760    1.3200    9.9910 hn        1 GVS      0.492467
     39 HAA2        1.2240    0.0150   10.1480 hn        1 GVS      0.492467
     40 HAS1       -2.4970    0.7030   11.7510 h4        1 GVS      0.020700
     41 HAS2       -1.4840    1.4170   13.1860 h4        1 GVS      0.020700
     42 HBA1        7.7400   -4.3740   11.7050 ha        1 GVS      0.169000
     43 HBA2        6.0820   -4.0060   12.4660 ha        1 GVS      0.169000
     44 HAU1        8.6480   -3.0020   10.0350 hc        1 GVS      0.113700
     45 HAU2        7.4230   -3.3440    8.7360 hc        1 GVS      0.113700
     46 HAX1        8.3870    1.2390    8.9810 h1        1 GVS      0.079200
     47 HAX2       10.1680    0.8660    9.2950 h1        1 GVS      0.079200
     48 HAY1       10.3160   -0.1880    6.9910 hc        1 GVS      0.058367
     49 HAY2        8.5730    0.2230    6.6920 hc        1 GVS      0.058367
     50 HAY3        9.8000    1.5500    6.8890 hc        1 GVS      0.058367
     51 HAH2       -0.9850    1.4170    4.9070 ha        1 GVS      0.004000
     52 HAA3        1.7580    0.8110   11.5070 hn        1 GVS      0.492467
@<TRIPOS>BOND
     1    1    2 1   
     2    1    3 1   
     3    1   29 1   
     4    1   30 1   
     5    2    3 1   
     6    2   31 1   
     7    2   32 1   
     8    3    4 1   
     9    3   33 1   
    10    4    5 2   
    11    4    6 2   
    12    4    7 1   
    13    7    8 2   
    14    7   34 1   
    15    8    9 1   
    16    8   35 1   
    17    9   10 3   
    18   10   11 1   
    19   11   12 2   
    20   11   13 1   
    21   12   18 1   
    22   12   37 1   
    23   13   14 1   
    24   13   15 2   
    25   14   38 1   
    26   14   39 1   
    27   14   52 1   
    28   15   16 1   
    29   16   17 2   
    30   16   18 1   
    31   18   19 1   
    32   19   22 2   
    33   19   23 1   
    34   20   21 2   
    35   20   40 1   
    36   20   41 1   
    37   22   42 1   
    38   22   43 1   
    39   23   24 1   
    40   23   44 1   
    41   23   45 1   
    42   24   25 2   
    43   24   26 1   
    44   26   27 1   
    45   27   28 1   
    46   27   46 1   
    47   27   47 1   
    48   28   48 1   
    49   28   49 1   
    50   28   50 1   
    51   36   51 1   
@<TRIPOS>SUBSTRUCTURE
     1 GVS         1 TEMP              0 ****  ****    0 ROOT
