@<TRIPOS>MOLECULE
GVS
   52    53     1     0     0
SMALL
bcc


@<TRIPOS>ATOM
      1 CAE         1.1660   -2.3790    0.2910 cx        1 GVS      0.018100
      2 CAO         1.5410   -3.0800    1.5280 cx        1 GVS      0.018100
      3 CAF         1.8060   -1.5640    1.4480 cx        1 GVS     -0.685400
      4 SAG         1.0750   -0.4260    2.2560 s4        1 GVS      1.671500
      5 OAP         1.6770    0.7880    2.2920 o         1 GVS     -0.421400
      6 OAB        -0.2130   -0.6310    2.6190 o         1 GVS     -0.421400
      7 NAH         1.9090   -1.0150    4.3550 n3        1 GVS     -1.003800
      8 CAI         1.7170    0.1140    5.2680 c3        1 GVS      0.207900
      9 CAJ         2.2280   -0.0640    6.6030 c1        1 GVS     -0.166100
     10 CAK         2.6150   -0.1610    7.7350 cg        1 GVS     -0.101300
     11 CAL         3.0310   -0.3560    9.0520 cc        1 GVS     -0.273300
     12 CAQ         2.8590   -1.6050    9.6820 cd        1 GVS      0.185600
     13 CAC         3.6640    0.6590    9.8560 cc        1 GVS      0.632500
     14 NAA         3.8280    2.0150    9.2690 n4        1 GVS     -0.800600
     15 NAD         4.1070    0.4870   11.0830 nd        1 GVS     -0.613100
     16 CAM         3.9610   -0.7920   11.6920 c         1 GVS      0.827900
     17 OAN         4.4160   -1.0290   12.8130 o         1 GVS     -0.480500
     18 NAR         3.2570   -1.8300   10.9560 n         1 GVS     -0.308000
     19 CAT         3.0450   -3.1270   11.5970 cy        1 GVS      0.019400
     20 CAS         2.4860   -3.0750   13.0750 cy        1 GVS      0.127400
     21 OAZ         1.2750   -3.7610   12.6620 os        1 GVS     -0.381600
     22 CBA         1.6770   -3.8420   11.2750 cy        1 GVS      0.127400
     23 CAU         4.2500   -4.0530   11.4920 c3        1 GVS     -0.152400
     24 CAV         4.6220   -4.3930   10.0810 c         1 GVS      0.647100
     25 OBB         4.2020   -3.8730    9.0360 o         1 GVS     -0.618000
     26 OAW         5.5320   -5.3890   10.0080 os        1 GVS     -0.406900
     27 CAX         5.9650   -5.8010    8.6910 c3        1 GVS      0.144400
     28 CAY         6.9540   -6.9170    8.9150 c3        1 GVS     -0.108100
     29 HAE1        1.7780   -2.4950   -0.6270 hc        1 GVS      0.124200
     30 HAE2        0.0970   -2.1870    0.0660 hc        1 GVS      0.124200
     31 HAO1        2.4310   -3.7430    1.5390 hc        1 GVS      0.124200
     32 HAO2        0.7500   -3.4210    2.2260 hc        1 GVS      0.124200
     33 HAF         2.8910   -1.3440    1.2260 h1        1 GVS      0.204700
     34 HAH         1.4080   -1.8230    4.6930 hn        1 GVS      0.409300
     35 HAI1        2.2110    1.0220    4.7990 h1        1 GVS      0.111200
     36 HAI2        0.6010    0.3170    5.3320 h1        1 GVS      0.111200
     37 HAQ         2.4020   -2.4550    9.1230 h4        1 GVS      0.222000
     38 HAA1        4.5180    2.5720    9.7990 hn        1 GVS      0.483133
     39 HAA2        4.1380    1.9150    8.2960 hn        1 GVS      0.483133
     40 HAS1        2.2440   -2.0680   13.4780 h1        1 GVS      0.087950
     41 HAS2        3.0630   -3.6900   13.8000 h1        1 GVS      0.087950
     42 HBA1        1.7850   -4.9030   10.9570 h1        1 GVS      0.087950
     43 HBA2        0.9570   -3.2840   10.6380 h1        1 GVS      0.087950
     44 HAU1        5.1430   -3.5920   12.0010 hc        1 GVS      0.126700
     45 HAU2        4.0130   -5.0080   12.0430 hc        1 GVS      0.126700
     46 HAX1        5.0660   -6.1370    8.1130 h1        1 GVS      0.051200
     47 HAX2        6.4280   -4.9170    8.1810 h1        1 GVS      0.051200
     48 HAY1        7.8210   -6.5620    9.5220 hc        1 GVS      0.064367
     49 HAY2        6.4730   -7.7690    9.4540 hc        1 GVS      0.064367
     50 HAY3        7.3240   -7.2750    7.9240 hc        1 GVS      0.064367
     51 HAH2        2.8860   -1.2530    4.2930 hn        1 GVS      0.409300
     52 HAA3        2.9190    2.4960    9.2950 hn        1 GVS      0.483133
@<TRIPOS>BOND
     1    1    2 1   
     2    1    3 1   
     3    1   29 1   
     4    1   30 1   
     5    2    3 1   
     6    2   31 1   
     7    2   32 1   
     8    3    4 1   
     9    3   33 1   
    10    4    5 1   
    11    4    6 1   
    12    7    8 1   
    13    7   34 1   
    14    7   51 1   
    15    8    9 1   
    16    8   35 1   
    17    8   36 1   
    18    9   10 3   
    19   10   11 1   
    20   11   12 2   
    21   11   13 1   
    22   12   18 1   
    23   12   37 1   
    24   13   14 1   
    25   13   15 2   
    26   14   38 1   
    27   14   39 1   
    28   14   52 1   
    29   15   16 1   
    30   16   17 2   
    31   16   18 1   
    32   18   19 1   
    33   19   20 1   
    34   19   22 1   
    35   19   23 1   
    36   20   21 1   
    37   20   40 1   
    38   20   41 1   
    39   21   22 1   
    40   22   42 1   
    41   22   43 1   
    42   23   24 1   
    43   23   44 1   
    44   23   45 1   
    45   24   25 2   
    46   24   26 1   
    47   26   27 1   
    48   27   28 1   
    49   27   46 1   
    50   27   47 1   
    51   28   48 1   
    52   28   49 1   
    53   28   50 1   
@<TRIPOS>SUBSTRUCTURE
     1 GVS         1 TEMP              0 ****  ****    0 ROOT
