@<TRIPOS>MOLECULE
GVS
   50    52     1     0     0
SMALL
bcc


@<TRIPOS>ATOM
      1 CAE        -6.8610   -1.2470    0.4940 cx        1 GVS     -0.053900
      2 CAO        -6.5750   -1.3610   -0.9610 cx        1 GVS     -0.053900
      3 CAF        -6.4340   -0.0180   -0.2810 cx        1 GVS     -0.417900
      4 SAG        -4.9700    0.7770    0.0240 s6        1 GVS      1.505900
      5 OAP        -5.2450    2.0830    0.4590 o         1 GVS     -0.667300
      6 OAB        -4.1970    0.0010    0.9150 o         1 GVS     -0.667300
      7 NAH        -4.3170    0.7860   -1.4600 n3        1 GVS     -0.919100
      8 CAI        -3.0900    1.4780   -1.7550 c3        1 GVS      0.312900
      9 CAJ        -1.9190    0.8310   -1.2080 c1        1 GVS     -0.202100
     10 CAK        -0.9830    0.2800   -0.7030 cg        1 GVS     -0.080300
     11 CAL         0.0680   -0.3760   -0.0590 cc        1 GVS     -0.250300
     12 CAQ         1.3470   -0.3960   -0.5850 cd        1 GVS      0.105600
     13 CAC        -0.1600   -1.0650    1.2270 cc        1 GVS      0.786500
     14 NAA        -1.4220   -1.1090    1.7430 nh        1 GVS     -0.903800
     15 NAD         0.8560   -1.6570    1.8940 nd        1 GVS     -0.744100
     16 CAM         2.1360   -1.6440    1.3540 c         1 GVS      0.842900
     17 OAN         3.1280   -2.1320    1.9320 o         1 GVS     -0.629500
     18 NAR         2.3730   -1.0390    0.0480 n         1 GVS     -0.374000
     19 CAT         3.6950   -1.0810   -0.5350 cy        1 GVS      0.062400
     20 CAS         4.4210   -2.4820   -0.5080 cy        1 GVS      0.125400
     21 OAZ         4.5030   -2.4940   -1.9600 os        1 GVS     -0.421600
     22 CBA         3.7800   -1.2450   -2.1000 cy        1 GVS      0.125400
     23 CAU         4.6240    0.0130   -0.0120 c3        1 GVS     -0.142400
     24 CAV         4.1720    1.3870   -0.3960 c         1 GVS      0.638100
     25 OBB         3.3460    1.7200   -1.2510 o         1 GVS     -0.567000
     26 OAW         4.8060    2.3640    0.3130 os        1 GVS     -0.433900
     27 CAX         4.4410    3.7240    0.0070 c3        1 GVS      0.139400
     28 CAY         5.2600    4.5950    0.9280 c3        1 GVS     -0.101100
     29 HAE1       -7.9040   -1.3000    0.8530 hc        1 GVS      0.088700
     30 HAE2       -6.1420   -1.6680    1.2250 hc        1 GVS      0.088700
     31 HAO1       -5.6590   -1.8840   -1.2940 hc        1 GVS      0.088700
     32 HAO2       -7.4110   -1.5000   -1.6720 hc        1 GVS      0.088700
     33 HAF        -7.2500    0.7110   -0.5000 h1        1 GVS      0.143700
     34 HAH        -4.6480    0.2170   -2.1990 hn        1 GVS      0.448800
     35 HAI1       -2.9730    1.5730   -2.8760 h1        1 GVS      0.077200
     36 HAI2       -3.1590    2.5290   -1.3310 h1        1 GVS      0.077200
     37 HAQ         1.5830    0.1340   -1.5330 h4        1 GVS      0.186000
     38 HAA1       -2.1680   -0.6320    1.2860 hn        1 GVS      0.463800
     39 HAA2       -1.5940   -1.5330    2.6220 hn        1 GVS      0.463800
     40 HAS1        5.4350   -2.4670   -0.0570 h1        1 GVS      0.075200
     41 HAS2        3.8120   -3.3360   -0.1420 h1        1 GVS      0.075200
     42 HBA1        2.8190   -1.4190   -2.6310 h1        1 GVS      0.075200
     43 HBA2        4.4050   -0.4790   -2.6070 h1        1 GVS      0.075200
     44 HAU1        4.7040   -0.0600    1.1080 hc        1 GVS      0.107200
     45 HAU2        5.6500   -0.1440   -0.4420 hc        1 GVS      0.107200
     46 HAX1        4.6680    3.9210   -1.0730 h1        1 GVS      0.052700
     47 HAX2        3.3400    3.8460    0.1800 h1        1 GVS      0.052700
     48 HAY1        5.0100    5.6650    0.7330 hc        1 GVS      0.050367
     49 HAY2        5.0380    4.3550    1.9950 hc        1 GVS      0.050367
     50 HAY3        6.3510    4.4350    0.7520 hc        1 GVS      0.050367
@<TRIPOS>BOND
     1    1    2 1   
     2    1    3 1   
     3    1   29 1   
     4    1   30 1   
     5    2    3 1   
     6    2   31 1   
     7    2   32 1   
     8    3    4 1   
     9    3   33 1   
    10    4    5 2   
    11    4    6 2   
    12    4    7 1   
    13    7    8 1   
    14    7   34 1   
    15    8    9 1   
    16    8   35 1   
    17    8   36 1   
    18    9   10 3   
    19   10   11 1   
    20   11   12 2   
    21   11   13 1   
    22   12   18 1   
    23   12   37 1   
    24   13   14 1   
    25   13   15 2   
    26   14   38 1   
    27   14   39 1   
    28   15   16 1   
    29   16   17 2   
    30   16   18 1   
    31   18   19 1   
    32   19   20 1   
    33   19   22 1   
    34   19   23 1   
    35   20   21 1   
    36   20   40 1   
    37   20   41 1   
    38   21   22 1   
    39   22   42 1   
    40   22   43 1   
    41   23   24 1   
    42   23   44 1   
    43   23   45 1   
    44   24   25 2   
    45   24   26 1   
    46   26   27 1   
    47   27   28 1   
    48   27   46 1   
    49   27   47 1   
    50   28   48 1   
    51   28   49 1   
    52   28   50 1   
@<TRIPOS>SUBSTRUCTURE
     1 GVS         1 TEMP              0 ****  ****    0 ROOT
