@<TRIPOS>MOLECULE
GVT
   96    95     1     0     0
SMALL
bcc


@<TRIPOS>ATOM
      1 C3        -20.5380    0.5520   -2.4890 c3        1 GVT     -0.092100
      2 C4        -19.3970    1.2730   -1.8190 c3        1 GVT     -0.080400
      3 C5        -18.1840    0.3790   -1.6710 c3        1 GVT     -0.079400
      4 C6        -17.0410    1.1070   -0.9970 c3        1 GVT     -0.079400
      5 C7        -15.8300    0.2110   -0.8500 c3        1 GVT     -0.079400
      6 C8        -14.6870    0.9390   -0.1760 c3        1 GVT     -0.079400
      7 C9        -13.4760    0.0430   -0.0280 c3        1 GVT     -0.078400
      8 C10       -12.3330    0.7710    0.6460 c3        1 GVT     -0.078400
      9 C11       -11.1250   -0.1280    0.7910 c3        1 GVT     -0.083400
     10 C12        -9.9890    0.6170    1.4690 c3        1 GVT      0.132400
     11 O13        -8.8990   -0.2990    1.5620 os        1 GVT     -0.428600
     12 C14        -7.7640    0.2780    2.2040 c3        1 GVT      0.126400
     13 C15        -6.6390   -0.7470    2.0950 c3        1 GVT      0.127400
     14 O16        -5.6710   -0.1910    1.2090 os        1 GVT     -0.429600
     15 C17        -4.6390   -1.1210    0.8850 c3        1 GVT      0.127400
     16 C18        -3.5950   -0.3480    0.0860 c3        1 GVT      0.127400
     17 O19        -2.4710   -0.1750    0.9470 os        1 GVT     -0.429600
     18 C20        -1.4800    0.6760    0.3770 c3        1 GVT      0.127400
     19 C21        -0.2760    0.6270    1.3120 c3        1 GVT      0.127400
     20 O22         0.7250   -0.1370    0.6440 os        1 GVT     -0.429600
     21 C23         1.8500   -0.4020    1.4800 c3        1 GVT      0.127400
     22 C24         2.9020   -1.0610    0.5940 c3        1 GVT      0.127400
     23 O25         3.9250   -0.0890    0.3880 os        1 GVT     -0.429600
     24 C26         4.8980   -0.5210   -0.5610 c3        1 GVT      0.127400
     25 C27         6.0100    0.5220   -0.5480 c3        1 GVT      0.127400
     26 O28         7.1230   -0.0800    0.1090 os        1 GVT     -0.429600
     27 C29         8.1830    0.8470    0.3360 c3        1 GVT      0.127400
     28 C30         9.3580    0.0380    0.8740 c3        1 GVT      0.127400
     29 O31        10.3180   -0.0310   -0.1790 os        1 GVT     -0.429600
     30 C32        11.4010   -0.9040    0.1340 c3        1 GVT      0.127400
     31 C33        12.4220   -0.7470   -0.9880 c3        1 GVT      0.127400
     32 O34        13.5090    0.0020   -0.4450 os        1 GVT     -0.428600
     33 C35        14.4630    0.3660   -1.4400 c3        1 GVT      0.127400
     34 C36        15.6360    1.0030   -0.7010 c3        1 GVT      0.128400
     35 O37        16.7010    0.0540   -0.7370 os        1 GVT     -0.438600
     36 C38        17.8080    0.4510    0.0700 c3        1 GVT      0.087400
     37 C39        18.8750   -0.6230   -0.1180 c3        1 GVT      0.131400
     38 OXT        19.3750   -0.6340   -1.4380 oh        1 GVT     -0.600800
     39 H3C1      -20.2410    0.2080   -3.5100 hc        1 GVT      0.032700
     40 H3C2      -20.8440   -0.3420   -1.8940 hc        1 GVT      0.032700
     41 H3C3      -21.4200    1.2290   -2.5880 hc        1 GVT      0.032700
     42 H4C1      -19.1200    2.1810   -2.4180 hc        1 GVT      0.038700
     43 H4C2      -19.7210    1.6330   -0.8060 hc        1 GVT      0.038700
     44 H5C1      -18.4590   -0.5290   -1.0710 hc        1 GVT      0.039700
     45 H5C2      -17.8580    0.0190   -2.6820 hc        1 GVT      0.039700
     46 H6C1      -16.7670    2.0140   -1.5970 hc        1 GVT      0.039700
     47 H6C2      -17.3680    1.4660    0.0140 hc        1 GVT      0.039700
     48 H7C1      -16.1040   -0.6970   -0.2490 hc        1 GVT      0.039700
     49 H7C2      -15.5030   -0.1490   -1.8610 hc        1 GVT      0.039700
     50 H8C1      -14.4130    1.8460   -0.7760 hc        1 GVT      0.039700
     51 H8C2      -15.0140    1.2990    0.8360 hc        1 GVT      0.039700
     52 H9C1      -13.7500   -0.8650    0.5720 hc        1 GVT      0.041700
     53 H9C2      -13.1480   -0.3160   -1.0390 hc        1 GVT      0.041700
     54 H101      -12.0590    1.6790    0.0450 hc        1 GVT      0.040200
     55 H102      -12.6610    1.1310    1.6570 hc        1 GVT      0.040200
     56 H111      -11.3870   -1.0350    1.3950 hc        1 GVT      0.054700
     57 H112      -10.7850   -0.4860   -0.2150 hc        1 GVT      0.054700
     58 H121       -9.6780    1.5120    0.8670 h1        1 GVT      0.025700
     59 H122      -10.2860    0.9550    2.4980 h1        1 GVT      0.025700
     60 H141       -7.4780    1.2380    1.7000 h1        1 GVT      0.041700
     61 H142       -8.0110    0.4770    3.2800 h1        1 GVT      0.041700
     62 H151       -6.1650   -0.9190    3.0970 h1        1 GVT      0.043200
     63 H152       -7.0250   -1.7200    1.6890 h1        1 GVT      0.043200
     64 H171       -4.1900   -1.5450    1.8220 h1        1 GVT      0.043700
     65 H172       -5.0720   -1.9500    0.2650 h1        1 GVT      0.043700
     66 H181       -3.2800   -0.9350   -0.8170 h1        1 GVT      0.043700
     67 H182       -3.9960    0.6500   -0.2340 h1        1 GVT      0.043700
     68 H201       -1.2020    0.3170   -0.6490 h1        1 GVT      0.043700
     69 H202       -1.8840    1.7210    0.3140 h1        1 GVT      0.043700
     70 H211        0.1150    1.6610    1.5010 h1        1 GVT      0.043700
     71 H212       -0.5490    0.1420    2.2870 h1        1 GVT      0.043700
     72 H231        2.2410    0.5540    1.9190 h1        1 GVT      0.043200
     73 H232        1.5410   -1.0970    2.3040 h1        1 GVT      0.043200
     74 H241        3.3430   -1.9550    1.1090 h1        1 GVT      0.043700
     75 H242        2.4580   -1.3710   -0.3890 h1        1 GVT      0.043700
     76 H261        5.2960   -1.5310   -0.2780 h1        1 GVT      0.043700
     77 H262        4.4230   -0.5740   -1.5760 h1        1 GVT      0.043700
     78 H271        6.3040    0.7940   -1.5960 h1        1 GVT      0.043700
     79 H272        5.6850    1.4440    0.0040 h1        1 GVT      0.043700
     80 H291        8.4590    1.3630   -0.6220 h1        1 GVT      0.043200
     81 H292        7.8510    1.6060    1.0920 h1        1 GVT      0.043200
     82 H301        9.8180    0.5550    1.7570 h1        1 GVT      0.043700
     83 H302        9.0300   -0.9940    1.1680 h1        1 GVT      0.043700
     84 H321       11.8510   -0.6250    1.1240 h1        1 GVT      0.043700
     85 H322       11.0240   -1.9590    0.1740 h1        1 GVT      0.043700
     86 H331       12.7970   -1.7510   -1.3190 h1        1 GVT      0.044200
     87 H332       11.9740   -0.2040   -1.8610 h1        1 GVT      0.044200
     88 H351       14.7950   -0.5410   -2.0100 h1        1 GVT      0.043200
     89 H352       13.9980    1.1050   -2.1440 h1        1 GVT      0.043200
     90 H361       15.9640    1.9410   -1.2210 h1        1 GVT      0.045200
     91 H362       15.3580    1.2350    0.3610 h1        1 GVT      0.045200
     92 H381       18.1840    1.4510   -0.2700 h1        1 GVT      0.039200
     93 H382       17.4930    0.5110    1.1450 h1        1 GVT      0.039200
     94 H391       19.7620   -0.3930    0.5300 h1        1 GVT      0.053200
     95 H392       18.4560   -1.6300    0.1460 h1        1 GVT      0.053200
     96 HXT        18.6180   -0.7640   -2.0240 ho        1 GVT      0.412000
@<TRIPOS>BOND
     1    1    2 1   
     2    1   39 1   
     3    1   40 1   
     4    1   41 1   
     5    2    3 1   
     6    2   42 1   
     7    2   43 1   
     8    3    4 1   
     9    3   44 1   
    10    3   45 1   
    11    4    5 1   
    12    4   46 1   
    13    4   47 1   
    14    5    6 1   
    15    5   48 1   
    16    5   49 1   
    17    6    7 1   
    18    6   50 1   
    19    6   51 1   
    20    7    8 1   
    21    7   52 1   
    22    7   53 1   
    23    8    9 1   
    24    8   54 1   
    25    8   55 1   
    26    9   10 1   
    27    9   56 1   
    28    9   57 1   
    29   10   11 1   
    30   10   58 1   
    31   10   59 1   
    32   11   12 1   
    33   12   13 1   
    34   12   60 1   
    35   12   61 1   
    36   13   14 1   
    37   13   62 1   
    38   13   63 1   
    39   14   15 1   
    40   15   16 1   
    41   15   64 1   
    42   15   65 1   
    43   16   17 1   
    44   16   66 1   
    45   16   67 1   
    46   17   18 1   
    47   18   19 1   
    48   18   68 1   
    49   18   69 1   
    50   19   20 1   
    51   19   70 1   
    52   19   71 1   
    53   20   21 1   
    54   21   22 1   
    55   21   72 1   
    56   21   73 1   
    57   22   23 1   
    58   22   74 1   
    59   22   75 1   
    60   23   24 1   
    61   24   25 1   
    62   24   76 1   
    63   24   77 1   
    64   25   26 1   
    65   25   78 1   
    66   25   79 1   
    67   26   27 1   
    68   27   28 1   
    69   27   80 1   
    70   27   81 1   
    71   28   29 1   
    72   28   82 1   
    73   28   83 1   
    74   29   30 1   
    75   30   31 1   
    76   30   84 1   
    77   30   85 1   
    78   31   32 1   
    79   31   86 1   
    80   31   87 1   
    81   32   33 1   
    82   33   34 1   
    83   33   88 1   
    84   33   89 1   
    85   34   35 1   
    86   34   90 1   
    87   34   91 1   
    88   35   36 1   
    89   36   37 1   
    90   36   92 1   
    91   36   93 1   
    92   37   38 1   
    93   37   94 1   
    94   37   95 1   
    95   38   96 1   
@<TRIPOS>SUBSTRUCTURE
     1 GVT         1 TEMP              0 ****  ****    0 ROOT
