@<TRIPOS>MOLECULE
GVT
   96    95     1     0     0
SMALL
bcc


@<TRIPOS>ATOM
      1 C3         -1.6350    4.4890    0.9990 c3        1 GVT     -0.092100
      2 C4         -0.7520    3.2740    0.8770 c3        1 GVT     -0.080400
      3 C5          0.4970    3.4080    1.7220 c3        1 GVT     -0.079400
      4 C6          1.3800    2.1850    1.5970 c3        1 GVT     -0.079400
      5 C7          2.6290    2.3200    2.4420 c3        1 GVT     -0.079400
      6 C8          3.5120    1.0970    2.3170 c3        1 GVT     -0.079400
      7 C9          4.7600    1.2330    3.1620 c3        1 GVT     -0.078400
      8 C10         5.6440    0.0100    3.0350 c3        1 GVT     -0.078400
      9 C11         6.8900    0.1490    3.8810 c3        1 GVT     -0.083400
     10 C12         7.7650   -1.0840    3.7430 c3        1 GVT      0.132400
     11 O13         8.9070   -0.8690    4.5690 os        1 GVT     -0.428600
     12 C14         9.8260   -1.9580    4.5120 c3        1 GVT      0.126400
     13 C15        10.9060   -1.6670    5.5490 c3        1 GVT      0.127400
     14 O16        10.7460   -2.6380    6.5810 os        1 GVT     -0.429600
     15 C17        11.5960   -2.3830    7.6980 c3        1 GVT      0.127400
     16 C18        11.4520   -3.5790    8.6330 c3        1 GVT      0.127400
     17 O19        12.6560   -4.3340    8.5130 os        1 GVT     -0.429600
     18 C20        12.5860   -5.5760    9.2120 c3        1 GVT      0.127400
     19 C21        13.9790   -6.1920    9.1400 c3        1 GVT      0.127400
     20 O22        14.5360   -6.0890   10.4490 os        1 GVT     -0.429600
     21 C23        15.9050   -6.4860   10.4860 c3        1 GVT      0.127400
     22 C24        16.3110   -6.5060   11.9570 c3        1 GVT      0.127400
     23 O25        16.4190   -7.8780   12.3290 os        1 GVT     -0.429600
     24 C26        16.6390   -8.0420   13.7280 c3        1 GVT      0.127400
     25 C27        16.9040   -9.5270   13.9530 c3        1 GVT      0.127400
     26 O28        18.2990   -9.6540   14.2230 os        1 GVT     -0.429600
     27 C29        18.7150  -11.0170   14.2850 c3        1 GVT      0.127400
     28 C30        20.1680  -11.0050   14.7480 c3        1 GVT      0.127400
     29 O31        20.1680  -11.4800   16.0930 os        1 GVT     -0.429600
     30 C32        21.4510  -11.3680   16.7050 c3        1 GVT      0.127400
     31 C33        21.3480  -12.0670   18.0570 c3        1 GVT      0.127400
     32 O34        22.0470  -13.3030   17.9290 os        1 GVT     -0.428600
     33 C35        21.8860  -14.1370   19.0740 c3        1 GVT      0.127400
     34 C36        22.8100  -15.3330   18.8730 c3        1 GVT      0.128400
     35 O37        23.9040  -15.1560   19.7710 os        1 GVT     -0.438600
     36 C38        24.9370  -16.1180   19.5650 c3        1 GVT      0.087400
     37 C39        25.9940  -15.8380   20.6280 c3        1 GVT      0.131400
     38 OXT        25.5090  -16.1010   21.9280 oh        1 GVT     -0.600800
     39 H3C1       -1.0920    5.4060    0.6630 hc        1 GVT      0.032700
     40 H3C2       -1.9550    4.6400    2.0580 hc        1 GVT      0.032700
     41 H3C3       -2.5490    4.3700    0.3680 hc        1 GVT      0.032700
     42 H4C1       -1.3220    2.3610    1.1950 hc        1 GVT      0.038700
     43 H4C2       -0.4630    3.1250   -0.1970 hc        1 GVT      0.038700
     44 H5C1        0.2090    3.5560    2.7960 hc        1 GVT      0.039700
     45 H5C2        1.0690    4.3190    1.4050 hc        1 GVT      0.039700
     46 H6C1        0.8080    1.2740    1.9150 hc        1 GVT      0.039700
     47 H6C2        1.6670    2.0360    0.5230 hc        1 GVT      0.039700
     48 H7C1        3.2010    3.2320    2.1240 hc        1 GVT      0.039700
     49 H7C2        2.3420    2.4690    3.5160 hc        1 GVT      0.039700
     50 H8C1        2.9390    0.1860    2.6350 hc        1 GVT      0.039700
     51 H8C2        3.7980    0.9490    1.2420 hc        1 GVT      0.039700
     52 H9C1        5.3330    2.1440    2.8440 hc        1 GVT      0.041700
     53 H9C2        4.4740    1.3810    4.2360 hc        1 GVT      0.041700
     54 H101        5.0710   -0.9010    3.3540 hc        1 GVT      0.040200
     55 H102        5.9300   -0.1370    1.9610 hc        1 GVT      0.040200
     56 H111        7.4720    1.0550    3.5680 hc        1 GVT      0.054700
     57 H112        6.6150    0.2890    4.9590 hc        1 GVT      0.054700
     58 H121        8.0920   -1.2290    2.6790 h1        1 GVT      0.025700
     59 H122        7.2210   -2.0040    4.0850 h1        1 GVT      0.025700
     60 H141        9.3020   -2.9220    4.7430 h1        1 GVT      0.041700
     61 H142       10.2730   -2.0100    3.4840 h1        1 GVT      0.041700
     62 H151       10.7880   -0.6320    5.9680 h1        1 GVT      0.043200
     63 H152       11.9270   -1.7750    5.0960 h1        1 GVT      0.043200
     64 H171       11.2580   -1.4440    8.2100 h1        1 GVT      0.043200
     65 H172       12.6590   -2.2670    7.3590 h1        1 GVT      0.043200
     66 H181       10.5680   -4.2070    8.3440 h1        1 GVT      0.043700
     67 H182       11.3390   -3.2340    9.6950 h1        1 GVT      0.043700
     68 H201       12.2800   -5.4040   10.2780 h1        1 GVT      0.043700
     69 H202       11.8370   -6.2410    8.7070 h1        1 GVT      0.043700
     70 H211       13.9150   -7.2740    8.8520 h1        1 GVT      0.043700
     71 H212       14.6210   -5.6420    8.4010 h1        1 GVT      0.043700
     72 H231       16.0280   -7.5020   10.0260 h1        1 GVT      0.043200
     73 H232       16.5200   -5.7380    9.9210 h1        1 GVT      0.043200
     74 H241       15.5400   -5.9910   12.5900 h1        1 GVT      0.043700
     75 H242       17.3060   -6.0070   12.0940 h1        1 GVT      0.043700
     76 H261       17.5170   -7.4260   14.0580 h1        1 GVT      0.043200
     77 H262       15.7200   -7.7200   14.2860 h1        1 GVT      0.043200
     78 H271       16.6280  -10.1230   13.0430 h1        1 GVT      0.043700
     79 H272       16.3230   -9.8990   14.8380 h1        1 GVT      0.043700
     80 H291       18.0710  -11.5870   15.0060 h1        1 GVT      0.043200
     81 H292       18.6340  -11.4730   13.2640 h1        1 GVT      0.043200
     82 H301       20.5920   -9.9670   14.7030 h1        1 GVT      0.043700
     83 H302       20.7860  -11.6940   14.1150 h1        1 GVT      0.043700
     84 H321       21.7000  -10.2830   16.8440 h1        1 GVT      0.043700
     85 H322       22.2310  -11.8560   16.0630 h1        1 GVT      0.043700
     86 H331       21.8380  -11.4490   18.8550 h1        1 GVT      0.044200
     87 H332       20.2760  -12.2530   18.3290 h1        1 GVT      0.044200
     88 H351       20.8170  -14.4750   19.1360 h1        1 GVT      0.043200
     89 H352       22.1580  -13.5740   20.0060 h1        1 GVT      0.043200
     90 H361       23.1810  -15.3760   17.8140 h1        1 GVT      0.045200
     91 H362       22.2780  -16.2870   19.1270 h1        1 GVT      0.045200
     92 H381       25.3690  -15.9980   18.5370 h1        1 GVT      0.039200
     93 H382       24.5180  -17.1520   19.6820 h1        1 GVT      0.039200
     94 H391       26.3410  -14.7740   20.5530 h1        1 GVT      0.053200
     95 H392       26.8620  -16.5370   20.4930 h1        1 GVT      0.053200
     96 HXT        24.7180  -15.5590   22.0470 ho        1 GVT      0.412000
@<TRIPOS>BOND
     1    1    2 1   
     2    1   39 1   
     3    1   40 1   
     4    1   41 1   
     5    2    3 1   
     6    2   42 1   
     7    2   43 1   
     8    3    4 1   
     9    3   44 1   
    10    3   45 1   
    11    4    5 1   
    12    4   46 1   
    13    4   47 1   
    14    5    6 1   
    15    5   48 1   
    16    5   49 1   
    17    6    7 1   
    18    6   50 1   
    19    6   51 1   
    20    7    8 1   
    21    7   52 1   
    22    7   53 1   
    23    8    9 1   
    24    8   54 1   
    25    8   55 1   
    26    9   10 1   
    27    9   56 1   
    28    9   57 1   
    29   10   11 1   
    30   10   58 1   
    31   10   59 1   
    32   11   12 1   
    33   12   13 1   
    34   12   60 1   
    35   12   61 1   
    36   13   14 1   
    37   13   62 1   
    38   13   63 1   
    39   14   15 1   
    40   15   16 1   
    41   15   64 1   
    42   15   65 1   
    43   16   17 1   
    44   16   66 1   
    45   16   67 1   
    46   17   18 1   
    47   18   19 1   
    48   18   68 1   
    49   18   69 1   
    50   19   20 1   
    51   19   70 1   
    52   19   71 1   
    53   20   21 1   
    54   21   22 1   
    55   21   72 1   
    56   21   73 1   
    57   22   23 1   
    58   22   74 1   
    59   22   75 1   
    60   23   24 1   
    61   24   25 1   
    62   24   76 1   
    63   24   77 1   
    64   25   26 1   
    65   25   78 1   
    66   25   79 1   
    67   26   27 1   
    68   27   28 1   
    69   27   80 1   
    70   27   81 1   
    71   28   29 1   
    72   28   82 1   
    73   28   83 1   
    74   29   30 1   
    75   30   31 1   
    76   30   84 1   
    77   30   85 1   
    78   31   32 1   
    79   31   86 1   
    80   31   87 1   
    81   32   33 1   
    82   33   34 1   
    83   33   88 1   
    84   33   89 1   
    85   34   35 1   
    86   34   90 1   
    87   34   91 1   
    88   35   36 1   
    89   36   37 1   
    90   36   92 1   
    91   36   93 1   
    92   37   38 1   
    93   37   94 1   
    94   37   95 1   
    95   38   96 1   
@<TRIPOS>SUBSTRUCTURE
     1 GVT         1 TEMP              0 ****  ****    0 ROOT
