@<TRIPOS>MOLECULE
GVT
   96    95     1     0     0
SMALL
bcc


@<TRIPOS>ATOM
      1 C3         -1.5680    4.6680    1.1110 c3        1 GVT     -0.092100
      2 C4         -0.7100    3.4380    0.9650 c3        1 GVT     -0.080400
      3 C5          0.5500    3.5370    1.7990 c3        1 GVT     -0.079400
      4 C6          1.4090    2.3000    1.6490 c3        1 GVT     -0.079400
      5 C7          2.6680    2.4010    2.4830 c3        1 GVT     -0.079400
      6 C8          3.5260    1.1630    2.3330 c3        1 GVT     -0.079400
      7 C9          4.7850    1.2640    3.1670 c3        1 GVT     -0.078400
      8 C10         5.6440    0.0270    3.0170 c3        1 GVT     -0.078400
      9 C11         6.9010    0.1320    3.8520 c3        1 GVT     -0.083400
     10 C12         7.7510   -1.1160    3.6910 c3        1 GVT      0.132400
     11 O13         8.9050   -0.9320    4.5080 os        1 GVT     -0.428600
     12 C14         9.8030   -2.0370    4.4290 c3        1 GVT      0.126400
     13 C15        10.8990   -1.7770    5.4580 c3        1 GVT      0.127400
     14 O16        10.7310   -2.7560    6.4820 os        1 GVT     -0.429600
     15 C17        11.5900   -2.5240    7.5960 c3        1 GVT      0.127400
     16 C18        11.4340   -3.7260    8.5210 c3        1 GVT      0.127400
     17 O19        12.6330   -4.4890    8.4000 os        1 GVT     -0.429600
     18 C20        12.5540   -5.7330    9.0930 c3        1 GVT      0.127400
     19 C21        13.9460   -6.3530    9.0300 c3        1 GVT      0.127400
     20 O22        14.4990   -6.2410   10.3400 os        1 GVT     -0.429600
     21 C23        15.8680   -6.6370   10.3830 c3        1 GVT      0.127400
     22 C24        16.2730   -6.6380   11.8540 c3        1 GVT      0.127400
     23 O25        16.3920   -8.0060   12.2400 os        1 GVT     -0.429600
     24 C26        16.6070   -8.1540   13.6420 c3        1 GVT      0.127400
     25 C27        16.8920   -9.6330   13.8830 c3        1 GVT      0.127400
     26 O28        18.2850   -9.7360   14.1700 os        1 GVT     -0.429600
     27 C29        18.7200  -11.0910   14.2550 c3        1 GVT      0.127400
     28 C30        20.1660  -11.0520   14.7370 c3        1 GVT      0.127400
     29 O31        20.1550  -11.4980   16.0910 os        1 GVT     -0.429600
     30 C32        21.4270  -11.3520   16.7190 c3        1 GVT      0.127400
     31 C33        21.3150  -12.0190   18.0850 c3        1 GVT      0.127400
     32 O34        22.0440  -13.2430   18.0000 os        1 GVT     -0.428600
     33 C35        21.8800  -14.0510   19.1630 c3        1 GVT      0.127400
     34 C36        22.8370  -15.2290   19.0080 c3        1 GVT      0.128400
     35 O37        23.9090  -15.0040   19.9220 os        1 GVT     -0.438600
     36 C38        24.9670  -15.9450   19.7590 c3        1 GVT      0.087400
     37 C39        25.9970  -15.6140   20.8340 c3        1 GVT      0.131400
     38 OXT        25.4930  -15.8570   22.1310 oh        1 GVT     -0.600800
     39 H3C1       -1.0120    5.5780    0.7810 hc        1 GVT      0.032700
     40 H3C2       -1.8740    4.8110    2.1760 hc        1 GVT      0.032700
     41 H3C3       -2.4910    4.5740    0.4890 hc        1 GVT      0.032700
     42 H4C1       -1.2940    2.5320    1.2770 hc        1 GVT      0.038700
     43 H4C2       -0.4340    3.2970   -0.1130 hc        1 GVT      0.038700
     44 H5C1        0.2760    3.6770    2.8780 hc        1 GVT      0.039700
     45 H5C2        1.1350    4.4420    1.4870 hc        1 GVT      0.039700
     46 H6C1        0.8230    1.3950    1.9600 hc        1 GVT      0.039700
     47 H6C2        1.6820    2.1600    0.5700 hc        1 GVT      0.039700
     48 H7C1        3.2540    3.3050    2.1720 hc        1 GVT      0.039700
     49 H7C2        2.3940    2.5400    3.5620 hc        1 GVT      0.039700
     50 H8C1        2.9400    0.2590    2.6450 hc        1 GVT      0.039700
     51 H8C2        3.8000    1.0240    1.2540 hc        1 GVT      0.039700
     52 H9C1        5.3720    2.1690    2.8560 hc        1 GVT      0.041700
     53 H9C2        4.5120    1.4030    4.2470 hc        1 GVT      0.041700
     54 H101        5.0580   -0.8780    3.3290 hc        1 GVT      0.040200
     55 H102        5.9180   -0.1120    1.9380 hc        1 GVT      0.040200
     56 H111        7.4970    1.0300    3.5440 hc        1 GVT      0.054700
     57 H112        6.6390    0.2640    4.9340 hc        1 GVT      0.054700
     58 H121        8.0650   -1.2540    2.6210 h1        1 GVT      0.025700
     59 H122        7.1930   -2.0300    4.0270 h1        1 GVT      0.025700
     60 H141        9.2620   -2.9940    4.6550 h1        1 GVT      0.041700
     61 H142       10.2380   -2.0870    3.3960 h1        1 GVT      0.041700
     62 H151       10.8050   -0.7450    5.8880 h1        1 GVT      0.043200
     63 H152       11.9120   -1.9020    4.9940 h1        1 GVT      0.043200
     64 H171       11.2700   -1.5840    8.1190 h1        1 GVT      0.043700
     65 H172       12.6530   -2.4210    7.2520 h1        1 GVT      0.043700
     66 H181       10.5470   -4.3460    8.2230 h1        1 GVT      0.043700
     67 H182       11.3190   -3.3890    9.5850 h1        1 GVT      0.043700
     68 H201       12.2400   -5.5650   10.1570 h1        1 GVT      0.043700
     69 H202       11.8070   -6.3940    8.5790 h1        1 GVT      0.043700
     70 H211       13.8790   -7.4380    8.7510 h1        1 GVT      0.043700
     71 H212       14.5900   -5.8110    8.2880 h1        1 GVT      0.043700
     72 H231       15.9920   -7.6590    9.9350 h1        1 GVT      0.043200
     73 H232       16.4840   -5.8960    9.8090 h1        1 GVT      0.043200
     74 H241       15.4970   -6.1240   12.4800 h1        1 GVT      0.043700
     75 H242       17.2640   -6.1300   11.9880 h1        1 GVT      0.043700
     76 H261       17.4740   -7.5220   13.9710 h1        1 GVT      0.043700
     77 H262       15.6810   -7.8390   14.1920 h1        1 GVT      0.043700
     78 H271       16.6360  -10.2410   12.9750 h1        1 GVT      0.043700
     79 H272       16.3060  -10.0060   14.7640 h1        1 GVT      0.043700
     80 H291       18.0750  -11.6620   14.9750 h1        1 GVT      0.043200
     81 H292       18.6580  -11.5620   13.2390 h1        1 GVT      0.043200
     82 H301       20.5790  -10.0110   14.6730 h1        1 GVT      0.043700
     83 H302       20.8010  -11.7480   14.1260 h1        1 GVT      0.043700
     84 H321       21.6570  -10.2600   16.8350 h1        1 GVT      0.043700
     85 H322       22.2240  -11.8420   16.1000 h1        1 GVT      0.043700
     86 H331       21.7770  -11.3710   18.8760 h1        1 GVT      0.044200
     87 H332       20.2420  -12.2230   18.3430 h1        1 GVT      0.044200
     88 H351       20.8190  -14.4130   19.2140 h1        1 GVT      0.043200
     89 H352       22.1220  -13.4590   20.0840 h1        1 GVT      0.043200
     90 H361       23.2280  -15.2890   17.9580 h1        1 GVT      0.045200
     91 H362       22.3220  -16.1890   19.2760 h1        1 GVT      0.045200
     92 H381       25.4160  -15.8400   18.7370 h1        1 GVT      0.039200
     93 H382       24.5720  -16.9860   19.8940 h1        1 GVT      0.039200
     94 H391       26.3200  -14.5430   20.7400 h1        1 GVT      0.053200
     95 H392       26.8840  -16.2940   20.7330 h1        1 GVT      0.053200
     96 HXT        24.6880  -15.3320   22.2220 ho        1 GVT      0.412000
@<TRIPOS>BOND
     1    1    2 1   
     2    1   39 1   
     3    1   40 1   
     4    1   41 1   
     5    2    3 1   
     6    2   42 1   
     7    2   43 1   
     8    3    4 1   
     9    3   44 1   
    10    3   45 1   
    11    4    5 1   
    12    4   46 1   
    13    4   47 1   
    14    5    6 1   
    15    5   48 1   
    16    5   49 1   
    17    6    7 1   
    18    6   50 1   
    19    6   51 1   
    20    7    8 1   
    21    7   52 1   
    22    7   53 1   
    23    8    9 1   
    24    8   54 1   
    25    8   55 1   
    26    9   10 1   
    27    9   56 1   
    28    9   57 1   
    29   10   11 1   
    30   10   58 1   
    31   10   59 1   
    32   11   12 1   
    33   12   13 1   
    34   12   60 1   
    35   12   61 1   
    36   13   14 1   
    37   13   62 1   
    38   13   63 1   
    39   14   15 1   
    40   15   16 1   
    41   15   64 1   
    42   15   65 1   
    43   16   17 1   
    44   16   66 1   
    45   16   67 1   
    46   17   18 1   
    47   18   19 1   
    48   18   68 1   
    49   18   69 1   
    50   19   20 1   
    51   19   70 1   
    52   19   71 1   
    53   20   21 1   
    54   21   22 1   
    55   21   72 1   
    56   21   73 1   
    57   22   23 1   
    58   22   74 1   
    59   22   75 1   
    60   23   24 1   
    61   24   25 1   
    62   24   76 1   
    63   24   77 1   
    64   25   26 1   
    65   25   78 1   
    66   25   79 1   
    67   26   27 1   
    68   27   28 1   
    69   27   80 1   
    70   27   81 1   
    71   28   29 1   
    72   28   82 1   
    73   28   83 1   
    74   29   30 1   
    75   30   31 1   
    76   30   84 1   
    77   30   85 1   
    78   31   32 1   
    79   31   86 1   
    80   31   87 1   
    81   32   33 1   
    82   33   34 1   
    83   33   88 1   
    84   33   89 1   
    85   34   35 1   
    86   34   90 1   
    87   34   91 1   
    88   35   36 1   
    89   36   37 1   
    90   36   92 1   
    91   36   93 1   
    92   37   38 1   
    93   37   94 1   
    94   37   95 1   
    95   38   96 1   
@<TRIPOS>SUBSTRUCTURE
     1 GVT         1 TEMP              0 ****  ****    0 ROOT
