@<TRIPOS>MOLECULE
GVT
   96    95     1     0     0
SMALL
bcc


@<TRIPOS>ATOM
      1 C3          0.4030   17.5800   -3.8020 c3        1 GVT     -0.092100
      2 C4         -0.5480   16.3960   -3.9800 c3        1 GVT     -0.080400
      3 C5          0.2040   15.0760   -3.6890 c3        1 GVT     -0.079400
      4 C6         -0.7730   13.9020   -3.7940 c3        1 GVT     -0.079400
      5 C7          0.0140   12.5650   -3.7160 c3        1 GVT     -0.079400
      6 C8         -0.9630   11.4070   -3.4720 c3        1 GVT     -0.079400
      7 C9         -0.3290   10.0980   -3.9520 c3        1 GVT     -0.078400
      8 C10        -0.8220    8.9320   -3.0740 c3        1 GVT     -0.078400
      9 C11        -0.3070    7.6000   -3.6530 c3        1 GVT     -0.084400
     10 C12        -0.4000    6.5020   -2.5780 c3        1 GVT      0.133400
     11 O13         0.5080    5.4270   -2.9100 os        1 GVT     -0.427600
     12 C14         0.4080    4.3010   -2.0540 c3        1 GVT      0.128400
     13 C15         1.3430    3.1760   -2.5700 c3        1 GVT      0.130400
     14 O16         1.9410    2.5240   -1.4740 os        1 GVT     -0.430600
     15 C17         2.5230    1.2680   -1.7970 c3        1 GVT      0.130400
     16 C18         3.6340    0.9490   -0.7970 c3        1 GVT      0.130400
     17 O19         4.0610   -0.4210   -0.9690 os        1 GVT     -0.430600
     18 C20         4.7640   -0.9830    0.2070 c3        1 GVT      0.130400
     19 C21         5.4610   -2.2990   -0.1910 c3        1 GVT      0.128400
     20 O22         5.3160   -3.2370    0.8500 os        1 GVT     -0.429600
     21 C23         5.8430   -4.5020    0.5540 c3        1 GVT      0.128400
     22 C24         5.7080   -5.4250    1.8040 c3        1 GVT      0.128400
     23 O25         4.7690   -6.4810    1.5250 os        1 GVT     -0.429600
     24 C26         4.6870   -7.4810    2.5680 c3        1 GVT      0.128400
     25 C27         3.8270   -8.6460    2.0920 c3        1 GVT      0.128400
     26 O28         2.7500   -8.8570    3.0180 os        1 GVT     -0.429600
     27 C29         2.1160  -10.1260    2.8840 c3        1 GVT      0.128400
     28 C30         0.9200  -10.2140    3.8640 c3        1 GVT      0.128400
     29 O31        -0.2760  -10.5870    3.1360 os        1 GVT     -0.429600
     30 C32        -1.3690  -10.9250    3.9670 c3        1 GVT      0.128400
     31 C33        -2.6610  -10.8330    3.1700 c3        1 GVT      0.130400
     32 O34        -3.7480  -10.7580    4.0500 os        1 GVT     -0.430600
     33 C35        -5.0120  -10.8370    3.4090 c3        1 GVT      0.130400
     34 C36        -6.1160  -10.7310    4.4500 c3        1 GVT      0.130400
     35 O37        -7.3890  -10.6190    3.7900 os        1 GVT     -0.431600
     36 C38        -8.5220  -10.6150    4.6960 c3        1 GVT      0.129400
     37 C39        -9.8290  -10.4830    3.8870 c3        1 GVT      0.127400
     38 OXT       -10.9220  -10.2810    4.7800 oh        1 GVT     -0.602800
     39 H3C1        1.2290   17.4190   -4.3190 hc        1 GVT      0.032700
     40 H3C2       -0.0290   18.3960   -4.1240 hc        1 GVT      0.032700
     41 H3C3        0.6260   17.6800   -2.8510 hc        1 GVT      0.032700
     42 H4C1       -0.8910   16.3820   -4.9140 hc        1 GVT      0.038700
     43 H4C2       -1.3080   16.4870   -3.3520 hc        1 GVT      0.038700
     44 H5C1        0.9260   14.9600   -4.3430 hc        1 GVT      0.039700
     45 H5C2        0.5800   15.1070   -2.7920 hc        1 GVT      0.039700
     46 H6C1       -1.4170   13.9470   -3.0580 hc        1 GVT      0.039700
     47 H6C2       -1.2520   13.9510   -4.6530 hc        1 GVT      0.039700
     48 H7C1        0.4940   12.4170   -4.5650 hc        1 GVT      0.039700
     49 H7C2        0.6570   12.6080   -2.9800 hc        1 GVT      0.039700
     50 H8C1       -1.7940   11.5690   -3.9690 hc        1 GVT      0.039700
     51 H8C2       -1.1600   11.3430   -2.5170 hc        1 GVT      0.039700
     52 H9C1        0.6420   10.1640   -3.8880 hc        1 GVT      0.041700
     53 H9C2       -0.5830    9.9340   -4.8820 hc        1 GVT      0.041700
     54 H101       -1.8010    8.9260   -3.0600 hc        1 GVT      0.039700
     55 H102       -0.4850    9.0430   -2.1680 hc        1 GVT      0.039700
     56 H111        0.6210    7.7040   -3.9320 hc        1 GVT      0.054700
     57 H112       -0.8470    7.3490   -4.4170 hc        1 GVT      0.054700
     58 H121       -1.3180    6.1570   -2.5410 h1        1 GVT      0.027700
     59 H122       -0.1560    6.8800   -1.7010 h1        1 GVT      0.027700
     60 H141       -0.5000    3.9840   -2.0460 h1        1 GVT      0.039700
     61 H142        0.6750    4.5570   -1.1420 h1        1 GVT      0.039700
     62 H151        2.0440    3.5680   -3.1410 h1        1 GVT      0.041700
     63 H152        0.8250    2.5340   -3.0880 h1        1 GVT      0.041700
     64 H171        1.8370    0.5700   -1.7570 h1        1 GVT      0.041700
     65 H172        2.8990    1.3050   -2.7040 h1        1 GVT      0.041700
     66 H181        4.3880    1.5450   -0.9500 h1        1 GVT      0.042200
     67 H182        3.3010    1.0720    0.1070 h1        1 GVT      0.042200
     68 H201        5.4380   -0.3380    0.5270 h1        1 GVT      0.042700
     69 H202        4.1160   -1.1600    0.9220 h1        1 GVT      0.042700
     70 H211        6.4160   -2.1300   -0.3490 h1        1 GVT      0.041200
     71 H212        5.0520   -2.6520   -1.0090 h1        1 GVT      0.041200
     72 H231        6.7890   -4.4140    0.3150 h1        1 GVT      0.044700
     73 H232        5.3490   -4.8960   -0.2010 h1        1 GVT      0.044700
     74 H241        6.5910   -5.8170    2.0210 h1        1 GVT      0.044700
     75 H242        5.3860   -4.8930    2.5730 h1        1 GVT      0.044700
     76 H261        5.5910   -7.8070    2.7810 h1        1 GVT      0.041200
     77 H262        4.2870   -7.0870    3.3650 h1        1 GVT      0.041200
     78 H271        4.3740   -9.4550    2.0390 h1        1 GVT      0.041700
     79 H272        3.4590   -8.4410    1.2030 h1        1 GVT      0.041700
     80 H291        2.7510  -10.8250    3.0870 h1        1 GVT      0.044700
     81 H292        1.7940  -10.2340    1.9670 h1        1 GVT      0.044700
     82 H301        1.1080  -10.8880    4.5490 h1        1 GVT      0.044700
     83 H302        0.7840   -9.3460    4.2900 h1        1 GVT      0.044700
     84 H321       -1.2560  -11.8360    4.2990 h1        1 GVT      0.041200
     85 H322       -1.4080  -10.2970    4.7320 h1        1 GVT      0.041200
     86 H331       -2.6400  -10.0260    2.6020 h1        1 GVT      0.042700
     87 H332       -2.7530  -11.6290    2.6030 h1        1 GVT      0.042700
     88 H351       -5.0980  -10.1040    2.7670 h1        1 GVT      0.041700
     89 H352       -5.0870  -11.6870    2.9430 h1        1 GVT      0.041700
     90 H361       -5.9650   -9.9390    5.0060 h1        1 GVT      0.042700
     91 H362       -6.1100  -11.5250    5.0080 h1        1 GVT      0.042700
     92 H381       -8.4430   -9.8580    5.3160 h1        1 GVT      0.042700
     93 H382       -8.5370  -11.4510    5.2030 h1        1 GVT      0.042700
     94 H391       -9.7590   -9.7180    3.2750 h1        1 GVT      0.035700
     95 H392       -9.9770  -11.3020    3.3700 h1        1 GVT      0.035700
     96 HXT       -11.6660  -10.1690    4.3160 ho        1 GVT      0.405000
@<TRIPOS>BOND
     1    1    2 1   
     2    1   39 1   
     3    1   40 1   
     4    1   41 1   
     5    2    3 1   
     6    2   42 1   
     7    2   43 1   
     8    3    4 1   
     9    3   44 1   
    10    3   45 1   
    11    4    5 1   
    12    4   46 1   
    13    4   47 1   
    14    5    6 1   
    15    5   48 1   
    16    5   49 1   
    17    6    7 1   
    18    6   50 1   
    19    6   51 1   
    20    7    8 1   
    21    7   52 1   
    22    7   53 1   
    23    8    9 1   
    24    8   54 1   
    25    8   55 1   
    26    9   10 1   
    27    9   56 1   
    28    9   57 1   
    29   10   11 1   
    30   10   58 1   
    31   10   59 1   
    32   11   12 1   
    33   12   13 1   
    34   12   60 1   
    35   12   61 1   
    36   13   14 1   
    37   13   62 1   
    38   13   63 1   
    39   14   15 1   
    40   15   16 1   
    41   15   64 1   
    42   15   65 1   
    43   16   17 1   
    44   16   66 1   
    45   16   67 1   
    46   17   18 1   
    47   18   19 1   
    48   18   68 1   
    49   18   69 1   
    50   19   20 1   
    51   19   70 1   
    52   19   71 1   
    53   20   21 1   
    54   21   22 1   
    55   21   72 1   
    56   21   73 1   
    57   22   23 1   
    58   22   74 1   
    59   22   75 1   
    60   23   24 1   
    61   24   25 1   
    62   24   76 1   
    63   24   77 1   
    64   25   26 1   
    65   25   78 1   
    66   25   79 1   
    67   26   27 1   
    68   27   28 1   
    69   27   80 1   
    70   27   81 1   
    71   28   29 1   
    72   28   82 1   
    73   28   83 1   
    74   29   30 1   
    75   30   31 1   
    76   30   84 1   
    77   30   85 1   
    78   31   32 1   
    79   31   86 1   
    80   31   87 1   
    81   32   33 1   
    82   33   34 1   
    83   33   88 1   
    84   33   89 1   
    85   34   35 1   
    86   34   90 1   
    87   34   91 1   
    88   35   36 1   
    89   36   37 1   
    90   36   92 1   
    91   36   93 1   
    92   37   38 1   
    93   37   94 1   
    94   37   95 1   
    95   38   96 1   
@<TRIPOS>SUBSTRUCTURE
     1 GVT         1 TEMP              0 ****  ****    0 ROOT
