@<TRIPOS>MOLECULE
GW0
   47    49     1     0     0
SMALL
bcc


@<TRIPOS>ATOM
      1 CAA         2.0320   -0.7690   -1.7510 c3        1 GW0     -0.042800
      2 OAC        -0.7440    0.0510    2.2560 o         1 GW0     -0.812800
      3 OAD        -0.4690   -1.9990    3.1290 o         1 GW0     -0.812800
      4 CAI         5.3900   -0.3940    0.8880 ca        1 GW0     -0.032000
      5 CAJ         8.1300    0.6580   -7.6090 ca        1 GW0     -0.121000
      6 CAK         4.1180   -0.5690    1.4160 ca        1 GW0     -0.243000
      7 CAL         8.2130   -0.0850   -8.7810 ca        1 GW0     -0.067000
      8 CAM         4.4860   -0.4590   -1.3510 ca        1 GW0     -0.052000
      9 CAN         8.2090   -1.3820   -6.3030 ca        1 GW0     -0.176000
     10 CAO         1.4930   -0.8490    2.3830 c3        1 GW0     -0.019600
     11 CAP         7.3960    1.5450   -1.4340 c3        1 GW0      0.038000
     12 NAQ         8.3690    2.0760   -5.0280 nc        1 GW0     -0.632000
     13 OAR         1.7270   -0.8510    0.9670 os        1 GW0     -0.271900
     14 SAS         7.1700   -0.2030   -1.1030 ss        1 GW0     -0.222000
     15 SAT         7.4950    0.0610   -3.6590 ss        1 GW0      0.032700
     16 CAU        -0.0510   -0.9430    2.5870 c         1 GW0      0.927600
     17 CAV         3.2020   -0.6340   -0.8550 ca        1 GW0     -0.136300
     18 CAW         8.1800    2.5100   -3.7230 cc        1 GW0      0.353600
     19 CAX         5.5890   -0.3360   -0.4950 ca        1 GW0     -0.132100
     20 CAY         8.2920   -2.1320   -7.4890 ca        1 GW0      0.178900
     21 CAZ         8.1290    0.0150   -6.3610 ca        1 GW0     -0.042500
     22 CBA         3.0110   -0.6860    0.5560 ca        1 GW0      0.203100
     23 CBB         7.7040    1.5240   -2.8600 cd        1 GW0     -0.202700
     24 CBC         8.2950   -1.4780   -8.7380 ca        1 GW0     -0.216300
     25 CBD         8.0390    0.7730   -5.1200 cd        1 GW0      0.341900
     26 CBE         8.3900   -2.2790  -10.0280 c3        1 GW0      0.697200
     27 HAA         1.6310   -1.8130   -1.6970 hc        1 GW0      0.049033
     28 HAAA        1.2160   -0.0780   -1.4180 hc        1 GW0      0.049033
     29 HAAB        2.3000   -0.5380   -2.8100 hc        1 GW0      0.049033
     30 HAB         9.5110    4.1920   -3.5900 hc        1 GW0      0.048700
     31 HABA        8.3330    4.0130   -2.2140 hc        1 GW0      0.048700
     32 HABB        7.7620    4.6100   -3.8340 hc        1 GW0      0.048700
     33 HAI         6.2530   -0.3040    1.5660 ha        1 GW0      0.130000
     34 HAJ         8.0680    1.7570   -7.6620 ha        1 GW0      0.166000
     35 HAK         3.9780   -0.6180    2.5060 ha        1 GW0      0.150000
     36 HAL         8.2130    0.4270   -9.7580 ha        1 GW0      0.154000
     37 HAM         4.6420   -0.4170   -2.4420 ha        1 GW0      0.129000
     38 HAN         8.2120   -1.9060   -5.3340 ha        1 GW0      0.163000
     39 HAO         2.0070   -1.7310    2.8400 h1        1 GW0      0.026700
     40 HAOA        1.8740    0.1060    2.8240 h1        1 GW0      0.026700
     41 HAP         6.4820    2.1420   -1.2000 h1        1 GW0      0.090200
     42 HAPA        8.2400    1.9420   -0.8200 h1        1 GW0      0.090200
     43 FAF         8.3720   -1.5240  -11.1770 f         1 GW0     -0.236633
     44 FAG         7.3730   -3.1840  -10.2140 f         1 GW0     -0.236633
     45 FAH         9.5350   -3.0300  -10.1480 f         1 GW0     -0.236633
     46 CAB         8.4640    3.9070   -3.3190 c3        1 GW0     -0.121400
     47 FAE         8.3720   -3.4800   -7.4170 f         1 GW0     -0.123900
@<TRIPOS>BOND
     1    1   17 1   
     2    1   27 1   
     3    1   28 1   
     4    1   29 1   
     5    2   16 1   
     6    3   16 1   
     7    4    6 ar  
     8    4   19 ar  
     9    4   33 1   
    10    5    7 ar  
    11    5   21 ar  
    12    5   34 1   
    13    6   22 ar  
    14    6   35 1   
    15    7   24 ar  
    16    7   36 1   
    17    8   17 ar  
    18    8   19 ar  
    19    8   37 1   
    20    9   20 ar  
    21    9   21 ar  
    22    9   38 1   
    23   10   13 1   
    24   10   16 1   
    25   10   39 1   
    26   10   40 1   
    27   11   14 1   
    28   11   23 1   
    29   11   41 1   
    30   11   42 1   
    31   12   18 1   
    32   12   25 2   
    33   13   22 1   
    34   14   19 1   
    35   15   23 1   
    36   15   25 1   
    37   17   22 ar  
    38   18   23 2   
    39   18   46 1   
    40   20   24 ar  
    41   20   47 1   
    42   21   25 1   
    43   24   26 1   
    44   26   43 1   
    45   26   44 1   
    46   26   45 1   
    47   30   46 1   
    48   31   46 1   
    49   32   46 1   
@<TRIPOS>SUBSTRUCTURE
     1 GW0         1 TEMP              0 ****  ****    0 ROOT
