@<TRIPOS>MOLECULE
GW0
   47    45     1     0     0
SMALL
bcc


@<TRIPOS>ATOM
      1 CAA        -3.6670   -3.0060    3.0140 c3        1 GW0     -0.168000
      2 CAB         3.8540    2.6320   -0.0470 c3        1 GW0     -0.145000
      3 OAC        -3.9800   -1.7430    8.7710 o         1 GW0     -0.547500
      4 OAD        -5.7620   -2.5020    7.7700 o         1 GW0     -0.547500
      5 FAE         0.7230   -1.0450   -6.8050 f         1 GW0     -0.088000
      6 FAF         3.2540   -0.7340   -8.7240 f         1 GW0     -0.165667
      7 FAG         3.0630    1.4170   -9.0670 f         1 GW0     -0.165667
      8 FAH         1.2740    0.1620   -8.9700 f         1 GW0     -0.165667
      9 CAI        -1.2230    0.3990    3.8120 c1        1 GW0     -0.032000
     10 CAJ         3.2180    1.6850   -5.0080 c1        1 GW0     -0.122000
     11 CAK        -1.9900   -0.0910    4.8560 c1        1 GW0     -0.243000
     12 CAL         3.2660    1.5010   -6.3810 c1        1 GW0     -0.068000
     13 CAM        -2.1830   -1.2360    2.3390 c1        1 GW0     -0.052000
     14 CAN         1.4870    0.0290   -4.8460 c1        1 GW0     -0.176000
     15 CAO        -4.3180   -1.0700    6.4890 c3        1 GW0     -0.120000
     16 CAP         1.0560    0.4510    1.0190 c3        1 GW0     -0.231000
     17 NAQ         3.1180    1.7730   -2.0020 n2        1 GW0     -0.106000
     18 OAR        -3.3000   -1.7770    5.8200 os        1 GW0     -0.155000
     19 SAS        -0.7170    0.4900    1.0230 ss        1 GW0      0.187000
     20 SAT         1.1390    0.4350   -1.7340 ss        1 GW0      0.616000
     21 CAU        -4.7070   -1.8150    7.7460 c2        1 GW0      0.347000
     22 CAV        -2.9500   -1.7260    3.3840 c2        1 GW0     -0.128000
     23 CAW         2.7560    1.6850   -0.4780 c2        1 GW0     -0.069000
     24 CAX        -1.3190   -0.1730    2.5530 c1        1 GW0     -0.359000
     25 CAY         1.5350   -0.1550   -6.2190 c2        1 GW0      0.146000
     26 CAZ         2.3280    0.9490   -4.2410 c1        1 GW0      0.065000
     27 CBA        -2.8540   -1.1540    4.6420 c2        1 GW0      0.158000
     28 CBB         1.5670    0.8790   -0.3390 c2        1 GW0     -0.399000
     29 CBC         2.4250    0.5810   -6.9870 c2        1 GW0     -0.210000
     30 CBD         2.1500    1.0250   -2.7400 c2        1 GW0     -0.342000
     31 CBE         2.5060    0.3500   -8.4800 c3        1 GW0      0.476000
     32 HAA        -3.0780   -3.7710    3.1840 hc        1 GW0      0.088333
     33 HAAA       -4.4800   -3.0930    3.5530 hc        1 GW0      0.088333
     34 HAAB       -3.9060   -2.9840    2.0630 hc        1 GW0      0.088333
     35 HAB         3.5320    3.5560   -0.1070 hc        1 GW0      0.088333
     36 HABA        4.1110    2.4350    0.8780 hc        1 GW0      0.088333
     37 HABB        4.6320    2.5190   -0.6330 hc        1 GW0      0.088333
     38 HAI        -0.6230    1.1550    3.9590 ha        1 GW0      0.130000
     39 HAJ         3.8040    2.3390   -4.5820 ha        1 GW0      0.167000
     40 HAK        -1.9360    0.3240    5.7380 ha        1 GW0      0.150000
     41 HAL         3.9050    2.0060   -6.9190 ha        1 GW0      0.153000
     42 HAM        -2.2510   -1.6390    1.4520 ha        1 GW0      0.128000
     43 HAN         0.8720   -0.5010   -4.3040 ha        1 GW0      0.163000
     44 HAO        -3.9930   -0.1770    6.7260 h1        1 GW0      0.066000
     45 HAOA       -5.0990   -0.9880    5.9030 h1        1 GW0      0.066000
     46 HAP         1.3970    1.0620    1.7030 h1        1 GW0      0.130000
     47 HAPA        1.3630   -0.4570    1.2120 h1        1 GW0      0.130000
@<TRIPOS>BOND
     1    1   22 1   
     2    1   32 1   
     3    1   33 1   
     4    1   34 1   
     5    2   23 1   
     6    2   35 1   
     7    2   36 1   
     8    2   37 1   
     9    3   21 1   
    10    4   21 1   
    11    5   25 1   
    12    6   31 1   
    13    7   31 1   
    14    8   31 1   
    15    9   24 1   
    16    9   38 1   
    17   10   26 1   
    18   10   39 1   
    19   11   27 1   
    20   11   40 1   
    21   12   29 1   
    22   12   41 1   
    23   13   22 1   
    24   13   42 1   
    25   14   25 1   
    26   14   43 1   
    27   15   18 1   
    28   15   21 1   
    29   15   44 1   
    30   15   45 1   
    31   16   19 1   
    32   16   28 1   
    33   16   46 1   
    34   16   47 1   
    35   17   23 1   
    36   17   30 1   
    37   18   27 1   
    38   19   24 1   
    39   20   28 1   
    40   20   30 1   
    41   22   27 1   
    42   23   28 1   
    43   25   29 1   
    44   26   30 1   
    45   29   31 1   
@<TRIPOS>SUBSTRUCTURE
     1 GW0         1 TEMP              0 ****  ****    0 ROOT
