@<TRIPOS>MOLECULE
GW0
   47    49     1     0     0
SMALL
bcc


@<TRIPOS>ATOM
      1 CAA         6.7740    0.3940    2.0180 c3        1 GW0     -0.041800
      2 OAC         8.2300   -3.7170   -1.5070 o         1 GW0     -0.813300
      3 OAD         8.7410   -1.5990   -2.0500 o         1 GW0     -0.813300
      4 CAI         2.9800   -0.3030    0.1490 ca        1 GW0     -0.038000
      5 CAJ        -4.1310    0.8340   -1.2590 ca        1 GW0     -0.121000
      6 CAK         4.1150   -0.9290   -0.3480 ca        1 GW0     -0.241000
      7 CAL        -5.1990   -0.0440   -1.4120 ca        1 GW0     -0.067000
      8 CAM         4.3040    0.7800    1.8530 ca        1 GW0     -0.046000
      9 CAN        -3.2800   -0.5120    0.5680 ca        1 GW0     -0.175000
     10 CAO         6.4900   -2.0830   -1.3210 c3        1 GW0     -0.019600
     11 CAP         1.4120    2.7680    0.9710 c3        1 GW0      0.038000
     12 NAQ        -2.0420    2.7870   -0.5180 nc        1 GW0     -0.632000
     13 OAR         6.5360   -1.2520   -0.1520 os        1 GW0     -0.271900
     14 SAS         1.6720    1.2700    1.9220 ss        1 GW0     -0.222000
     15 SAT        -0.5860    1.0120    0.6800 ss        1 GW0      0.030700
     16 CAU         7.9620   -2.4950   -1.6380 c         1 GW0      0.927600
     17 CAV         5.4570    0.1690    1.3830 ca        1 GW0     -0.139300
     18 CAW        -0.8290    3.3860   -0.2020 cc        1 GW0      0.353600
     19 CAX         3.0590    0.5570    1.2480 ca        1 GW0     -0.132100
     20 CAY        -4.3600   -1.3980    0.4120 ca        1 GW0      0.178900
     21 CAZ        -3.1640    0.6060   -0.2670 ca        1 GW0     -0.043500
     22 CBA         5.3640   -0.6990    0.2570 ca        1 GW0      0.203100
     23 CBB         0.0680    2.5430    0.4520 cd        1 GW0     -0.202700
     24 CBC        -5.3290   -1.1610   -0.5860 ca        1 GW0     -0.216300
     25 CBD        -2.0350    1.5090   -0.0920 cd        1 GW0      0.342900
     26 CBE        -6.5050   -2.1100   -0.7600 c3        1 GW0      0.697200
     27 HAA         7.1160   -0.5430    2.5250 hc        1 GW0      0.047700
     28 HAAA        7.5350    0.6500    1.2380 hc        1 GW0      0.047700
     29 HAAB        6.7280    1.2170    2.7710 hc        1 GW0      0.047700
     30 HAB         0.4420    5.1000   -0.1230 hc        1 GW0      0.049033
     31 HABA       -0.5150    4.9260   -1.6590 hc        1 GW0      0.049033
     32 HABB       -1.3390    5.4730   -0.1390 hc        1 GW0      0.049033
     33 HAI         2.0050   -0.4890   -0.3290 ha        1 GW0      0.127000
     34 HAJ        -4.0470    1.7120   -1.9190 ha        1 GW0      0.166000
     35 HAK         4.0370   -1.6040   -1.2120 ha        1 GW0      0.150000
     36 HAL        -5.9550    0.1420   -2.1930 ha        1 GW0      0.154000
     37 HAM         4.3650    1.4540    2.7230 ha        1 GW0      0.132000
     38 HAN        -2.5330   -0.7090    1.3540 ha        1 GW0      0.163000
     39 HAO         5.8640   -2.9850   -1.1050 h1        1 GW0      0.027200
     40 HAOA        6.0670   -1.5020   -2.1780 h1        1 GW0      0.027200
     41 HAP         1.4670    3.6590    1.6440 h1        1 GW0      0.090200
     42 HAPA        2.1710    2.8940    0.1620 h1        1 GW0      0.090200
     43 FAF        -7.3700   -1.7730   -1.7740 f         1 GW0     -0.236633
     44 FAG        -7.3190   -2.2150    0.3430 f         1 GW0     -0.236633
     45 FAH        -6.1550   -3.4080   -1.0440 f         1 GW0     -0.236633
     46 CAB        -0.5460    4.7980   -0.5480 c3        1 GW0     -0.121400
     47 FAE        -4.4610   -2.4720    1.2270 f         1 GW0     -0.123900
@<TRIPOS>BOND
     1    1   17 1   
     2    1   27 1   
     3    1   28 1   
     4    1   29 1   
     5    2   16 1   
     6    3   16 1   
     7    4    6 ar  
     8    4   19 ar  
     9    4   33 1   
    10    5    7 ar  
    11    5   21 ar  
    12    5   34 1   
    13    6   22 ar  
    14    6   35 1   
    15    7   24 ar  
    16    7   36 1   
    17    8   17 ar  
    18    8   19 ar  
    19    8   37 1   
    20    9   20 ar  
    21    9   21 ar  
    22    9   38 1   
    23   10   13 1   
    24   10   16 1   
    25   10   39 1   
    26   10   40 1   
    27   11   14 1   
    28   11   23 1   
    29   11   41 1   
    30   11   42 1   
    31   12   18 1   
    32   12   25 2   
    33   13   22 1   
    34   14   19 1   
    35   15   23 1   
    36   15   25 1   
    37   17   22 ar  
    38   18   23 2   
    39   18   46 1   
    40   20   24 ar  
    41   20   47 1   
    42   21   25 1   
    43   24   26 1   
    44   26   43 1   
    45   26   44 1   
    46   26   45 1   
    47   30   46 1   
    48   31   46 1   
    49   32   46 1   
@<TRIPOS>SUBSTRUCTURE
     1 GW0         1 TEMP              0 ****  ****    0 ROOT
