@<TRIPOS>MOLECULE
GW0
   47    49     1     0     0
SMALL
bcc


@<TRIPOS>ATOM
      1 CAA         2.0370   -0.7790   -1.7380 c3        1 GW0     -0.042800
      2 OAC        -0.7340    0.0430    2.2720 o         1 GW0     -0.812800
      3 OAD        -0.4460   -2.0030    3.1520 o         1 GW0     -0.812800
      4 CAI         5.3990   -0.3750    0.8900 ca        1 GW0     -0.032000
      5 CAJ         8.1210    0.6450   -7.6180 ca        1 GW0     -0.121000
      6 CAK         4.1300   -0.5550    1.4230 ca        1 GW0     -0.243000
      7 CAL         8.2070   -0.1050   -8.7860 ca        1 GW0     -0.067000
      8 CAM         4.4900   -0.4550   -1.3470 ca        1 GW0     -0.052000
      9 CAN         8.2100   -1.3870   -6.3000 ca        1 GW0     -0.176000
     10 CAO         1.5080   -0.8450    2.3970 c3        1 GW0     -0.019600
     11 CAP         7.3870    1.5650   -1.4470 c3        1 GW0      0.038000
     12 NAQ         8.3530    2.0800   -5.0460 nc        1 GW0     -0.632000
     13 OAR         1.7380   -0.8510    0.9800 os        1 GW0     -0.271900
     14 SAS         7.1730   -0.1830   -1.1060 ss        1 GW0     -0.222000
     15 SAT         7.4920    0.0670   -3.6630 ss        1 GW0      0.032700
     16 CAU        -0.0350   -0.9460    2.6050 c         1 GW0      0.927600
     17 CAV         3.2080   -0.6340   -0.8460 ca        1 GW0     -0.136300
     18 CAW         8.1620    2.5210   -3.7430 cc        1 GW0      0.353600
     19 CAX         5.5940   -0.3210   -0.4930 ca        1 GW0     -0.132100
     20 CAY         8.2960   -2.1430   -7.4810 ca        1 GW0      0.178900
     21 CAZ         8.1230    0.0100   -6.3660 ca        1 GW0     -0.042500
     22 CBA         3.0210   -0.6820    0.5650 ca        1 GW0      0.203100
     23 CBB         7.6940    1.5370   -2.8740 cd        1 GW0     -0.202700
     24 CBC         8.2960   -1.4970   -8.7350 ca        1 GW0     -0.216300
     25 CBD         8.0300    0.7740   -5.1300 cd        1 GW0      0.341900
     26 CBE         8.3940   -2.3060  -10.0200 c3        1 GW0      0.697200
     27 HAA         1.6410   -1.8250   -1.6790 hc        1 GW0      0.049033
     28 HAAA        1.2170   -0.0910   -1.4070 hc        1 GW0      0.049033
     29 HAAB        2.3010   -0.5510   -2.7990 hc        1 GW0      0.049033
     30 HAB         7.7320    4.6170   -3.8670 hc        1 GW0      0.048700
     31 HABA        9.4830    4.2110   -3.6210 hc        1 GW0      0.048700
     32 HABB        8.3080    4.0340   -2.2440 hc        1 GW0      0.048700
     33 HAI         6.2630   -0.2780    1.5650 ha        1 GW0      0.130000
     34 HAJ         8.0540    1.7430   -7.6780 ha        1 GW0      0.166000
     35 HAK         3.9920   -0.6000    2.5120 ha        1 GW0      0.150000
     36 HAL         8.2050    0.4010   -9.7650 ha        1 GW0      0.154000
     37 HAM         4.6430   -0.4160   -2.4370 ha        1 GW0      0.129000
     38 HAN         8.2150   -1.9050   -5.3270 ha        1 GW0      0.163000
     39 HAO         2.0280   -1.7220    2.8560 h1        1 GW0      0.026700
     40 HAOA        1.8850    0.1140    2.8330 h1        1 GW0      0.026700
     41 HAP         6.4700    2.1570   -1.2160 h1        1 GW0      0.090200
     42 HAPA        8.2300    1.9700   -0.8370 h1        1 GW0      0.090200
     43 FAF         8.3730   -1.5580  -11.1730 f         1 GW0     -0.236633
     44 FAG         7.3800   -3.2160  -10.2000 f         1 GW0     -0.236633
     45 FAH         9.5410   -3.0530  -10.1350 f         1 GW0     -0.236633
     46 CAB         8.4380    3.9210   -3.3480 c3        1 GW0     -0.121400
     47 FAE         8.3820   -3.4910   -7.4020 f         1 GW0     -0.123900
@<TRIPOS>BOND
     1    1   17 1   
     2    1   27 1   
     3    1   28 1   
     4    1   29 1   
     5    2   16 1   
     6    3   16 1   
     7    4    6 ar  
     8    4   19 ar  
     9    4   33 1   
    10    5    7 ar  
    11    5   21 ar  
    12    5   34 1   
    13    6   22 ar  
    14    6   35 1   
    15    7   24 ar  
    16    7   36 1   
    17    8   17 ar  
    18    8   19 ar  
    19    8   37 1   
    20    9   20 ar  
    21    9   21 ar  
    22    9   38 1   
    23   10   13 1   
    24   10   16 1   
    25   10   39 1   
    26   10   40 1   
    27   11   14 1   
    28   11   23 1   
    29   11   41 1   
    30   11   42 1   
    31   12   18 1   
    32   12   25 2   
    33   13   22 1   
    34   14   19 1   
    35   15   23 1   
    36   15   25 1   
    37   17   22 ar  
    38   18   23 2   
    39   18   46 1   
    40   20   24 ar  
    41   20   47 1   
    42   21   25 1   
    43   24   26 1   
    44   26   43 1   
    45   26   44 1   
    46   26   45 1   
    47   30   46 1   
    48   31   46 1   
    49   32   46 1   
@<TRIPOS>SUBSTRUCTURE
     1 GW0         1 TEMP              0 ****  ****    0 ROOT
