@<TRIPOS>MOLECULE
GW3
   39    41     1     0     0
SMALL
bcc


@<TRIPOS>ATOM
      1 C1          1.0510    0.1100   -1.8930 ca        1 GW3      0.467600
      2 C2         -0.3460    0.0570   -1.5970 ca        1 GW3     -0.284600
      3 C3         -1.2340    0.0130   -2.7510 ca        1 GW3      0.710200
      4 N4         -0.7680    0.1020   -4.0170 nb        1 GW3     -0.819000
      5 C5          0.6160    0.2130   -4.1810 ca        1 GW3      0.886900
      6 N6          1.5350    0.2110   -3.1710 nb        1 GW3     -0.782000
      7 N7         -2.6130   -0.0820   -2.5680 nh        1 GW3     -0.933500
      8 C8          2.0110    0.0540   -0.8170 ca        1 GW3     -0.191300
      9 C9          1.6230   -0.0170    0.4900 ca        1 GW3     -0.088000
     10 C12         0.2400   -0.0050    0.7930 ca        1 GW3     -0.092200
     11 C13        -0.7580    0.0570   -0.2440 ca        1 GW3     -0.043800
     12 C14        -2.0290    0.1310    0.4300 cc        1 GW3     -0.206200
     13 C15        -1.7780    0.0870    1.8050 cd        1 GW3     -0.112100
     14 N16        -0.4070   -0.0110    2.0350 na        1 GW3     -0.047400
     15 N19         1.0880    0.2360   -5.5070 nh        1 GW3     -0.919500
     16 C25         0.2280   -0.0240    3.3350 c3        1 GW3      0.053000
     17 C27        -0.0150    1.2820    4.1190 c3        1 GW3     -0.094400
     18 C30         1.0840    1.5340    5.1190 c3        1 GW3     -0.095600
     19 C34        -0.2130   -1.2220    4.1970 c3        1 GW3     -0.094400
     20 C37         0.2900   -2.5350    3.6600 c3        1 GW3     -0.095600
     21 HN71       -3.1620   -0.2400   -3.3850 hn        1 GW3      0.415800
     22 HN72       -2.8890   -0.6090   -1.7710 hn        1 GW3      0.415800
     23 H8          3.0820    0.0670   -1.0760 ha        1 GW3      0.151000
     24 H9          2.3700   -0.0720    1.2950 ha        1 GW3      0.133000
     25 H14        -3.0170    0.2610   -0.0010 ha        1 GW3      0.155000
     26 H15        -2.4830    0.1200    2.6370 h4        1 GW3      0.165000
     27 HN91        0.4310    0.5380   -6.1900 hn        1 GW3      0.416300
     28 HN92        2.0120    0.5880   -5.6230 hn        1 GW3      0.416300
     29 H25         1.3410   -0.1210    3.1510 h1        1 GW3      0.069700
     30 H271       -1.0040    1.2180    4.6430 hc        1 GW3      0.051950
     31 H272       -0.0680    2.1530    3.4130 hc        1 GW3      0.051950
     32 H301        0.8860    2.4890    5.6650 hc        1 GW3      0.039367
     33 H302        1.1500    0.7110    5.8700 hc        1 GW3      0.039367
     34 H303        2.0730    1.6220    4.6070 hc        1 GW3      0.039367
     35 H341        0.1920   -1.0600    5.2310 hc        1 GW3      0.051950
     36 H342       -1.3320   -1.2440    4.2760 hc        1 GW3      0.051950
     37 H371       -0.0010   -3.3650    4.3480 hc        1 GW3      0.039367
     38 H372       -0.1390   -2.7490    2.6520 hc        1 GW3      0.039367
     39 H373        1.4040   -2.5260    3.5720 hc        1 GW3      0.039367
@<TRIPOS>BOND
     1    1    2 ar  
     2    1    6 ar  
     3    1    8 ar  
     4    2    3 ar  
     5    2   11 ar  
     6    3    4 ar  
     7    3    7 1   
     8    4    5 ar  
     9    5    6 ar  
    10    5   15 1   
    11    7   21 1   
    12    7   22 1   
    13    8    9 ar  
    14    8   23 1   
    15    9   10 ar  
    16    9   24 1   
    17   10   11 ar  
    18   10   14 1   
    19   11   12 1   
    20   12   13 2   
    21   12   25 1   
    22   13   14 1   
    23   13   26 1   
    24   14   16 1   
    25   15   27 1   
    26   15   28 1   
    27   16   17 1   
    28   16   19 1   
    29   16   29 1   
    30   17   18 1   
    31   17   30 1   
    32   17   31 1   
    33   18   32 1   
    34   18   33 1   
    35   18   34 1   
    36   19   20 1   
    37   19   35 1   
    38   19   36 1   
    39   20   37 1   
    40   20   38 1   
    41   20   39 1   
@<TRIPOS>SUBSTRUCTURE
     1 GW3         1 TEMP              0 ****  ****    0 ROOT
