@<TRIPOS>MOLECULE
GW3
   39    41     1     0     0
SMALL
bcc


@<TRIPOS>ATOM
      1 C1          0.0780   -0.0490   -0.0090 ca        1 GW3      0.468600
      2 C2          1.5050    0.0090    0.0210 ca        1 GW3     -0.286600
      3 C3          2.1040    0.1460    1.3420 ca        1 GW3      0.714200
      4 N4          1.3610    0.1100    2.4710 nb        1 GW3     -0.821000
      5 C5         -0.0170   -0.0770    2.3200 ca        1 GW3      0.887900
      6 N6         -0.6860   -0.0940    1.1290 nb        1 GW3     -0.783000
      7 N7          3.4820    0.2990    1.4700 nh        1 GW3     -0.936500
      8 C8         -0.6090   -0.0530   -1.2780 ca        1 GW3     -0.191300
      9 C9          0.0700   -0.0480   -2.4630 ca        1 GW3     -0.088000
     10 C12         1.4850   -0.0650   -2.4390 ca        1 GW3     -0.093200
     11 C13         2.2170   -0.0580   -1.1990 ca        1 GW3     -0.043800
     12 C14         3.6100   -0.1540   -1.5560 cc        1 GW3     -0.207200
     13 C15         3.6820   -0.1890   -2.9520 cd        1 GW3     -0.112100
     14 N16         2.4010   -0.1340   -3.4970 na        1 GW3     -0.047400
     15 N19        -0.7540   -0.2950    3.4980 nh        1 GW3     -0.917500
     16 C25         2.0870   -0.1260   -4.9090 c3        1 GW3      0.053000
     17 C27         2.6510    1.1180   -5.6260 c3        1 GW3     -0.094400
     18 C30         1.8490    1.4530   -6.8560 c3        1 GW3     -0.096600
     19 C34         2.5760   -1.3930   -5.6340 c3        1 GW3     -0.094400
     20 C37         1.8190   -2.6250   -5.2160 c3        1 GW3     -0.096600
     21 HN71        3.9220    0.7780    0.7180 hn        1 GW3      0.417800
     22 HN72        3.8300    0.5170    2.3760 hn        1 GW3      0.417800
     23 H8         -1.7110   -0.0640   -1.2710 ha        1 GW3      0.151000
     24 H9         -0.4730   -0.0430   -3.4200 ha        1 GW3      0.133000
     25 H14         4.4680   -0.2510   -0.9000 ha        1 GW3      0.155000
     26 H15         4.5600   -0.2540   -3.5970 h4        1 GW3      0.165000
     27 HN91       -1.7310   -0.1200    3.4290 hn        1 GW3      0.415800
     28 HN92       -0.3260    0.0210    4.3380 hn        1 GW3      0.415800
     29 H25         0.9570   -0.0950   -4.9900 h1        1 GW3      0.069700
     30 H271        2.6370    2.0020   -4.9350 hc        1 GW3      0.051450
     31 H272        3.7200    0.9290   -5.9030 hc        1 GW3      0.051450
     32 H301        0.7840    1.6650   -6.5910 hc        1 GW3      0.039867
     33 H302        1.8650    0.6150   -7.5950 hc        1 GW3      0.039867
     34 H303        2.2740    2.3610   -7.3500 hc        1 GW3      0.039867
     35 H341        3.6730   -1.5380   -5.4500 hc        1 GW3      0.051450
     36 H342        2.4410   -1.2260   -6.7350 hc        1 GW3      0.051450
     37 H371        0.7230   -2.4950   -5.3880 hc        1 GW3      0.039867
     38 H372        1.9790   -2.8500   -4.1340 hc        1 GW3      0.039867
     39 H373        2.1650   -3.5050   -5.8110 hc        1 GW3      0.039867
@<TRIPOS>BOND
     1    1    2 ar  
     2    1    6 ar  
     3    1    8 ar  
     4    2    3 ar  
     5    2   11 ar  
     6    3    4 ar  
     7    3    7 1   
     8    4    5 ar  
     9    5    6 ar  
    10    5   15 1   
    11    7   21 1   
    12    7   22 1   
    13    8    9 ar  
    14    8   23 1   
    15    9   10 ar  
    16    9   24 1   
    17   10   11 ar  
    18   10   14 1   
    19   11   12 1   
    20   12   13 2   
    21   12   25 1   
    22   13   14 1   
    23   13   26 1   
    24   14   16 1   
    25   15   27 1   
    26   15   28 1   
    27   16   17 1   
    28   16   19 1   
    29   16   29 1   
    30   17   18 1   
    31   17   30 1   
    32   17   31 1   
    33   18   32 1   
    34   18   33 1   
    35   18   34 1   
    36   19   20 1   
    37   19   35 1   
    38   19   36 1   
    39   20   37 1   
    40   20   38 1   
    41   20   39 1   
@<TRIPOS>SUBSTRUCTURE
     1 GW3         1 TEMP              0 ****  ****    0 ROOT
