@<TRIPOS>MOLECULE
GW3
   39    31     1     0     0
SMALL
bcc


@<TRIPOS>ATOM
      1 C1         -1.6390    0.0290    2.4640 c1        1 GW3      0.075000
      2 C2         -0.2800   -0.0270    2.4630 c1        1 GW3     -0.156000
      3 C3          0.4110   -0.0490    3.6630 c1        1 GW3      0.193000
      4 N4         -0.2620   -0.0140    4.8270 n1        1 GW3     -0.295000
      5 C5         -1.6320    0.0420    4.8270 c1        1 GW3      0.169000
      6 N6         -2.3170    0.0640    3.6450 n1        1 GW3     -0.257000
      7 N7          1.8240   -0.1850    3.6650 n3        1 GW3     -0.334000
      8 C8         -2.3460    0.0530    1.2390 c1        1 GW3     -0.126000
      9 C9         -1.6550    0.0200    0.0380 c1        1 GW3     -0.088000
     10 C12        -0.2530   -0.0380    0.0370 c1        1 GW3     -0.047000
     11 C13         0.4330   -0.0620    1.2230 c1        1 GW3     -0.032000
     12 C14         1.7790   -0.0940    0.9340 c1        1 GW3     -0.219000
     13 C15         1.9210   -0.0900   -0.4390 c1        1 GW3     -0.085000
     14 N16         0.6720   -0.0560   -0.9920 n1        1 GW3     -0.139000
     15 N19        -2.3400    0.0680    6.0550 n3        1 GW3     -0.315000
     16 C25         0.3750   -0.0600   -2.3800 c2        1 GW3      0.033000
     17 C27         1.0360    1.1290   -3.0410 c3        1 GW3     -0.173000
     18 C30        -0.0250    2.0650   -3.5720 c3        1 GW3     -0.214500
     19 C34         0.8950   -1.3370   -3.0030 c3        1 GW3     -0.173000
     20 C37         0.0560   -1.6850   -4.2130 c3        1 GW3     -0.214500
     21 HN71        2.2030   -1.0170    3.6910 hn        1 GW3      0.213000
     22 HN72        2.3550    0.5590    3.6610 hn        1 GW3      0.213000
     23 H8         -3.3220    0.0860    1.2400 ha        1 GW3      0.151000
     24 H9         -2.1450    0.0150   -0.8060 ha        1 GW3      0.133000
     25 H14         2.5060   -0.1160    1.5860 DU        1 GW3      0.160000
     26 H15         2.7650   -0.0990   -0.9280 DU        1 GW3      0.160000
     27 HN91       -1.8840    0.1260    6.8450 hn        1 GW3      0.211000
     28 HN92       -3.2530    0.0120    6.0580 hn        1 GW3      0.211000
     29 H25        -0.5930   -0.0070   -2.5070 ha        1 GW3      0.109000
     30 H271        1.5890    1.6000   -2.3860 hc        1 GW3      0.090750
     31 H272        1.5980    0.8200   -3.7800 hc        1 GW3      0.090750
     32 H301       -0.5100    2.4690   -2.8220 hc        1 GW3      0.079167
     33 H302        0.3980    2.7700   -4.1060 hc        1 GW3      0.079167
     34 H303       -0.6530    1.5630   -4.1340 hc        1 GW3      0.079167
     35 H341        0.8420   -2.0630   -2.3500 hc        1 GW3      0.090750
     36 H342        1.8250   -1.2110   -3.2760 hc        1 GW3      0.090750
     37 H371       -0.8900   -1.5320   -4.0100 hc        1 GW3      0.079167
     38 H372        0.1920   -2.6280   -4.4450 hc        1 GW3      0.079167
     39 H373        0.3230   -1.1210   -4.9690 hc        1 GW3      0.079167
@<TRIPOS>BOND
     1    1    6 1   
     2    1    8 1   
     3    2    3 1   
     4    2   11 1   
     5    3    7 1   
     6    4    5 1   
     7    5   15 1   
     8    7   21 1   
     9    7   22 1   
    10    8   23 1   
    11    9   10 1   
    12    9   24 1   
    13   12   13 1   
    14   13   14 1   
    15   15   27 1   
    16   15   28 1   
    17   16   17 1   
    18   16   19 1   
    19   16   29 1   
    20   17   18 1   
    21   17   30 1   
    22   17   31 1   
    23   18   32 1   
    24   18   33 1   
    25   18   34 1   
    26   19   20 1   
    27   19   35 1   
    28   19   36 1   
    29   20   37 1   
    30   20   38 1   
    31   20   39 1   
@<TRIPOS>SUBSTRUCTURE
     1 GW3         1 TEMP              0 ****  ****    0 ROOT
