@<TRIPOS>MOLECULE
GW3
   39    41     1     0     0
SMALL
bcc


@<TRIPOS>ATOM
      1 C1          0.0760   -0.0220   -0.0100 ca        1 GW3      0.467600
      2 C2          1.5050    0.0170    0.0220 ca        1 GW3     -0.284600
      3 C3          2.1030    0.1300    1.3440 ca        1 GW3      0.710200
      4 N4          1.3570    0.1130    2.4720 nb        1 GW3     -0.819000
      5 C5         -0.0280    0.0080    2.3190 ca        1 GW3      0.886900
      6 N6         -0.6900   -0.0510    1.1260 nb        1 GW3     -0.782000
      7 N7          3.4880    0.2180    1.4800 nv        1 GW3     -0.932500
      8 C8         -0.6100   -0.0340   -1.2800 ca        1 GW3     -0.191300
      9 C9          0.0690   -0.0400   -2.4640 ca        1 GW3     -0.088000
     10 C12         1.4840   -0.0640   -2.4390 ca        1 GW3     -0.092200
     11 C13         2.2170   -0.0580   -1.1980 ca        1 GW3     -0.043800
     12 C14         3.6080   -0.1620   -1.5570 cc        1 GW3     -0.207200
     13 C15         3.6800   -0.2000   -2.9530 cd        1 GW3     -0.112100
     14 N16         2.4000   -0.1410   -3.4970 na        1 GW3     -0.046400
     15 N19        -0.7930    0.0600    3.4990 nv        1 GW3     -0.919500
     16 C25         2.0850   -0.1250   -4.9090 c3        1 GW3      0.053000
     17 C27         2.6500    1.1230   -5.6190 c3        1 GW3     -0.094400
     18 C30         1.8480    1.4650   -6.8480 c3        1 GW3     -0.096600
     19 C34         2.5740   -1.3880   -5.6410 c3        1 GW3     -0.094400
     20 C37         1.8170   -2.6230   -5.2290 c3        1 GW3     -0.096600
     21 HN71        3.8360    0.4230    2.3900 hn        1 GW3      0.415800
     22 HN72        3.9460    0.7000    0.7400 hn        1 GW3      0.415800
     23 H8         -1.7120   -0.0340   -1.2740 ha        1 GW3      0.151000
     24 H9         -0.4720   -0.0360   -3.4210 ha        1 GW3      0.133000
     25 H14         4.4690   -0.2610   -0.9040 ha        1 GW3      0.155000
     26 H15         4.5580   -0.2700   -3.5970 h4        1 GW3      0.165000
     27 HN91       -0.3150   -0.2000    4.3320 hn        1 GW3      0.416300
     28 HN92       -1.7220   -0.2870    3.4200 hn        1 GW3      0.416300
     29 H25         0.9560   -0.0930   -4.9900 h1        1 GW3      0.069700
     30 H271        2.6350    2.0030   -4.9230 hc        1 GW3      0.051450
     31 H272        3.7200    0.9350   -5.8970 hc        1 GW3      0.051450
     32 H301        1.8650    0.6310   -7.5910 hc        1 GW3      0.039700
     33 H302        0.7840    1.6750   -6.5820 hc        1 GW3      0.039700
     34 H303        2.2740    2.3760   -7.3360 hc        1 GW3      0.039700
     35 H341        2.4380   -1.2150   -6.7410 hc        1 GW3      0.051450
     36 H342        3.6710   -1.5340   -5.4590 hc        1 GW3      0.051450
     37 H371        0.7210   -2.4900   -5.3990 hc        1 GW3      0.039700
     38 H372        1.9790   -2.8530   -4.1490 hc        1 GW3      0.039700
     39 H373        2.1620   -3.4990   -5.8300 hc        1 GW3      0.039700
@<TRIPOS>BOND
     1    1    2 ar  
     2    1    6 ar  
     3    1    8 ar  
     4    2    3 ar  
     5    2   11 ar  
     6    3    4 ar  
     7    3    7 1   
     8    4    5 ar  
     9    5    6 ar  
    10    5   15 1   
    11    7   21 1   
    12    7   22 1   
    13    8    9 ar  
    14    8   23 1   
    15    9   10 ar  
    16    9   24 1   
    17   10   11 ar  
    18   10   14 1   
    19   11   12 1   
    20   12   13 2   
    21   12   25 1   
    22   13   14 1   
    23   13   26 1   
    24   14   16 1   
    25   15   27 1   
    26   15   28 1   
    27   16   17 1   
    28   16   19 1   
    29   16   29 1   
    30   17   18 1   
    31   17   30 1   
    32   17   31 1   
    33   18   32 1   
    34   18   33 1   
    35   18   34 1   
    36   19   20 1   
    37   19   35 1   
    38   19   36 1   
    39   20   37 1   
    40   20   38 1   
    41   20   39 1   
@<TRIPOS>SUBSTRUCTURE
     1 GW3         1 TEMP              0 ****  ****    0 ROOT
