@<TRIPOS>MOLECULE
GW3
   41    43     1     0     0
SMALL
bcc


@<TRIPOS>ATOM
      1 C1          0.0420   -0.0070   -0.0330 ca        1 GW3      0.441600
      2 C2          1.5020    0.0060    0.0030 ca        1 GW3     -0.132600
      3 C3          2.0670    0.0480    1.3210 ca        1 GW3      0.504200
      4 N4          1.3440    0.0740    2.4590 nb        1 GW3     -0.666000
      5 C5         -0.0240    0.0590    2.2850 ca        1 GW3      0.675900
      6 N6         -0.6990    0.0190    1.1070 nb        1 GW3     -0.589000
      7 N7          3.5350    0.0620    1.4700 n4        1 GW3     -0.823300
      8 C8         -0.6380   -0.0510   -1.3010 ca        1 GW3     -0.160300
      9 C9          0.0520   -0.0790   -2.4800 ca        1 GW3     -0.036000
     10 C12         1.4720   -0.0660   -2.4590 ca        1 GW3     -0.004200
     11 C13         2.2110   -0.0210   -1.2010 ca        1 GW3     -0.142800
     12 C14         3.6040   -0.0150   -1.5660 cc        1 GW3     -0.231200
     13 C15         3.6660   -0.0550   -2.9650 cd        1 GW3     -0.030100
     14 N16         2.3800   -0.0870   -3.5020 na        1 GW3      0.013600
     15 N19        -0.8450    0.0880    3.5280 n4        1 GW3     -0.804300
     16 C25         2.0750   -0.1230   -4.9360 c3        1 GW3      0.027000
     17 C27         2.6330    1.1130   -5.6670 c3        1 GW3     -0.096400
     18 C30         1.8420    1.3980   -6.9180 c3        1 GW3     -0.104600
     19 C34         2.5950   -1.4060   -5.6040 c3        1 GW3     -0.096400
     20 C37         1.8550   -2.6390   -5.1640 c3        1 GW3     -0.104600
     21 HN71        3.8230    0.0840    2.4590 hn        1 GW3      0.488133
     22 HN72        3.9020    0.8950    0.9850 hn        1 GW3      0.488133
     23 H8         -1.7450   -0.0600   -1.3050 ha        1 GW3      0.198000
     24 H9         -0.4920   -0.1140   -3.4430 ha        1 GW3      0.191000
     25 H14         4.4900    0.0150   -0.9410 ha        1 GW3      0.146000
     26 H15         4.5480   -0.0610   -3.6190 h4        1 GW3      0.216000
     27 HN91       -0.6360    0.9470    4.0560 hn        1 GW3      0.491467
     28 HN92       -0.6220   -0.7340    4.1060 hn        1 GW3      0.491467
     29 H25         0.9460   -0.1110   -5.0190 h1        1 GW3      0.082700
     30 H271        2.5940    2.0170   -5.0030 hc        1 GW3      0.067950
     31 H272        3.7090    0.9320   -5.9270 hc        1 GW3      0.067950
     32 H301        1.8890    0.5430   -7.6360 hc        1 GW3      0.052200
     33 H302        0.7690    1.5990   -6.6780 hc        1 GW3      0.052200
     34 H303        2.2620    2.3010   -7.4270 hc        1 GW3      0.052200
     35 H341        2.4660   -1.2700   -6.7130 hc        1 GW3      0.067950
     36 H342        3.6950   -1.5230   -5.4130 hc        1 GW3      0.067950
     37 H371        2.2190   -3.5240   -5.7450 hc        1 GW3      0.052200
     38 H372        0.7580   -2.5340   -5.3460 hc        1 GW3      0.052200
     39 H373        2.0180   -2.8500   -4.0800 hc        1 GW3      0.052200
     40 H73         3.9150   -0.7850    1.0200 hn        1 GW3      0.488133
     41 H193       -1.8490    0.0730    3.2850 hn        1 GW3      0.491467
@<TRIPOS>BOND
     1    1    2 ar  
     2    1    6 ar  
     3    1    8 ar  
     4    2    3 ar  
     5    2   11 ar  
     6    3    4 ar  
     7    3    7 1   
     8    4    5 ar  
     9    5    6 ar  
    10    5   15 1   
    11    7   21 1   
    12    7   22 1   
    13    7   40 1   
    14    8    9 ar  
    15    8   23 1   
    16    9   10 ar  
    17    9   24 1   
    18   10   11 ar  
    19   10   14 1   
    20   11   12 1   
    21   12   13 2   
    22   12   25 1   
    23   13   14 1   
    24   13   26 1   
    25   14   16 1   
    26   15   27 1   
    27   15   28 1   
    28   15   41 1   
    29   16   17 1   
    30   16   19 1   
    31   16   29 1   
    32   17   18 1   
    33   17   30 1   
    34   17   31 1   
    35   18   32 1   
    36   18   33 1   
    37   18   34 1   
    38   19   20 1   
    39   19   35 1   
    40   19   36 1   
    41   20   37 1   
    42   20   38 1   
    43   20   39 1   
@<TRIPOS>SUBSTRUCTURE
     1 GW3         1 TEMP              0 ****  ****    0 ROOT
