@<TRIPOS>MOLECULE
GW4
   78    82     1     0     0
SMALL
bcc


@<TRIPOS>ATOM
      1 O           8.0890    1.0860    0.9560 os        1 GW4     -0.381800
      2 C           7.5230   -0.0220    0.2870 cc        1 GW4      0.552900
      3 N           6.2050    0.1200    0.1130 nd        1 GW4     -0.665000
      4 C1          5.8670    1.3630    0.6810 cd        1 GW4      0.236300
      5 C2          7.0200    1.9540    1.1980 cc        1 GW4      0.170700
      6 C3          7.3240    3.2070    1.8870 c3        1 GW4     -0.128400
      7 C4          8.4260   -1.0960   -0.0900 ca        1 GW4     -0.136500
      8 C5          7.9340   -2.2100   -0.7840 ca        1 GW4     -0.091500
      9 C6          8.8030   -3.2390   -1.1440 ca        1 GW4     -0.138500
     10 C7         10.1570   -3.1640   -0.8170 ca        1 GW4     -0.110000
     11 C8         10.6470   -2.0540   -0.1270 ca        1 GW4     -0.138500
     12 C9          9.7880   -1.0210    0.2380 ca        1 GW4     -0.091500
     13 N1         -3.7310   -0.6950    0.6200 nh        1 GW4     -0.756600
     14 C10        -3.2240   -1.7460    1.4660 c3        1 GW4      0.205500
     15 C11        -4.3140   -2.7030    2.0350 c3        1 GW4      0.059000
     16 N2         -5.2470   -3.1990    1.0670 n         1 GW4     -0.574900
     17 C13        -1.2210   -0.4740    2.3000 ca        1 GW4     -0.118300
     18 C14        -1.2270    0.9070    2.0590 ca        1 GW4     -0.088000
     19 C15        -0.0220   -1.1820    2.1810 ca        1 GW4     -0.088000
     20 C16        -0.0600    1.5720    1.7060 ca        1 GW4     -0.180000
     21 C17         1.1610   -0.5350    1.8270 ca        1 GW4     -0.180000
     22 C18         1.1400    0.8440    1.5900 ca        1 GW4      0.132100
     23 O1          2.2400    1.5990    1.2390 os        1 GW4     -0.337900
     24 C19        -3.9680   -0.8400   -0.7330 ca        1 GW4      0.249600
     25 C20        -4.6260    0.1960   -1.4650 ca        1 GW4     -0.255600
     26 C21        -4.8070    0.0650   -2.8470 ca        1 GW4     -0.045000
     27 C22        -4.3610   -1.0540   -3.5360 ca        1 GW4     -0.205000
     28 C23        -3.7040   -2.0660   -2.8340 ca        1 GW4     -0.058000
     29 C24        -3.5090   -1.9710   -1.4660 ca        1 GW4     -0.241000
     30 C25        -5.0230    2.6900   -1.5340 ca        1 GW4     -0.171600
     31 C26        -5.9820    3.6920   -1.3300 ca        1 GW4     -0.083000
     32 C27        -5.8670    4.9150   -1.9880 ca        1 GW4     -0.145000
     33 C28        -4.7890    5.1510   -2.8400 ca        1 GW4     -0.104000
     34 C29        -3.8240    4.1620   -3.0360 ca        1 GW4     -0.145000
     35 C30        -3.9400    2.9330   -2.3880 ca        1 GW4     -0.083000
     36 C31        -5.1550    1.4070   -0.8050 c         1 GW4      0.603300
     37 O2         -5.7090    1.3720    0.3060 o         1 GW4     -0.558100
     38 C32         3.4730    0.8780    1.0950 c3        1 GW4      0.135400
     39 C33         4.5000    1.9220    0.6810 c3        1 GW4     -0.101700
     40 C34        -6.5930   -3.3410    1.3630 c         1 GW4      0.657100
     41 C35        -7.5110   -3.7330    0.2310 c3        1 GW4     -0.174100
     42 O3         -7.0150   -3.1840    2.5250 o         1 GW4     -0.607100
     43 H31         6.3910    3.6250    2.3400 hc        1 GW4      0.062700
     44 H32         8.0810    3.0390    2.6930 hc        1 GW4      0.062700
     45 H33         7.7400    3.9530    1.1630 hc        1 GW4      0.062700
     46 H5          6.8660   -2.2740   -1.0450 ha        1 GW4      0.152000
     47 H6          8.4160   -4.1130   -1.6880 ha        1 GW4      0.137500
     48 H7         10.8380   -3.9780   -1.1030 ha        1 GW4      0.135000
     49 H8         11.7140   -1.9940    0.1310 ha        1 GW4      0.137500
     50 H9         10.1710   -0.1440    0.7820 ha        1 GW4      0.152000
     51 HN1        -4.2520    0.0120    1.0960 hn        1 GW4      0.448800
     52 H10        -2.4810   -2.3600    0.8770 h1        1 GW4      0.066700
     53 H111       -3.7720   -3.5790    2.4970 h1        1 GW4      0.062200
     54 H112       -4.8810   -2.1770    2.8580 h1        1 GW4      0.062200
     55 HN2        -4.9630   -3.2170    0.1160 hn        1 GW4      0.311500
     56 H121       -3.1440   -0.4770    3.2590 hc        1 GW4      0.059200
     57 H122       -2.2300   -2.0350    3.3680 hc        1 GW4      0.059200
     58 H14        -2.1680    1.4710    2.1470 ha        1 GW4      0.133000
     59 H15        -0.0070   -2.2670    2.3700 ha        1 GW4      0.133000
     60 H16        -0.0570    2.6540    1.5140 ha        1 GW4      0.145000
     61 H17         2.0910   -1.1140    1.7410 ha        1 GW4      0.145000
     62 H21        -5.3210    0.8740   -3.3940 ha        1 GW4      0.140000
     63 H22        -4.5200   -1.1410   -4.6190 ha        1 GW4      0.137000
     64 H23        -3.3370   -2.9540   -3.3730 ha        1 GW4      0.132000
     65 H24        -2.9750   -2.7880   -0.9580 ha        1 GW4      0.135000
     66 H26        -6.8190    3.5020   -0.6390 ha        1 GW4      0.149500
     67 H27        -6.6260    5.6950   -1.8290 ha        1 GW4      0.136500
     68 H28        -4.6970    6.1190   -3.3560 ha        1 GW4      0.134000
     69 H29        -2.9690    4.3510   -3.7020 ha        1 GW4      0.136500
     70 H30        -3.1780    2.1530   -2.5420 ha        1 GW4      0.149500
     71 H321        3.7460    0.4070    2.0750 h1        1 GW4      0.052200
     72 H322        3.3590    0.0870    0.3090 h1        1 GW4      0.052200
     73 H331        4.4530    2.7940    1.3870 hc        1 GW4      0.068200
     74 H332        4.2460    2.3040   -0.3450 hc        1 GW4      0.068200
     75 H351       -7.1750   -4.6890   -0.2380 hc        1 GW4      0.066033
     76 H352       -8.5420   -3.8700    0.6380 hc        1 GW4      0.066033
     77 H353       -7.5310   -2.9310   -0.5460 hc        1 GW4      0.066033
     78 C12        -2.4720   -1.1740    2.6890 c3        1 GW4     -0.035100
@<TRIPOS>BOND
     1    1    2 1   
     2    1    5 1   
     3    2    3 2   
     4    2    7 1   
     5    3    4 1   
     6    4    5 2   
     7    4   39 1   
     8    5    6 1   
     9    6   43 1   
    10    6   44 1   
    11    6   45 1   
    12    7    8 ar  
    13    7   12 ar  
    14    8    9 ar  
    15    8   46 1   
    16    9   10 ar  
    17    9   47 1   
    18   10   11 ar  
    19   10   48 1   
    20   11   12 ar  
    21   11   49 1   
    22   12   50 1   
    23   13   14 1   
    24   13   24 1   
    25   13   51 1   
    26   14   15 1   
    27   14   52 1   
    28   14   78 1   
    29   15   16 1   
    30   15   53 1   
    31   15   54 1   
    32   16   40 1   
    33   16   55 1   
    34   17   18 ar  
    35   17   19 ar  
    36   17   78 1   
    37   18   20 ar  
    38   18   58 1   
    39   19   21 ar  
    40   19   59 1   
    41   20   22 ar  
    42   20   60 1   
    43   21   22 ar  
    44   21   61 1   
    45   22   23 1   
    46   23   38 1   
    47   24   25 ar  
    48   24   29 ar  
    49   25   26 ar  
    50   25   36 1   
    51   26   27 ar  
    52   26   62 1   
    53   27   28 ar  
    54   27   63 1   
    55   28   29 ar  
    56   28   64 1   
    57   29   65 1   
    58   30   31 ar  
    59   30   35 ar  
    60   30   36 1   
    61   31   32 ar  
    62   31   66 1   
    63   32   33 ar  
    64   32   67 1   
    65   33   34 ar  
    66   33   68 1   
    67   34   35 ar  
    68   34   69 1   
    69   35   70 1   
    70   36   37 2   
    71   38   39 1   
    72   38   71 1   
    73   38   72 1   
    74   39   73 1   
    75   39   74 1   
    76   40   41 1   
    77   40   42 2   
    78   41   75 1   
    79   41   76 1   
    80   41   77 1   
    81   56   78 1   
    82   57   78 1   
@<TRIPOS>SUBSTRUCTURE
     1 GW4         1 TEMP              0 ****  ****    0 ROOT
