@<TRIPOS>MOLECULE
GW5
   48    50     1     0     0
SMALL
bcc


@<TRIPOS>ATOM
      1 C21         0.1300   -0.6180    0.4160 ca        1 GW5     -0.113500
      2 C22         1.5030   -0.3930    0.3190 ca        1 GW5     -0.134000
      3 C23         2.0850    0.6900    0.9760 ca        1 GW5     -0.137000
      4 C24         1.2900    1.5470    1.7360 ca        1 GW5     -0.134000
      5 C25        -0.0820    1.3280    1.8330 ca        1 GW5     -0.113500
      6 C20        -0.6760    0.2440    1.1710 ca        1 GW5     -0.036800
      7 C3         -2.1280    0.0370    1.2650 ce        1 GW5     -0.066400
      8 C2         -2.9480    1.1810    0.7610 c3        1 GW5     -0.042200
      9 C1         -2.9060    1.2800   -0.7460 c3        1 GW5     -0.087100
     10 C4         -2.6740   -1.0950    1.7630 cf        1 GW5      0.022600
     11 C5         -4.1270   -1.2790    1.9070 ca        1 GW5     -0.037800
     12 C6         -4.7860   -2.2750    1.1740 ca        1 GW5     -0.115000
     13 C7         -6.1580   -2.4690    1.3270 ca        1 GW5     -0.135000
     14 C8         -6.8830   -1.6790    2.2190 ca        1 GW5     -0.138000
     15 C9         -6.2310   -0.6960    2.9620 ca        1 GW5     -0.135000
     16 C10        -4.8610   -0.4950    2.8080 ca        1 GW5     -0.115000
     17 C11        -1.8780   -2.2490    2.2070 ca        1 GW5     -0.094800
     18 C19        -1.4370   -2.3460    3.5310 ca        1 GW5     -0.124500
     19 C18        -0.7090   -3.4570    3.9470 ca        1 GW5     -0.134000
     20 C12        -1.5790   -3.2870    1.3130 ca        1 GW5     -0.124500
     21 C13        -0.8500   -4.3960    1.7280 ca        1 GW5     -0.134000
     22 C14        -0.4050   -4.5010    3.0570 ca        1 GW5      0.005200
     23 C15         0.3760   -5.6270    3.5350 ce        1 GW5     -0.189200
     24 C16         0.4700   -6.8580    3.0200 cf        1 GW5     -0.138200
     25 C17        -0.2220   -7.4640    1.8220 c         1 GW5      0.894800
     26 O2          0.1890   -7.1590    0.6640 o         1 GW5     -0.831800
     27 O1         -1.1480   -8.2930    2.0460 o         1 GW5     -0.831800
     28 H21        -0.3230   -1.4900   -0.0810 ha        1 GW5      0.137500
     29 H22         2.1270   -1.0840   -0.2680 ha        1 GW5      0.126500
     30 H23         3.1680    0.8620    0.9030 ha        1 GW5      0.121000
     31 H24         1.7470    2.3960    2.2640 ha        1 GW5      0.126500
     32 H25        -0.7010    2.0020    2.4430 ha        1 GW5      0.137500
     33 H21A       -2.5560    2.1360    1.2060 hc        1 GW5      0.044200
     34 H22A       -4.0160    1.0760    1.0930 hc        1 GW5      0.044200
     35 H11        -3.4870    2.1710   -1.0870 hc        1 GW5      0.033033
     36 H12A       -1.8540    1.3800   -1.1050 hc        1 GW5      0.033033
     37 H13A       -3.3510    0.3680   -1.2120 hc        1 GW5      0.033033
     38 H6         -4.2080   -2.9170    0.4900 ha        1 GW5      0.139000
     39 H7         -6.6650   -3.2560    0.7500 ha        1 GW5      0.125000
     40 H8         -7.9640   -1.8380    2.3420 ha        1 GW5      0.121000
     41 H9         -6.7970   -0.0800    3.6750 ha        1 GW5      0.125000
     42 H10        -4.3470    0.2750    3.4020 ha        1 GW5      0.139000
     43 H19        -1.6680   -1.5430    4.2450 ha        1 GW5      0.116000
     44 H18        -0.3700   -3.5200    4.9920 ha        1 GW5      0.160500
     45 H12        -1.9240   -3.2270    0.2710 ha        1 GW5      0.116000
     46 H13        -0.6150   -5.2110    1.0130 ha        1 GW5      0.160500
     47 H15         0.9450   -5.3970    4.4570 ha        1 GW5      0.084000
     48 H16         1.1210   -7.5910    3.5310 ha        1 GW5      0.097000
@<TRIPOS>BOND
     1    1    2 ar  
     2    1    6 ar  
     3    1   28 1   
     4    2    3 ar  
     5    2   29 1   
     6    3    4 ar  
     7    3   30 1   
     8    4    5 ar  
     9    4   31 1   
    10    5    6 ar  
    11    5   32 1   
    12    6    7 1   
    13    7    8 1   
    14    7   10 2   
    15    8    9 1   
    16    8   33 1   
    17    8   34 1   
    18    9   35 1   
    19    9   36 1   
    20    9   37 1   
    21   10   11 1   
    22   10   17 1   
    23   11   12 ar  
    24   11   16 ar  
    25   12   13 ar  
    26   12   38 1   
    27   13   14 ar  
    28   13   39 1   
    29   14   15 ar  
    30   14   40 1   
    31   15   16 ar  
    32   15   41 1   
    33   16   42 1   
    34   17   18 ar  
    35   17   20 ar  
    36   18   19 ar  
    37   18   43 1   
    38   19   22 ar  
    39   19   44 1   
    40   20   21 ar  
    41   20   45 1   
    42   21   22 ar  
    43   21   46 1   
    44   22   23 1   
    45   23   24 2   
    46   23   47 1   
    47   24   25 1   
    48   24   48 1   
    49   25   26 1   
    50   25   27 1   
@<TRIPOS>SUBSTRUCTURE
     1 GW5         1 TEMP              0 ****  ****    0 ROOT
