@<TRIPOS>MOLECULE
GW5
   48    50     1     0     0
SMALL
bcc


@<TRIPOS>ATOM
      1 C21        -1.2420   -3.1560    1.0790 ca        1 GW5     -0.117500
      2 C22        -0.4950   -4.3290    0.9910 ca        1 GW5     -0.131000
      3 C23         0.0480   -4.7250   -0.2320 ca        1 GW5     -0.132000
      4 C24        -0.1570   -3.9420   -1.3670 ca        1 GW5     -0.131000
      5 C25        -0.9040   -2.7680   -1.2840 ca        1 GW5     -0.117500
      6 C20        -1.4540   -2.3650   -0.0590 ca        1 GW5     -0.035800
      7 C3         -2.2750   -1.1510    0.0200 ce        1 GW5     -0.073400
      8 C2         -3.7450   -1.4020    0.1430 c3        1 GW5     -0.040200
      9 C1         -4.2240   -1.3080    1.5720 c3        1 GW5     -0.088100
     10 C4         -1.7650    0.0990   -0.0440 cf        1 GW5      0.023600
     11 C5         -2.6460    1.2810   -0.0140 ca        1 GW5     -0.036800
     12 C6         -2.8130    2.0060    1.1730 ca        1 GW5     -0.118000
     13 C7         -3.6300    3.1350    1.1960 ca        1 GW5     -0.134000
     14 C8         -4.2850    3.5510    0.0370 ca        1 GW5     -0.138000
     15 C9         -4.1200    2.8350   -1.1480 ca        1 GW5     -0.134000
     16 C10        -3.3050    1.7050   -1.1760 ca        1 GW5     -0.118000
     17 C11        -0.3360    0.4040   -0.1430 ca        1 GW5     -0.104800
     18 C19         0.1200    1.3450   -1.0780 ca        1 GW5     -0.108000
     19 C18         1.4710    1.6510   -1.1720 ca        1 GW5     -0.149500
     20 C12         0.5980   -0.2110    0.7010 ca        1 GW5     -0.108000
     21 C13         1.9500    0.1030    0.6120 ca        1 GW5     -0.149500
     22 C14         2.4160    1.0370   -0.3270 ca        1 GW5      0.014200
     23 C15         3.8150    1.3900   -0.4550 ce        1 GW5     -0.192200
     24 C16         4.8300    0.8700    0.2480 cf        1 GW5     -0.149200
     25 C17         6.2700    1.2990    0.0490 c         1 GW5      0.888800
     26 O2          7.1360    0.7490    0.7900 o         1 GW5     -0.831300
     27 O1          6.5360    2.1680   -0.8290 o         1 GW5     -0.831300
     28 H21        -1.6600   -2.8410    2.0460 ha        1 GW5      0.133500
     29 H22        -0.3260   -4.9390    1.8900 ha        1 GW5      0.127000
     30 H23         0.6440   -5.6460   -0.2980 ha        1 GW5      0.126000
     31 H24         0.2810   -4.2430   -2.3300 ha        1 GW5      0.127000
     32 H25        -1.0510   -2.1440   -2.1780 ha        1 GW5      0.133500
     33 H21A       -4.3010   -0.6500   -0.4830 hc        1 GW5      0.045700
     34 H22A       -3.9880   -2.4190   -0.2650 hc        1 GW5      0.045700
     35 H11        -5.3280   -1.4680    1.6170 hc        1 GW5      0.032700
     36 H12A       -3.7270   -2.0790    2.2080 hc        1 GW5      0.032700
     37 H13A       -3.9910   -0.2980    1.9930 hc        1 GW5      0.032700
     38 H6         -2.2870    1.6850    2.0850 ha        1 GW5      0.137500
     39 H7         -3.7520    3.7020    2.1300 ha        1 GW5      0.125500
     40 H8         -4.9260    4.4440    0.0570 ha        1 GW5      0.123000
     41 H9         -4.6300    3.1640   -2.0650 ha        1 GW5      0.125500
     42 H10        -3.1700    1.1440   -2.1130 ha        1 GW5      0.137500
     43 H19        -0.6050    1.8410   -1.7410 ha        1 GW5      0.121500
     44 H18         1.8150    2.3870   -1.9150 ha        1 GW5      0.135500
     45 H12         0.2550   -0.9550    1.4370 ha        1 GW5      0.121500
     46 H13         2.6660   -0.3900    1.2870 ha        1 GW5      0.135500
     47 H15         4.0490    2.1630   -1.2120 ha        1 GW5      0.145000
     48 H16         4.6900    0.0960    1.0180 ha        1 GW5      0.100000
@<TRIPOS>BOND
     1    1    2 ar  
     2    1    6 ar  
     3    1   28 1   
     4    2    3 ar  
     5    2   29 1   
     6    3    4 ar  
     7    3   30 1   
     8    4    5 ar  
     9    4   31 1   
    10    5    6 ar  
    11    5   32 1   
    12    6    7 1   
    13    7    8 1   
    14    7   10 2   
    15    8    9 1   
    16    8   33 1   
    17    8   34 1   
    18    9   35 1   
    19    9   36 1   
    20    9   37 1   
    21   10   11 1   
    22   10   17 1   
    23   11   12 ar  
    24   11   16 ar  
    25   12   13 ar  
    26   12   38 1   
    27   13   14 ar  
    28   13   39 1   
    29   14   15 ar  
    30   14   40 1   
    31   15   16 ar  
    32   15   41 1   
    33   16   42 1   
    34   17   18 ar  
    35   17   20 ar  
    36   18   19 ar  
    37   18   43 1   
    38   19   22 ar  
    39   19   44 1   
    40   20   21 ar  
    41   20   45 1   
    42   21   22 ar  
    43   21   46 1   
    44   22   23 1   
    45   23   24 2   
    46   23   47 1   
    47   24   25 1   
    48   24   48 1   
    49   25   26 1   
    50   25   27 1   
@<TRIPOS>SUBSTRUCTURE
     1 GW5         1 TEMP              0 ****  ****    0 ROOT
