@<TRIPOS>MOLECULE
GW5
   48    41     1     0     0
SMALL
bcc


@<TRIPOS>ATOM
      1 C21         3.2400    1.3780    0.3120 c1        1 GW5     -0.115000
      2 C22         4.6230    1.3360    0.3940 c1        1 GW5     -0.135333
      3 C23         5.2400    0.3950    1.2040 c1        1 GW5     -0.135333
      4 C24         4.4750   -0.5030    1.9300 c1        1 GW5     -0.135333
      5 C25         3.0920   -0.4610    1.8480 c1        1 GW5     -0.135333
      6 C20         2.4740    0.4800    1.0390 c1        1 GW5     -0.017000
      7 C3          0.9640    0.6020    1.0400 c2        1 GW5     -0.091000
      8 C2          0.2750    1.4390    2.0940 c3        1 GW5     -0.123000
      9 C1          1.0250    2.7410    2.2760 c3        1 GW5     -0.204000
     10 C4          0.2340   -0.0360    0.1000 c1        1 GW5      0.013000
     11 C5          0.9220   -0.8700   -0.9520 c1        1 GW5     -0.008000
     12 C6          1.1800   -0.3330   -2.2040 c2        1 GW5     -0.153500
     13 C7          1.7970   -1.1050   -3.1760 c1        1 GW5     -0.125500
     14 C8          2.1570   -2.4150   -2.8950 c1        1 GW5     -0.135333
     15 C9          1.8990   -2.9520   -1.6440 c1        1 GW5     -0.135333
     16 C10         1.2820   -2.1800   -0.6720 c1        1 GW5     -0.117000
     17 C11        -1.2780    0.0870    0.1010 c2        1 GW5     -0.095000
     18 C19        -1.8900    1.1180   -0.5950 c2        1 GW5     -0.133000
     19 C18        -3.2740    1.1910   -0.6520 c1        1 GW5     -0.158000
     20 C12        -2.0500   -0.8720    0.7400 c1        1 GW5     -0.112000
     21 C13        -3.4340   -0.7990    0.6830 c1        1 GW5     -0.117000
     22 C14        -4.0470    0.2330   -0.0130 c1        1 GW5     -0.008000
     23 C15        -5.5520    0.3950    0.0480 c2        1 GW5     -0.153500
     24 C16        -6.3400   -0.2700   -0.8240 c1        1 GW5     -0.125500
     25 C17        -5.7190   -1.1770   -1.8640 c1        1 GW5      0.345000
     26 O2         -5.6040   -2.4100   -1.6350 o         1 GW5     -0.565000
     27 O1         -5.3810   -0.7120   -2.9840 o         1 GW5     -0.565000
     28 H21         2.8050    2.0580   -0.2380 ha        1 GW5      0.139000
     29 H22         5.1620    1.9690   -0.1170 ha        1 GW5      0.124333
     30 H23         6.2150    0.3650    1.2620 ha        1 GW5      0.124333
     31 H24         4.9100   -1.1650    2.5000 ha        1 GW5      0.124333
     32 H25         2.5530   -1.0960    2.3570 ha        1 GW5      0.124333
     33 H21A        0.2610    0.9490    2.9410 hc        1 GW5      0.094000
     34 H22A       -0.6420    1.6280    1.8120 hc        1 GW5      0.094000
     35 H11         0.4310    3.4070    2.6790 hc        1 GW5      0.070000
     36 H12A        1.7970    2.5940    2.8640 hc        1 GW5      0.070000
     37 H13A        1.3360    3.0640    1.4040 hc        1 GW5      0.070000
     38 H6          0.9290    0.5890   -2.4000 ha        1 GW5      0.115500
     39 H7          1.9780   -0.7270   -4.0570 ha        1 GW5      0.113000
     40 H8          2.5910   -2.9590   -3.5790 ha        1 GW5      0.124333
     41 H9          2.1760   -3.8650   -1.4390 ha        1 GW5      0.124333
     42 H10         1.1000   -2.5580    0.2090 ha        1 GW5      0.171000
     43 H19        -1.3460    1.7900   -1.0510 ha        1 GW5      0.113000
     44 H18        -3.7050    1.9190   -1.1430 ha        1 GW5      0.117000
     45 H12        -1.6190   -1.5980    1.2310 ha        1 GW5      0.129000
     46 H13        -3.9770   -1.4750    1.1330 ha        1 GW5      0.171000
     47 H15        -5.9530    0.9800    0.7190 ha        1 GW5      0.115500
     48 H16        -7.3090   -0.1650   -0.7840 ha        1 GW5      0.113000
@<TRIPOS>BOND
     1    1    6 1   
     2    1   28 1   
     3    2    3 1   
     4    2   29 1   
     5    3   30 1   
     6    4    5 1   
     7    4   31 1   
     8    5   32 1   
     9    6    7 1   
    10    7    8 1   
    11    7   10 1   
    12    8    9 1   
    13    8   33 1   
    14    8   34 1   
    15    9   35 1   
    16    9   36 1   
    17    9   37 1   
    18   10   17 1   
    19   11   12 1   
    20   11   16 1   
    21   12   13 1   
    22   12   38 1   
    23   13   39 1   
    24   14   15 1   
    25   14   40 1   
    26   15   41 1   
    27   16   42 1   
    28   17   18 1   
    29   17   20 1   
    30   18   19 1   
    31   18   43 1   
    32   19   44 1   
    33   20   45 1   
    34   21   22 1   
    35   21   46 1   
    36   22   23 1   
    37   23   24 1   
    38   23   47 1   
    39   24   48 1   
    40   25   26 1   
    41   25   27 1   
@<TRIPOS>SUBSTRUCTURE
     1 GW5         1 TEMP              0 ****  ****    0 ROOT
