@<TRIPOS>MOLECULE
GW5
   48    50     1     0     0
SMALL
bcc


@<TRIPOS>ATOM
      1 C21         0.1250   -0.6210    0.4050 ca        1 GW5     -0.113500
      2 C22         1.4960   -0.3920    0.3050 ca        1 GW5     -0.134000
      3 C23         2.0750    0.6990    0.9510 ca        1 GW5     -0.137000
      4 C24         1.2760    1.5610    1.7030 ca        1 GW5     -0.134000
      5 C25        -0.0950    1.3370    1.8040 ca        1 GW5     -0.113500
      6 C20        -0.6850    0.2440    1.1520 ca        1 GW5     -0.036800
      7 C3         -2.1350    0.0310    1.2490 ce        1 GW5     -0.066400
      8 C2         -2.9610    1.1670    0.7350 c3        1 GW5     -0.042200
      9 C1         -2.9220    1.2520   -0.7730 c3        1 GW5     -0.087100
     10 C4         -2.6770   -1.0980    1.7580 cf        1 GW5      0.022600
     11 C5         -4.1290   -1.2870    1.9040 ca        1 GW5     -0.037800
     12 C6         -4.7850   -2.2920    1.1800 ca        1 GW5     -0.115000
     13 C7         -6.1550   -2.4900    1.3350 ca        1 GW5     -0.135000
     14 C8         -6.8830   -1.6960    2.2210 ca        1 GW5     -0.138000
     15 C9         -6.2350   -0.7030    2.9550 ca        1 GW5     -0.135000
     16 C10        -4.8650   -0.4980    2.7990 ca        1 GW5     -0.115000
     17 C11        -1.8750   -2.2450    2.2110 ca        1 GW5     -0.094800
     18 C19        -1.4330   -2.3280    3.5360 ca        1 GW5     -0.124500
     19 C18        -0.7000   -3.4310    3.9620 ca        1 GW5     -0.134000
     20 C12        -1.5730   -3.2890    1.3270 ca        1 GW5     -0.124500
     21 C13        -0.8390   -4.3920    1.7520 ca        1 GW5     -0.134000
     22 C14        -0.3930   -4.4820    3.0800 ca        1 GW5      0.005200
     23 C15         0.3940   -5.6010    3.5680 ce        1 GW5     -0.189200
     24 C16         0.4920   -6.8360    3.0650 cf        1 GW5     -0.138200
     25 C17        -0.1980   -7.4560    1.8730 c         1 GW5      0.894800
     26 O2          0.2110   -7.1600    0.7120 o         1 GW5     -0.831800
     27 O1         -1.1200   -8.2870    2.1040 o         1 GW5     -0.831800
     28 H21        -0.3250   -1.5000   -0.0840 ha        1 GW5      0.137500
     29 H22         2.1230   -1.0860   -0.2760 ha        1 GW5      0.126500
     30 H23         3.1570    0.8750    0.8760 ha        1 GW5      0.121000
     31 H24         1.7300    2.4160    2.2240 ha        1 GW5      0.126500
     32 H25        -0.7170    2.0140    2.4080 ha        1 GW5      0.137500
     33 H21A       -2.5720    2.1280    1.1710 hc        1 GW5      0.044200
     34 H22A       -4.0280    1.0620    1.0700 hc        1 GW5      0.044200
     35 H11        -3.5060    2.1380   -1.1210 hc        1 GW5      0.033033
     36 H12A       -1.8700    1.3530   -1.1340 hc        1 GW5      0.033033
     37 H13A       -3.3630    0.3340   -1.2300 hc        1 GW5      0.033033
     38 H6         -4.2040   -2.9370    0.5010 ha        1 GW5      0.139000
     39 H7         -6.6590   -3.2840    0.7650 ha        1 GW5      0.125000
     40 H8         -7.9630   -1.8580    2.3470 ha        1 GW5      0.121000
     41 H9         -6.8030   -0.0830    3.6630 ha        1 GW5      0.125000
     42 H10        -4.3540    0.2790    3.3860 ha        1 GW5      0.139000
     43 H19        -1.6670   -1.5190    4.2420 ha        1 GW5      0.116000
     44 H18        -0.3600   -3.4830    5.0060 ha        1 GW5      0.160500
     45 H12        -1.9200   -3.2400    0.2840 ha        1 GW5      0.116000
     46 H13        -0.6020   -5.2120    1.0430 ha        1 GW5      0.160500
     47 H15         0.9630   -5.3600    4.4870 ha        1 GW5      0.084000
     48 H16         1.1470   -7.5610    3.5820 ha        1 GW5      0.097000
@<TRIPOS>BOND
     1    1    2 ar  
     2    1    6 ar  
     3    1   28 1   
     4    2    3 ar  
     5    2   29 1   
     6    3    4 ar  
     7    3   30 1   
     8    4    5 ar  
     9    4   31 1   
    10    5    6 ar  
    11    5   32 1   
    12    6    7 1   
    13    7    8 1   
    14    7   10 2   
    15    8    9 1   
    16    8   33 1   
    17    8   34 1   
    18    9   35 1   
    19    9   36 1   
    20    9   37 1   
    21   10   11 1   
    22   10   17 1   
    23   11   12 ar  
    24   11   16 ar  
    25   12   13 ar  
    26   12   38 1   
    27   13   14 ar  
    28   13   39 1   
    29   14   15 ar  
    30   14   40 1   
    31   15   16 ar  
    32   15   41 1   
    33   16   42 1   
    34   17   18 ar  
    35   17   20 ar  
    36   18   19 ar  
    37   18   43 1   
    38   19   22 ar  
    39   19   44 1   
    40   20   21 ar  
    41   20   45 1   
    42   21   22 ar  
    43   21   46 1   
    44   22   23 1   
    45   23   24 2   
    46   23   47 1   
    47   24   25 1   
    48   24   48 1   
    49   25   26 1   
    50   25   27 1   
@<TRIPOS>SUBSTRUCTURE
     1 GW5         1 TEMP              0 ****  ****    0 ROOT
