@<TRIPOS>MOLECULE
GW7
   45    48     1     0     0
SMALL
bcc


@<TRIPOS>ATOM
      1 F1          1.3540    1.7760    1.2710 f         1 GW7     -0.141900
      2 C1          2.0800    0.7700    0.7260 ca        1 GW7      0.124900
      3 C2          2.3930   -0.3660    1.4960 ca        1 GW7     -0.161000
      4 C3          3.1380   -1.3910    0.9220 ca        1 GW7     -0.107000
      5 C4          3.5780   -1.2990   -0.3980 ca        1 GW7     -0.115000
      6 C5          3.2680   -0.1700   -1.1620 ca        1 GW7     -0.069300
      7 C6          3.7400   -0.0180   -2.5710 c3        1 GW7      0.173700
      8 O1          4.0760   -1.3230   -3.0700 os        1 GW7     -0.316900
      9 C7          4.8230   -1.3350   -4.2320 ca        1 GW7      0.122100
     10 C8          4.8760   -0.2610   -5.1300 ca        1 GW7     -0.179000
     11 C9          5.6050   -0.3570   -6.3090 ca        1 GW7     -0.074000
     12 C10         6.3100   -1.5390   -6.6140 ca        1 GW7      0.109600
     13 N1          6.9960   -1.6880   -7.8430 nh        1 GW7     -0.715300
     14 C11         7.9890   -0.7920   -8.2640 ca        1 GW7      0.718200
     15 N2          8.2090    0.3950   -7.6340 nb        1 GW7     -0.750000
     16 C12         9.1610    1.2130   -8.1770 ca        1 GW7      0.661900
     17 N3          9.9360    1.0050   -9.2580 nb        1 GW7     -0.687000
     18 C13         9.7220   -0.1850   -9.8880 ca        1 GW7      0.475100
     19 C14        10.4030   -0.6780  -11.0660 cc        1 GW7     -0.253800
     20 C15         9.9430   -1.9140  -11.4380 cd        1 GW7     -0.062600
     21 C16        10.4040   -2.7030  -12.5950 c3        1 GW7     -0.021200
     22 C17        11.8570   -3.1000  -12.4770 c3        1 GW7     -0.090100
     23 S1          8.7150   -2.4880  -10.4210 ss        1 GW7      0.057500
     24 C18         8.7490   -1.1360   -9.4340 ca        1 GW7     -0.380700
     25 C19         6.2560   -2.6200   -5.7080 ca        1 GW7     -0.139000
     26 C20         5.5190   -2.5240   -4.5290 ca        1 GW7      0.007400
     27 CL1         5.4920   -3.8650   -3.4840 cl        1 GW7     -0.072400
     28 C21         2.5150    0.8690   -0.6070 ca        1 GW7     -0.165000
     29 H2          2.0450   -0.4310    2.5370 ha        1 GW7      0.149000
     30 H3          3.3840   -2.2840    1.5180 ha        1 GW7      0.140000
     31 H4          4.1640   -2.1160   -0.8480 ha        1 GW7      0.159000
     32 H61         2.9260    0.4100   -3.2170 h1        1 GW7      0.055200
     33 H62         4.6430    0.6500   -2.6040 h1        1 GW7      0.055200
     34 H8          4.3320    0.6710   -4.9150 ha        1 GW7      0.146000
     35 H9          5.6240    0.5010   -6.9990 ha        1 GW7      0.160000
     36 H1          7.1790   -2.6380   -8.0970 hn        1 GW7      0.427800
     37 H12         9.3080    2.1740   -7.6380 h5        1 GW7      0.054100
     38 H14        11.1860   -0.1070  -11.5720 ha        1 GW7      0.175000
     39 H161       10.2600   -2.0950  -13.5310 hc        1 GW7      0.056200
     40 H162        9.7730   -3.6270  -12.7030 hc        1 GW7      0.056200
     41 H171       12.0180   -3.7560  -11.5880 hc        1 GW7      0.041033
     42 H172       12.1740   -3.6580  -13.3910 hc        1 GW7      0.041033
     43 H173       12.5030   -2.1960  -12.3680 hc        1 GW7      0.041033
     44 H19         6.7970   -3.5560   -5.9230 ha        1 GW7      0.147000
     45 H21         2.2590    1.7590   -1.1990 ha        1 GW7      0.147000
@<TRIPOS>BOND
     1    1    2 1   
     2    2    3 ar  
     3    2   28 ar  
     4    3    4 ar  
     5    3   29 1   
     6    4    5 ar  
     7    4   30 1   
     8    5    6 ar  
     9    5   31 1   
    10    6    7 1   
    11    6   28 ar  
    12    7    8 1   
    13    7   32 1   
    14    7   33 1   
    15    8    9 1   
    16    9   10 ar  
    17    9   26 ar  
    18   10   11 ar  
    19   10   34 1   
    20   11   12 ar  
    21   11   35 1   
    22   12   13 1   
    23   12   25 ar  
    24   13   14 1   
    25   13   36 1   
    26   14   15 ar  
    27   14   24 ar  
    28   15   16 ar  
    29   16   17 ar  
    30   16   37 1   
    31   17   18 ar  
    32   18   19 1   
    33   18   24 ar  
    34   19   20 2   
    35   19   38 1   
    36   20   21 1   
    37   20   23 1   
    38   21   22 1   
    39   21   39 1   
    40   21   40 1   
    41   22   41 1   
    42   22   42 1   
    43   22   43 1   
    44   23   24 1   
    45   25   26 ar  
    46   25   44 1   
    47   26   27 1   
    48   28   45 1   
@<TRIPOS>SUBSTRUCTURE
     1 GW7         1 TEMP              0 ****  ****    0 ROOT
