@<TRIPOS>MOLECULE
GW7
   45    48     1     0     0
SMALL
bcc


@<TRIPOS>ATOM
      1 F1          8.7500    2.2650    0.6660 f         1 GW7     -0.141900
      2 C1          7.8110    1.4420    0.1400 ca        1 GW7      0.124900
      3 C2          8.1720    0.5120   -0.8540 ca        1 GW7     -0.161000
      4 C3          7.1970   -0.3270   -1.3830 ca        1 GW7     -0.107000
      5 C4          5.8750   -0.2510   -0.9440 ca        1 GW7     -0.115000
      6 C5          5.5190    0.6730    0.0420 ca        1 GW7     -0.069300
      7 C6          4.1110    0.8070    0.5240 c3        1 GW7      0.173700
      8 O1          3.4090   -0.4000    0.1870 os        1 GW7     -0.316900
      9 C7          2.0320   -0.3220    0.2630 ca        1 GW7      0.121100
     10 C8          1.3530    0.6300    1.0350 ca        1 GW7     -0.179000
     11 C9         -0.0350    0.6210    1.1110 ca        1 GW7     -0.074000
     12 C10        -0.7800   -0.3440    0.4050 ca        1 GW7      0.109600
     13 N1         -2.1880   -0.4200    0.5270 nh        1 GW7     -0.715300
     14 C11        -3.0270    0.6690    0.2510 ca        1 GW7      0.718200
     15 N2         -2.5430    1.9280    0.0620 nb        1 GW7     -0.750000
     16 C12        -3.4650    2.9190   -0.1360 ca        1 GW7      0.661900
     17 N3         -4.8070    2.8260   -0.1830 nb        1 GW7     -0.687000
     18 C13        -5.2950    1.5670    0.0020 ca        1 GW7      0.475100
     19 C14        -6.6860    1.1650    0.0020 cc        1 GW7     -0.253800
     20 C15        -6.8250   -0.1810    0.2190 cd        1 GW7     -0.062600
     21 C16        -8.0970   -0.9230    0.2930 c3        1 GW7     -0.021200
     22 C17        -8.8590   -0.8890   -1.0110 c3        1 GW7     -0.090100
     23 S1         -5.3390   -0.9670    0.4310 ss        1 GW7      0.057500
     24 C18        -4.4440    0.4340    0.2280 ca        1 GW7     -0.380700
     25 C19        -0.0940   -1.3010   -0.3740 ca        1 GW7     -0.139000
     26 C20         1.2980   -1.2950   -0.4450 ca        1 GW7      0.008400
     27 CL1         2.0620   -2.4790   -1.3950 cl        1 GW7     -0.072400
     28 C21         6.4830    1.5220    0.5920 ca        1 GW7     -0.165000
     29 H2          9.2150    0.4590   -1.1970 ha        1 GW7      0.149000
     30 H3          7.4730   -1.0590   -2.1580 ha        1 GW7      0.140000
     31 H4          5.1090   -0.9220   -1.3640 ha        1 GW7      0.159000
     32 H61         4.0860    0.9320    1.6410 h1        1 GW7      0.055200
     33 H62         3.6180    1.6880    0.0320 h1        1 GW7      0.055200
     34 H8          1.9120    1.3910    1.5980 ha        1 GW7      0.146000
     35 H9         -0.5420    1.3780    1.7310 ha        1 GW7      0.160000
     36 H1         -2.5760   -1.3020    0.2610 hn        1 GW7      0.427800
     37 H12        -3.0320    3.9320   -0.2830 h5        1 GW7      0.054100
     38 H14        -7.5010    1.8770   -0.1550 ha        1 GW7      0.175000
     39 H161       -7.8990   -1.9920    0.5810 hc        1 GW7      0.056200
     40 H162       -8.7330   -0.4750    1.1070 hc        1 GW7      0.056200
     41 H171       -9.0660    0.1650   -1.3160 hc        1 GW7      0.041033
     42 H172       -8.2760   -1.3820   -1.8250 hc        1 GW7      0.041033
     43 H173       -9.8320   -1.4260   -0.8960 hc        1 GW7      0.041033
     44 H19        -0.6530   -2.0670   -0.9360 ha        1 GW7      0.147000
     45 H21         6.2170    2.2500    1.3720 ha        1 GW7      0.147000
@<TRIPOS>BOND
     1    1    2 1   
     2    2    3 ar  
     3    2   28 ar  
     4    3    4 ar  
     5    3   29 1   
     6    4    5 ar  
     7    4   30 1   
     8    5    6 ar  
     9    5   31 1   
    10    6    7 1   
    11    6   28 ar  
    12    7    8 1   
    13    7   32 1   
    14    7   33 1   
    15    8    9 1   
    16    9   10 ar  
    17    9   26 ar  
    18   10   11 ar  
    19   10   34 1   
    20   11   12 ar  
    21   11   35 1   
    22   12   13 1   
    23   12   25 ar  
    24   13   14 1   
    25   13   36 1   
    26   14   15 ar  
    27   14   24 ar  
    28   15   16 ar  
    29   16   17 ar  
    30   16   37 1   
    31   17   18 ar  
    32   18   19 1   
    33   18   24 ar  
    34   19   20 2   
    35   19   38 1   
    36   20   21 1   
    37   20   23 1   
    38   21   22 1   
    39   21   39 1   
    40   21   40 1   
    41   22   41 1   
    42   22   42 1   
    43   22   43 1   
    44   23   24 1   
    45   25   26 ar  
    46   25   44 1   
    47   26   27 1   
    48   28   45 1   
@<TRIPOS>SUBSTRUCTURE
     1 GW7         1 TEMP              0 ****  ****    0 ROOT
