@<TRIPOS>MOLECULE
GW7
   45    48     1     0     0
SMALL
bcc


@<TRIPOS>ATOM
      1 F1          1.3390    1.7710    1.2600 f         1 GW7     -0.141900
      2 C1          2.0720    0.7680    0.7190 ca        1 GW7      0.124900
      3 C2          2.3940   -0.3610    1.4950 ca        1 GW7     -0.161000
      4 C3          3.1460   -1.3840    0.9260 ca        1 GW7     -0.107000
      5 C4          3.5830   -1.2950   -0.3960 ca        1 GW7     -0.115000
      6 C5          3.2630   -0.1730   -1.1650 ca        1 GW7     -0.069300
      7 C6          3.7320   -0.0250   -2.5760 c3        1 GW7      0.173700
      8 O1          4.0790   -1.3290   -3.0680 os        1 GW7     -0.316900
      9 C7          4.8250   -1.3420   -4.2300 ca        1 GW7      0.122100
     10 C8          4.8670   -0.2730   -5.1350 ca        1 GW7     -0.179000
     11 C9          5.5970   -0.3700   -6.3130 ca        1 GW7     -0.074000
     12 C10         6.3130   -1.5460   -6.6120 ca        1 GW7      0.109600
     13 N1          7.0000   -1.6960   -7.8390 nu        1 GW7     -0.715300
     14 C11         7.9850   -0.7930   -8.2660 ca        1 GW7      0.718200
     15 N2          8.1920    0.4010   -7.6450 nb        1 GW7     -0.750000
     16 C12         9.1360    1.2250   -8.1930 ca        1 GW7      0.661900
     17 N3          9.9130    1.0180   -9.2720 nb        1 GW7     -0.687000
     18 C13         9.7110   -0.1780   -9.8950 ca        1 GW7      0.475100
     19 C14        10.3970   -0.6720  -11.0700 cc        1 GW7     -0.253800
     20 C15         9.9480   -1.9150  -11.4340 cd        1 GW7     -0.062600
     21 C16        10.4170   -2.7070  -12.5860 c3        1 GW7     -0.021200
     22 C17        11.8740   -3.0890  -12.4660 c3        1 GW7     -0.090100
     23 S1          8.7260   -2.4950  -10.4130 ss        1 GW7      0.057500
     24 C18         8.7480   -1.1360   -9.4340 ca        1 GW7     -0.380700
     25 C19         6.2710   -2.6210   -5.6990 ca        1 GW7     -0.139000
     26 C20         5.5340   -2.5260   -4.5190 ca        1 GW7      0.007400
     27 Cl1         5.5210   -3.8590   -3.4660 cl        1 GW7     -0.072400
     28 C21         2.5040    0.8630   -0.6150 ca        1 GW7     -0.165000
     29 H2          2.0480   -0.4230    2.5370 ha        1 GW7      0.149000
     30 H3          3.3990   -2.2710    1.5250 ha        1 GW7      0.140000
     31 H4          4.1740   -2.1110   -0.8430 ha        1 GW7      0.159000
     32 H61         4.6290    0.6500   -2.6150 h1        1 GW7      0.055200
     33 H62         2.9130    0.3930   -3.2230 h1        1 GW7      0.055200
     34 H8          4.3140    0.6550   -4.9250 ha        1 GW7      0.146000
     35 H9          5.6070    0.4850   -7.0090 ha        1 GW7      0.160000
     36 H1          7.1940   -2.6460   -8.0880 hn        1 GW7      0.427800
     37 H12         9.2740    2.1910   -7.6600 h5        1 GW7      0.054100
     38 H14        11.1730   -0.0960  -11.5810 ha        1 GW7      0.175000
     39 H161        9.7950   -3.6380  -12.6880 hc        1 GW7      0.056200
     40 H162       10.2670   -2.1060  -13.5260 hc        1 GW7      0.056200
     41 H171       12.1960   -3.6490  -13.3770 hc        1 GW7      0.041033
     42 H172       12.5110   -2.1770  -12.3630 hc        1 GW7      0.041033
     43 H173       12.0420   -3.7370  -11.5730 hc        1 GW7      0.041033
     44 H19         6.8220   -3.5530   -5.9080 ha        1 GW7      0.147000
     45 H21         2.2400    1.7490   -1.2100 ha        1 GW7      0.147000
@<TRIPOS>BOND
     1    1    2 1   
     2    2    3 ar  
     3    2   28 ar  
     4    3    4 ar  
     5    3   29 1   
     6    4    5 ar  
     7    4   30 1   
     8    5    6 ar  
     9    5   31 1   
    10    6    7 1   
    11    6   28 ar  
    12    7    8 1   
    13    7   32 1   
    14    7   33 1   
    15    8    9 1   
    16    9   10 ar  
    17    9   26 ar  
    18   10   11 ar  
    19   10   34 1   
    20   11   12 ar  
    21   11   35 1   
    22   12   13 1   
    23   12   25 ar  
    24   13   14 1   
    25   13   36 1   
    26   14   15 ar  
    27   14   24 ar  
    28   15   16 ar  
    29   16   17 ar  
    30   16   37 1   
    31   17   18 ar  
    32   18   19 1   
    33   18   24 ar  
    34   19   20 2   
    35   19   38 1   
    36   20   21 1   
    37   20   23 1   
    38   21   22 1   
    39   21   39 1   
    40   21   40 1   
    41   22   41 1   
    42   22   42 1   
    43   22   43 1   
    44   23   24 1   
    45   25   26 ar  
    46   25   44 1   
    47   26   27 1   
    48   28   45 1   
@<TRIPOS>SUBSTRUCTURE
     1 GW7         1 TEMP              0 ****  ****    0 ROOT
