@<TRIPOS>MOLECULE
GW7
   46    49     1     0     0
SMALL
bcc


@<TRIPOS>ATOM
      1 F1          1.3420   -0.4970    1.1280 f         1 GW7     -0.127900
      2 C1          2.4720   -0.8970    0.5000 ca        1 GW7      0.132900
      3 C2          3.2880   -1.8860    1.0820 ca        1 GW7     -0.141000
      4 C3          4.4460   -2.2880    0.4240 ca        1 GW7     -0.102000
      5 C4          4.8040   -1.7170   -0.7970 ca        1 GW7     -0.113000
      6 C5          3.9940   -0.7330   -1.3720 ca        1 GW7     -0.093300
      7 C6          4.3880   -0.0880   -2.6580 c3        1 GW7      0.177700
      8 O1          4.6240   -1.1660   -3.5970 os        1 GW7     -0.287900
      9 C7          4.9310   -0.8150   -4.8750 ca        1 GW7      0.210100
     10 C8          5.0930    0.5110   -5.3140 ca        1 GW7     -0.201000
     11 C9          5.4100    0.7880   -6.6360 ca        1 GW7     -0.037000
     12 C10         5.5620   -0.2730   -7.5450 ca        1 GW7     -0.107400
     13 N1          5.8690    0.0090   -8.9510 n4        1 GW7     -0.607100
     14 C11         7.2850    0.4170   -9.1530 ca        1 GW7      0.547200
     15 N2          7.5960    1.7140   -8.9380 nb        1 GW7     -0.683000
     16 C12         8.9040    2.0630   -9.1410 ca        1 GW7      0.661900
     17 N3          9.9150    1.2580   -9.5310 nb        1 GW7     -0.600000
     18 C13         9.5880   -0.0390   -9.7430 ca        1 GW7      0.484100
     19 C14        10.4710   -1.1030  -10.1700 cc        1 GW7     -0.240800
     20 C15         9.8140   -2.2970  -10.2880 cd        1 GW7     -0.008600
     21 C16        10.3930   -3.5860  -10.7100 c3        1 GW7     -0.036200
     22 C17        11.4880   -4.0560   -9.7810 c3        1 GW7     -0.094100
     23 S1          8.1620   -2.1800   -9.8910 ss        1 GW7      0.073500
     24 C18         8.2350   -0.5460   -9.5590 ca        1 GW7     -0.338700
     25 C19         5.4150   -1.6080   -7.1230 ca        1 GW7     -0.074000
     26 C20         5.0980   -1.8850   -5.7980 ca        1 GW7     -0.011600
     27 CL1         4.9200   -3.4990   -5.3310 cl        1 GW7     -0.005400
     28 C21         2.8210   -0.3210   -0.7360 ca        1 GW7     -0.149000
     29 H2          3.0010   -2.3290    2.0470 ha        1 GW7      0.162000
     30 H3          5.0850   -3.0650    0.8730 ha        1 GW7      0.150000
     31 H4          5.7170   -2.0440   -1.3170 ha        1 GW7      0.144000
     32 H61         3.5740    0.5730   -3.0570 h1        1 GW7      0.060700
     33 H62         5.3420    0.4920   -2.5370 h1        1 GW7      0.060700
     34 H8          4.9740    1.3510   -4.6100 ha        1 GW7      0.174000
     35 H9          5.5400    1.8370   -6.9540 ha        1 GW7      0.172000
     36 H1          5.6940   -0.8310   -9.5170 hn        1 GW7      0.467800
     37 H12         9.1460    3.1350   -8.9610 h5        1 GW7      0.093100
     38 H14        11.5360   -0.9340  -10.3680 ha        1 GW7      0.204000
     39 H161       10.8110   -3.4690  -11.7500 hc        1 GW7      0.073700
     40 H162        9.5870   -4.3690  -10.7650 hc        1 GW7      0.073700
     41 H171       11.9220   -5.0100  -10.1680 hc        1 GW7      0.052367
     42 H172       11.0900   -4.2390   -8.7540 hc        1 GW7      0.052367
     43 H173       12.3030   -3.2950   -9.7150 hc        1 GW7      0.052367
     44 H19         5.5420   -2.4480   -7.8290 ha        1 GW7      0.162000
     45 H21         2.1690    0.4450   -1.1790 ha        1 GW7      0.151000
     46 H121        5.2470    0.7680   -9.2710 hn        1 GW7      0.467800
@<TRIPOS>BOND
     1    1    2 1   
     2    2    3 ar  
     3    2   28 ar  
     4    3    4 ar  
     5    3   29 1   
     6    4    5 ar  
     7    4   30 1   
     8    5    6 ar  
     9    5   31 1   
    10    6    7 1   
    11    6   28 ar  
    12    7    8 1   
    13    7   32 1   
    14    7   33 1   
    15    8    9 1   
    16    9   10 ar  
    17    9   26 ar  
    18   10   11 ar  
    19   10   34 1   
    20   11   12 ar  
    21   11   35 1   
    22   12   13 1   
    23   12   25 ar  
    24   13   14 1   
    25   13   36 1   
    26   13   46 1   
    27   14   15 ar  
    28   14   24 ar  
    29   15   16 ar  
    30   16   17 ar  
    31   16   37 1   
    32   17   18 ar  
    33   18   19 1   
    34   18   24 ar  
    35   19   20 2   
    36   19   38 1   
    37   20   21 1   
    38   20   23 1   
    39   21   22 1   
    40   21   39 1   
    41   21   40 1   
    42   22   41 1   
    43   22   42 1   
    44   22   43 1   
    45   23   24 1   
    46   25   26 ar  
    47   25   44 1   
    48   26   27 1   
    49   28   45 1   
@<TRIPOS>SUBSTRUCTURE
     1 GW7         1 TEMP              0 ****  ****    0 ROOT
