@<TRIPOS>MOLECULE
GW8
   81    72     1     0     0
SMALL
bcc


@<TRIPOS>ATOM
      1 N1          1.4510    2.5060   -6.2080 n1        1 GW8     -0.552800
      2 C2          2.2680    2.1260   -5.1810 c1        1 GW8      0.552600
      3 N3          1.7490    1.4660   -4.1020 n1        1 GW8     -0.603800
      4 C4          0.4360    1.1890   -4.0510 c1        1 GW8      0.159800
      5 C5         -0.3820    1.5700   -5.0790 c1        1 GW8     -0.154000
      6 C6          0.1390    2.2320   -6.1590 c1        1 GW8      0.391300
      7 CAA        -6.6040   -8.0150    6.9100 c3        1 GW8      0.157100
      8 CAB        -0.2690   -1.0430   -3.2040 c3        1 GW8      0.200100
      9 CAC         9.2570    7.4980   -8.4130 c3        1 GW8     -0.368300
     10 OAD        -2.6580    0.0800    3.1850 o         1 GW8     -0.611100
     11 OAE        -2.2500   -4.2440    5.0030 o         1 GW8     -0.595500
     12 OAF         6.9770    8.3890   -7.3440 o         1 GW8     -0.647300
     13 OAG         6.7270    6.7600   -8.8400 o         1 GW8     -0.647300
     14 CAH        -2.9300   -0.5700    7.6140 c1        1 GW8     -0.072833
     15 CAJ        -2.1600   -0.1890    6.5210 c1        1 GW8     -0.084500
     16 CAK        -3.3790   -1.8830    7.7260 c1        1 GW8     -0.072833
     17 CAM         5.1770    5.7870   -5.6910 c1        1 GW8     -0.040500
     18 CAN         6.3920    3.9490   -6.6670 c1        1 GW8     -0.072833
     19 CAO         4.1230    4.9310   -5.3880 c1        1 GW8     -0.050500
     20 CAP         5.3370    3.0920   -6.3640 c1        1 GW8     -0.072833
     21 CAQ        -1.7490    1.6210    0.1690 c1        1 GW8     -0.084500
     22 CAR        -0.1370   -0.1520    0.4120 c1        1 GW8     -0.072833
     23 CAS        -1.3850    1.7670   -1.1640 c1        1 GW8     -0.154000
     24 CAT         0.2280   -0.0070   -0.9210 c1        1 GW8     -0.072833
     25 CAU        -2.2860   -2.4330    5.6510 c1        1 GW8     -0.043500
     26 CAV        -5.1230   -7.0400    5.3680 c3        1 GW8      0.144300
     27 CAW        -6.0390   -5.7470    7.1580 c3        1 GW8      0.144300
     28 CAX        -4.6170   -5.7630    4.7130 c3        1 GW8      0.023800
     29 CAY        -5.5270   -4.4750    6.4930 c3        1 GW8      0.023800
     30 CAZ         7.6810    5.9620   -6.4770 c3        1 GW8     -0.284500
     31 NBC        -0.5910    0.1350    2.1850 n         1 GW8     -0.474200
     32 NBD        -0.9470   -0.7570    4.4740 n         1 GW8     -0.474200
     33 NBE         3.6840    2.3200   -5.2860 n3        1 GW8     -0.543400
     34 CBF        -1.4640   -0.1370    3.2870 c         1 GW8      0.766100
     35 CBG        -3.1770   -3.9840    5.7540 c1        1 GW8      0.572500
     36 CBH         6.3120    5.2960   -6.3310 c1        1 GW8     -0.058100
     37 CBI        -1.1270    0.6630    0.9580 c1        1 GW8      0.063700
     38 CBJ         4.2030    3.5820   -5.7250 c1        1 GW8      0.116800
     39 CBK        -1.8370   -1.1200    5.5380 c1        1 GW8      0.063700
     40 CBL        -3.0570   -2.8140    6.7460 c1        1 GW8     -0.093000
     41 CBM        -0.3950    0.9520   -1.7100 c1        1 GW8      0.159800
     42 NBP        -6.2660   -6.8040    6.2090 n3        1 GW8     -0.732600
     43 NBQ        -0.0810    0.3660   -2.9910 n3        1 GW8     -0.480800
     44 NBR        -4.4090   -4.7210    5.6570 n3        1 GW8     -0.273400
     45 SBS         7.6160    7.1760   -7.7860 s6        1 GW8      1.333000
     46 H5         -1.3420    1.3690   -5.0430 ha        1 GW8      0.098500
     47 H6         -0.4480    2.5050   -6.8970 ha        1 GW8      0.106500
     48 HAA        -5.9400   -8.1820    7.6140 h1        1 GW8      0.033033
     49 HAAA       -6.6090   -8.7720    6.2760 h1        1 GW8      0.033033
     50 HAAB       -7.4930   -7.9210    7.3140 h1        1 GW8      0.033033
     51 HAB        -0.0760   -1.2620   -4.1420 h1        1 GW8      0.049033
     52 HABA        0.3370   -1.5460   -2.6190 h1        1 GW8      0.049033
     53 HABB       -1.1990   -1.2840   -2.9960 h1        1 GW8      0.049033
     54 HAC         9.2360    8.2920   -8.9930 h1        1 GW8      0.115033
     55 HACA        9.5680    6.7230   -8.9300 h1        1 GW8      0.115033
     56 HACB        9.8690    7.6570   -7.6610 h1        1 GW8      0.115033
     57 HAH        -3.1580    0.0890    8.3090 ha        1 GW8      0.086500
     58 HAJ        -1.8440    0.7370    6.4420 ha        1 GW8      0.094500
     59 HAK        -3.9220   -2.1520    8.4990 ha        1 GW8      0.086500
     60 HAM         5.1210    6.7360   -5.4540 ha        1 GW8      0.077500
     61 HAN         7.1920    3.6030   -7.1180 ha        1 GW8      0.086500
     62 HAO         3.3230    5.2770   -4.9370 ha        1 GW8      0.101500
     63 HAP         5.3940    2.1440   -6.6010 ha        1 GW8      0.086500
     64 HAQ        -2.4480    2.1960    0.5530 ha        1 GW8      0.094500
     65 HAR         0.3040   -0.8310    0.9700 ha        1 GW8      0.086500
     66 HAS        -1.8260    2.4470   -1.7230 ha        1 GW8      0.098500
     67 HAT         0.9250   -0.5810   -1.3040 ha        1 GW8      0.086500
     68 HAU        -2.0600   -3.0860    4.9620 ha        1 GW8      0.117500
     69 HAV        -5.3710   -7.6800    4.6670 h1        1 GW8      0.038700
     70 HAVA       -4.4020   -7.4270    5.9120 h1        1 GW8      0.038700
     71 HAW        -6.8840   -5.5460    7.6210 h1        1 GW8      0.038700
     72 HAWA       -5.3780   -6.0480    7.8190 h1        1 GW8      0.038700
     73 HAX        -5.2760   -5.4640    4.0470 h1        1 GW8      0.070450
     74 HAXA       -3.7700   -5.9540    4.2580 h1        1 GW8      0.070450
     75 HAY        -6.2500   -4.0840    5.9520 h1        1 GW8      0.070450
     76 HAYA       -5.2680   -3.8340    7.1890 h1        1 GW8      0.070450
     77 HAZ         7.9220    6.4040   -5.6320 h1        1 GW8      0.112700
     78 HAZA        8.3540    5.2830   -6.6940 h1        1 GW8      0.112700
     79 HNBC        0.3130    0.0390    2.2840 hn        1 GW8      0.309500
     80 HNBD       -0.0590   -0.9880    4.5210 hn        1 GW8      0.309500
     81 HNBE        4.2550    1.6250   -5.1140 hn        1 GW8      0.434800
@<TRIPOS>BOND
     1    1    6 3   
     2    2    3 3   
     3    2   33 1   
     4    4    5 3   
     5    4   43 1   
     6    5   46 1   
     7    6   47 1   
     8    7   42 1   
     9    7   48 1   
    10    7   49 1   
    11    7   50 1   
    12    8   43 1   
    13    8   51 1   
    14    8   52 1   
    15    8   53 1   
    16    9   45 1   
    17    9   54 1   
    18    9   55 1   
    19    9   56 1   
    20   10   34 2   
    21   11   35 2   
    22   12   45 2   
    23   13   45 2   
    24   14   16 3   
    25   14   57 1   
    26   15   39 3   
    27   15   58 1   
    28   16   59 1   
    29   17   36 3   
    30   17   60 1   
    31   18   20 3   
    32   18   61 1   
    33   19   38 3   
    34   19   62 1   
    35   20   63 1   
    36   21   37 3   
    37   21   64 1   
    38   22   24 3   
    39   22   65 1   
    40   23   41 3   
    41   23   66 1   
    42   24   67 1   
    43   25   40 3   
    44   25   68 1   
    45   26   28 1   
    46   26   42 1   
    47   26   69 1   
    48   26   70 1   
    49   27   29 1   
    50   27   42 1   
    51   27   71 1   
    52   27   72 1   
    53   28   44 1   
    54   28   73 1   
    55   28   74 1   
    56   29   44 1   
    57   29   75 1   
    58   29   76 1   
    59   30   36 1   
    60   30   45 1   
    61   30   77 1   
    62   30   78 1   
    63   31   34 1   
    64   31   37 1   
    65   31   79 1   
    66   32   34 1   
    67   32   39 1   
    68   32   80 1   
    69   33   38 1   
    70   33   81 1   
    71   35   44 2   
    72   41   43 1   
@<TRIPOS>SUBSTRUCTURE
     1 GW8         1 TEMP              0 ****  ****    0 ROOT
