@<TRIPOS>MOLECULE
GW8
   81    81     1     0     0
SMALL
bcc


@<TRIPOS>ATOM
      1 N1          0.2750    0.2620   -0.3280 n2        1 GW8     -0.361000
      2 C2          0.1920   -0.8260    0.5580 c2        1 GW8      0.298000
      3 N3          0.0430   -0.7170    1.8560 n2        1 GW8     -0.281000
      4 C4          0.0360    0.5230    2.5560 c2        1 GW8      0.111000
      5 C5         -1.3210    0.8920    3.1300 c3        1 GW8     -0.199000
      6 C6          0.3560    1.1860   -1.0660 c1        1 GW8      0.211000
      7 CAB         0.1580    3.3390    4.4110 c1        1 GW8     -0.032000
      8 CAC        -3.7160   -3.6670   -6.8970 c3        1 GW8     -0.950000
      9 OAD         7.1310    2.7620    1.4230 o         1 GW8     -0.374000
     10 OAF        -3.5110   -1.5560   -5.5290 o         1 GW8     -0.925000
     11 OAG        -4.3500   -3.5350   -4.4570 o         1 GW8     -0.925000
     12 CAH        12.1520    1.6820    2.0890 c1        1 GW8     -0.503000
     13 CAJ        11.2010    1.8870    1.2350 cu        1 GW8      0.173000
     14 CAK        13.0930    1.4850    2.9340 c1        1 GW8      0.219000
     15 CAM        -1.9120   -3.5900   -2.6090 ca        1 GW8     -0.104500
     16 CAN        -0.2030   -2.2780   -3.6990 ca        1 GW8     -0.104500
     17 CAO        -1.3910   -3.2450   -1.3680 ca        1 GW8     -0.130000
     18 CAP         0.3350   -1.9340   -2.4620 ca        1 GW8     -0.130000
     19 CAQ         4.3960   -0.3000    2.3460 ca        1 GW8     -0.147500
     20 CAR         4.4320    1.9580    1.4610 ca        1 GW8     -0.147500
     21 CAS         3.0550   -0.1520    2.6700 ca        1 GW8     -0.113000
     22 CAT         3.0950    2.1060    1.8010 ca        1 GW8     -0.113000
     23 CAU        10.7770    2.0230   -0.1750 cx        1 GW8     -0.134000
     24 CAV        11.2480    5.4030   -2.6490 c2        1 GW8     -0.043000
     25 CAW        10.7370    4.8010   -6.8480 cx        1 GW8     -0.186000
     26 CAX        11.6460    6.6740   -2.5570 c2        1 GW8     -0.244000
     27 CAY        13.6650    2.1480   -3.2020 c2        1 GW8     -0.071000
     28 NBD         8.7740    1.1480    1.2210 ns        1 GW8     -0.338000
     29 NBE         0.3350   -2.1330   -0.0130 nu        1 GW8     -0.231000
     30 CBF         7.4210    1.5480    1.3350 c2        1 GW8      0.393000
     31 CBG        11.9320    3.2260   -2.0120 c2        1 GW8      0.097000
     32 CBH        -1.3280   -3.1040   -3.7860 ca        1 GW8     -0.064000
     33 CBI         5.1100    0.7510    1.7270 ca        1 GW8      0.056000
     34 CBJ        -0.2560   -2.4100   -1.2750 ca        1 GW8      0.015000
     35 CBK         9.7590    2.1370    0.9740 cx        1 GW8     -0.018000
     36 CBL        11.0950    3.2200   -0.9440 c2        1 GW8     -0.186000
     37 CBM         2.3730    1.0550    2.4080 ca        1 GW8     -0.026000
     38 NBP        10.5340    4.2380   -5.5230 n7        1 GW8     -0.242000
     39 NBQ         1.0500    1.2920    2.8290 n2        1 GW8     -0.209000
     40 NBR        12.5860    2.0840   -2.5160 n2        1 GW8     -0.154000
     41 H5         -1.6640    0.0800    3.8160 hc        1 GW8      0.116333
     42 H6         -2.0580    1.0080    2.3000 hc        1 GW8      0.116333
     43 HAA        11.5660    2.6990   -6.7740 h1        1 GW8      0.114500
     44 HAAA       11.3260    4.2800   -4.9080 hn        1 GW8      0.154000
     45 HAAB        9.7340    2.7610   -6.9000 h1        1 GW8      0.114500
     46 HAB         0.6500    3.9740    3.6580 ha        1 GW8      0.013000
     47 HABA       -1.2670    1.8570    3.7080 hc        1 GW8      0.116333
     48 HABB        0.8840    2.9600    5.1460 ha        1 GW8      0.013000
     49 HAC        -3.7010   -4.7840   -6.8610 h1        1 GW8      0.157000
     50 HACA       -2.9610   -3.3590   -7.6600 h1        1 GW8      0.157000
     51 HACB       -4.7140   -3.3880   -7.3260 h1        1 GW8      0.157000
     52 HAH        14.2190    3.0620   -3.4870 h4        1 GW8      0.128000
     53 HAJ         9.3810    3.1650    1.2170 h1        1 GW8      0.188000
     54 HAK        10.6190    4.1580   -0.6150 ha        1 GW8      0.151000
     55 HAM        -2.8080   -4.2320   -2.6660 ha        1 GW8      0.152500
     56 HAN         0.2690   -1.8900   -4.6150 ha        1 GW8      0.152500
     57 HAO        -1.8750   -3.6340   -0.4580 ha        1 GW8      0.147500
     58 HAP         1.2310   -1.2940   -2.4250 ha        1 GW8      0.147500
     59 HAQ         4.8920   -1.2560    2.5760 ha        1 GW8      0.151000
     60 HAR         4.9630    2.8040    0.9920 ha        1 GW8      0.151000
     61 HAS         2.5290   -0.9900    3.1550 ha        1 GW8      0.146500
     62 HAT         2.5960    3.0660    1.5880 ha        1 GW8      0.146500
     63 HAU        10.7930    1.0810   -0.7740 hc        1 GW8      0.162000
     64 HAV        10.2110    5.0480   -2.7520 h4        1 GW8      0.158000
     65 HAVA       12.6980    6.9620   -2.4490 ha        1 GW8      0.132500
     66 HAW         9.6750   -1.0350   -0.9330 ha        1 GW8      0.001500
     67 HAWA       14.0960    1.1880   -3.5430 h4        1 GW8      0.128000
     68 HAX        11.7050    5.2660   -7.1260 h1        1 GW8      0.114500
     69 HAXA       10.9200    7.4950   -2.6070 ha        1 GW8      0.132500
     70 HAY         9.8750    5.3670   -7.2580 h1        1 GW8      0.114500
     71 HAYA       10.0970   -1.2760   -0.4610 ha        1 GW8      0.001500
     72 HAZ        -1.8270   -4.6170   -5.1780 h1        1 GW8      0.154500
     73 HAZA       -1.1890   -3.1160   -5.9130 h1        1 GW8      0.154500
     74 HNBC        6.7660   -0.4050    1.4930 hn        1 GW8      0.222000
     75 HNBD        8.9810    0.2330    0.8860 hn        1 GW8      0.221000
     76 HNBE        0.1630   -2.8620    0.6580 hn        1 GW8      0.229000
     77 CAZ        -1.8750   -3.4950   -5.1070 c3        1 GW8     -0.802000
     78 NBC         6.4480    0.5280    1.3380 ns        1 GW8     -0.305000
     79 SBS        -3.4840   -2.9450   -5.3850 s6        1 GW8      2.815000
     80 CAA        10.6560    3.3210   -6.6450 cx        1 GW8     -0.186000
     81 OAE        12.2260    4.4080   -2.7120 os        1 GW8     -0.222000
@<TRIPOS>BOND
     1    1    2 1   
     2    1    6 1   
     3    2    3 1   
     4    2   29 1   
     5    3    4 1   
     6    4    5 1   
     7    4   39 1   
     8    5   41 1   
     9    5   42 1   
    10    5   47 1   
    11    7   46 1   
    12    7   48 1   
    13    8   49 1   
    14    8   50 1   
    15    8   51 1   
    16    8   79 1   
    17    9   30 1   
    18   10   79 1   
    19   11   79 1   
    20   12   13 1   
    21   12   14 1   
    22   13   23 1   
    23   13   35 1   
    24   15   17 1   
    25   15   32 1   
    26   15   55 1   
    27   16   18 1   
    28   16   32 1   
    29   16   56 1   
    30   17   34 1   
    31   17   57 1   
    32   18   34 1   
    33   18   58 1   
    34   19   21 1   
    35   19   33 1   
    36   19   59 1   
    37   20   22 1   
    38   20   33 1   
    39   20   60 1   
    40   21   37 1   
    41   21   61 1   
    42   22   37 1   
    43   22   62 1   
    44   23   35 1   
    45   23   36 1   
    46   23   63 1   
    47   24   26 1   
    48   24   64 1   
    49   24   81 1   
    50   25   38 1   
    51   25   68 1   
    52   25   70 1   
    53   25   80 1   
    54   26   65 1   
    55   26   69 1   
    56   27   40 1   
    57   27   52 1   
    58   27   67 1   
    59   28   30 1   
    60   28   35 1   
    61   28   75 1   
    62   29   34 1   
    63   29   76 1   
    64   30   78 1   
    65   31   36 1   
    66   31   40 1   
    67   31   81 1   
    68   32   77 1   
    69   33   78 1   
    70   35   53 1   
    71   36   54 1   
    72   37   39 1   
    73   38   44 1   
    74   38   80 1   
    75   43   80 1   
    76   45   80 1   
    77   66   71 1   
    78   72   77 1   
    79   73   77 1   
    80   74   78 1   
    81   77   79 1   
@<TRIPOS>SUBSTRUCTURE
     1 GW8         1 TEMP              0 ****  ****    0 ROOT
