@<TRIPOS>MOLECULE
GW8
   81    82     1     0     0
SMALL
bcc


@<TRIPOS>ATOM
      1 N1          0.5560    1.1630    0.8450 n2        1 GW8     -0.342000
      2 C2          0.6750   -0.1290    1.3720 c2        1 GW8      0.347000
      3 N3          0.6210   -0.4650    2.6480 n2        1 GW8     -0.296000
      4 C4          0.3550    0.4720    3.6880 cx        1 GW8      0.169000
      5 C5         -0.5860   -0.1260    4.7330 c3        1 GW8     -0.214000
      6 C6          0.4320    2.3020    0.5390 c1        1 GW8      0.220000
      7 CAB         0.5710    1.9140    3.6000 cu        1 GW8     -0.622000
      8 CAC         3.6700   -1.0060   -7.1580 c3        1 GW8     -0.954000
      9 OAD         6.7000    1.8370    0.5250 o         1 GW8     -0.364000
     10 OAF         2.2010    0.7040   -6.0250 o         1 GW8     -0.933500
     11 OAG         1.4610   -1.5770   -6.0840 o         1 GW8     -0.933500
     12 CAH        11.6080    2.0540   -1.1130 c2        1 GW8     -0.437000
     13 CAJ        10.8330    1.6510    0.0310 c2        1 GW8     -0.150000
     14 CAK        12.9180    2.1490   -1.2140 c1        1 GW8      0.197000
     15 CAM         1.6700   -1.8800   -3.0890 ca        1 GW8     -0.099000
     16 CAN         3.1640   -0.1780   -2.2580 ca        1 GW8     -0.099000
     17 CAO         1.0170   -1.9160   -1.8650 ca        1 GW8     -0.150500
     18 CAP         2.5310   -0.2160   -1.0180 ca        1 GW8     -0.150500
     19 CAQ         5.1260    0.1760    4.0570 ca        1 GW8     -0.163000
     20 CAR         4.6770    1.9430    2.4500 ca        1 GW8     -0.163000
     21 CAS         3.8100    0.2330    4.4920 ca        1 GW8     -0.087500
     22 CAT         3.3560    1.9900    2.8800 ca        1 GW8     -0.087500
     23 CAU         8.7030    1.7760   -1.2210 c2        1 GW8     -0.081000
     24 CAV         7.2020    5.4340   -4.8680 c1        1 GW8     -0.233000
     25 CAW         5.4710    1.6620   -5.9600 cu        1 GW8     -0.511000
     26 CAX         6.4980    6.1980   -5.4630 c1        1 GW8     -0.233000
     27 CAY         6.8170   -0.7090   -3.4160 c3        1 GW8     -0.081000
     28 NBD         8.7950    1.0290    1.1390 n         1 GW8     -0.317000
     29 NBE         0.7590   -1.1830    0.4270 nh        1 GW8     -0.280000
     30 CBF         7.4340    1.3190    1.3930 c2        1 GW8      0.401000
     31 CBG         8.0280    1.4050   -3.5600 c2        1 GW8      0.334000
     32 CBH         2.7480   -1.0090   -3.3020 ca        1 GW8     -0.077000
     33 CBI         5.5870    1.0350    3.0300 ca        1 GW8      0.080000
     34 CBJ         1.4410   -1.0820   -0.8020 ca        1 GW8      0.059000
     35 CBK         9.4800    1.4930   -0.0030 c2        1 GW8      0.063000
     36 CBL         8.8090    1.0520   -2.3390 c2        1 GW8     -0.184000
     37 CBM         2.9100    1.1450    3.9100 ca        1 GW8     -0.047000
     38 NBP         6.1630    2.9350   -6.1560 n4        1 GW8     -0.090000
     39 NBQ         1.5520    1.2240    4.3780 n4        1 GW8      0.000000
     40 NBR         7.1260    0.5200   -4.0700 n         1 GW8     -0.398000
     41 H5         -0.1550   -1.0390    5.2070 hc        1 GW8      0.090000
     42 H6         -1.5450   -0.4020    4.2290 hc        1 GW8      0.090000
     43 HAA         5.4660    2.3390   -8.1460 hx        1 GW8      0.112000
     44 HAAA        5.6690    3.8130   -6.2230 hn        1 GW8      0.237500
     45 HAAB        6.9980    1.4720   -7.6000 hx        1 GW8      0.112000
     46 HAB         0.0070    2.7870    3.8820 hx        1 GW8      0.162000
     47 HABA       -0.8140    0.6290    5.5240 hc        1 GW8      0.090000
     48 HABB        1.5340    1.2480    5.3920 hn        1 GW8      0.174000
     49 HAC         3.9800   -2.0790   -7.1760 h1        1 GW8      0.158667
     50 HACA        4.6060   -0.3990   -7.0460 h1        1 GW8      0.158667
     51 HACB        3.2760   -0.7810   -8.1810 h1        1 GW8      0.158667
     52 HAH        11.0280    2.3250   -2.0300 ha        1 GW8      0.210000
     53 HAJ        11.4050    1.4730    0.9570 ha        1 GW8      0.128000
     54 HAK         9.4800    0.1840   -2.4330 ha        1 GW8      0.145000
     55 HAM         1.3190   -2.5300   -3.9100 ha        1 GW8      0.154500
     56 HAN         4.0090    0.5130   -2.4060 ha        1 GW8      0.154500
     57 HAO         0.1650   -2.5990   -1.7290 ha        1 GW8      0.146500
     58 HAP         2.9060    0.4350   -0.2130 ha        1 GW8      0.146500
     59 HAQ         5.8070   -0.5490    4.5290 ha        1 GW8      0.155000
     60 HAR         4.9980    2.6230    1.6430 ha        1 GW8      0.155000
     61 HAS         3.4820   -0.4480    5.2930 ha        1 GW8      0.163000
     62 HAT         2.6390    2.6920    2.4120 ha        1 GW8      0.163000
     63 HAU         8.0080    2.6340   -1.1490 ha        1 GW8      0.173000
     64 HAV         7.0560    3.0370   -5.6740 hn        1 GW8      0.237500
     65 HAVA        5.8810    6.8900   -5.9790 ha        1 GW8      0.235000
     66 HAW         4.3920    1.6630   -5.7610 hx        1 GW8      0.124000
     67 HAWA        6.0460   -0.5620   -2.6080 h1        1 GW8      0.069667
     68 HAX         6.4720    0.8410   -4.8470 hn        1 GW8      0.322000
     69 HAXA        7.8250    4.7530   -4.3320 ha        1 GW8      0.235000
     70 HAY         6.3980   -1.4240   -4.1740 h1        1 GW8      0.069667
     71 HAYA        7.7260   -1.1750   -2.9510 h1        1 GW8      0.069667
     72 HAZ         3.9620   -2.0230   -4.7000 h1        1 GW8      0.164500
     73 HAZA        4.3340   -0.2800   -4.5340 h1        1 GW8      0.164500
     74 HNBC        7.5030    0.3830    3.2440 hn        1 GW8      0.225000
     75 HNBD        9.3810    0.8220    1.9190 hn        1 GW8      0.222000
     76 HNBE        0.7200   -2.1070    0.8080 hn        1 GW8      0.247000
     77 CAZ         3.4750   -1.0140   -4.5940 c3        1 GW8     -0.813000
     78 NBC         6.9500    0.9890    2.6780 n         1 GW8     -0.319000
     79 SBS         2.5150   -0.6590   -5.9710 s6        1 GW8      2.817000
     80 CAA         6.0610    1.9750   -7.2790 cx        1 GW8     -0.130000
     81 OAE         8.2350    2.5130   -4.1300 o         1 GW8     -0.472000
@<TRIPOS>BOND
     1    1    2 1   
     2    1    6 1   
     3    2    3 1   
     4    2   29 1   
     5    3    4 1   
     6    4    5 1   
     7    4    7 1   
     8    4   39 1   
     9    5   41 1   
    10    5   42 1   
    11    5   47 1   
    12    7   39 1   
    13    7   46 1   
    14    8   49 1   
    15    8   50 1   
    16    8   51 1   
    17    8   79 1   
    18    9   30 1   
    19   10   79 1   
    20   11   79 1   
    21   12   13 1   
    22   12   14 1   
    23   12   52 1   
    24   13   35 1   
    25   13   53 1   
    26   15   17 1   
    27   15   32 1   
    28   15   55 1   
    29   16   18 1   
    30   16   32 1   
    31   16   56 1   
    32   17   34 1   
    33   17   57 1   
    34   18   34 1   
    35   18   58 1   
    36   19   21 1   
    37   19   33 1   
    38   19   59 1   
    39   20   22 1   
    40   20   33 1   
    41   20   60 1   
    42   21   37 1   
    43   21   61 1   
    44   22   37 1   
    45   22   62 1   
    46   23   35 1   
    47   23   36 1   
    48   23   63 1   
    49   24   26 1   
    50   24   69 1   
    51   25   38 1   
    52   25   66 1   
    53   25   80 1   
    54   26   65 1   
    55   27   40 1   
    56   27   67 1   
    57   27   70 1   
    58   27   71 1   
    59   28   30 1   
    60   28   35 1   
    61   28   75 1   
    62   29   34 1   
    63   29   76 1   
    64   30   78 1   
    65   31   36 1   
    66   31   40 1   
    67   31   81 1   
    68   32   77 1   
    69   33   78 1   
    70   36   54 1   
    71   37   39 1   
    72   38   44 1   
    73   38   64 1   
    74   38   80 1   
    75   39   48 1   
    76   40   68 1   
    77   43   80 1   
    78   45   80 1   
    79   72   77 1   
    80   73   77 1   
    81   74   78 1   
    82   77   79 1   
@<TRIPOS>SUBSTRUCTURE
     1 GW8         1 TEMP              0 ****  ****    0 ROOT
