@<TRIPOS>MOLECULE
GW8
   81    85     1     0     0
SMALL
bcc


@<TRIPOS>ATOM
      1 N1          4.3800   -3.4950   -0.9650 nb        1 GW8     -0.754000
      2 C2          3.1430   -2.8780   -0.8400 ca        1 GW8      0.894900
      3 N3          1.9410   -3.5340   -0.6380 nb        1 GW8     -0.799000
      4 C4          1.9750   -4.9030   -0.6090 ca        1 GW8      0.719200
      5 C5          3.2140   -5.6080   -0.7360 ca        1 GW8     -0.462600
      6 C6          4.3680   -4.8350   -0.9080 ca        1 GW8      0.480200
      7 CAB         0.8340   -7.0160   -0.1740 c3        1 GW8      0.197100
      8 CAC         9.7210    2.9420    0.4570 c3        1 GW8     -0.367300
      9 OAD        -3.8010   -1.0770   -0.3880 o         1 GW8     -0.600100
     10 OAF         9.3230    0.5850   -0.3470 o         1 GW8     -0.646800
     11 OAG         8.5510    1.1940    1.8460 o         1 GW8     -0.646800
     12 CAH        -8.3450    1.2370    0.4210 ca        1 GW8     -0.113000
     13 CAJ        -7.6760    0.0760    0.7920 ca        1 GW8     -0.165000
     14 CAK        -7.6560    2.3010   -0.1570 ca        1 GW8     -0.109000
     15 CAM         5.0650    1.3390    0.3740 ca        1 GW8     -0.102000
     16 CAN         6.3750    0.1810   -1.2890 ca        1 GW8     -0.102000
     17 CAO         4.0290    0.4300    0.1950 ca        1 GW8     -0.136000
     18 CAP         5.3430   -0.7290   -1.4870 ca        1 GW8     -0.136000
     19 CAQ        -2.3000   -4.5630    1.3670 ca        1 GW8     -0.148000
     20 CAR        -2.1950   -3.3540   -0.7340 ca        1 GW8     -0.148000
     21 CAS        -1.1060   -5.1980    1.0610 ca        1 GW8     -0.108000
     22 CAT        -0.9990   -3.9930   -1.0380 ca        1 GW8     -0.108000
     23 CAU        -5.5820    1.0440    0.0160 ca        1 GW8     -0.112000
     24 CAV        -3.8210    6.2780   -0.2740 c3        1 GW8      0.143300
     25 CAW        -4.1710    4.9980    1.7540 c3        1 GW8      0.143300
     26 CAX        -3.7410    4.9680   -1.0860 c3        1 GW8      0.082000
     27 CAY        -4.0890    3.6870    0.9410 c3        1 GW8      0.082000
     28 NBD        -5.6260   -1.2020    1.0540 n         1 GW8     -0.461100
     29 NBE         3.0470   -1.4740   -0.9770 nh        1 GW8     -0.707300
     30 CBF        -4.4730   -1.7380    0.4310 c         1 GW8      0.765100
     31 CBG        -5.5730    3.3300   -1.0270 c         1 GW8      0.667700
     32 CBH         6.2500    1.2220   -0.3600 ca        1 GW8     -0.094300
     33 CBI        -2.8710   -3.6280    0.4720 ca        1 GW8      0.049600
     34 CBJ         4.1500   -0.6220   -0.7420 ca        1 GW8      0.144600
     35 CBK        -6.2780   -0.0380    0.5950 ca        1 GW8      0.054600
     36 CBL        -6.2760    2.1990   -0.3500 ca        1 GW8     -0.111600
     37 CBM        -0.4340   -4.9290   -0.1490 ca        1 GW8      0.121600
     38 NBP        -3.4620    6.1030    1.1270 n3        1 GW8     -0.731600
     39 NBQ         0.7670   -5.6130   -0.4910 nh        1 GW8     -0.653700
     40 NBR        -4.4150    3.8510   -0.4560 n         1 GW8     -0.454800
     41 H5          3.2780   -6.6990   -0.7040 ha        1 GW8      0.153000
     42 H6          5.3590   -5.3180   -1.0060 h4        1 GW8      0.027100
     43 HAA        -4.6240    7.7210    1.9490 h1        1 GW8      0.033033
     44 HAAA       -3.1930    7.1470    2.9220 h1        1 GW8      0.033033
     45 HAAB       -2.9310    8.1110    1.3960 h1        1 GW8      0.033033
     46 HAB         1.4120   -7.2080    0.7700 h1        1 GW8      0.046700
     47 HABA       -0.2060   -7.4210   -0.0540 h1        1 GW8      0.046700
     48 HABB        1.3310   -7.5590   -1.0220 h1        1 GW8      0.046700
     49 HAC         9.2820    3.8000    1.0220 h1        1 GW8      0.114367
     50 HACA       10.7270    2.7570    0.9130 h1        1 GW8      0.114367
     51 HACB        9.9160    3.3040   -0.5820 h1        1 GW8      0.114367
     52 HAH        -9.4320    1.3090    0.5780 ha        1 GW8      0.139000
     53 HAJ        -8.2480   -0.7510    1.2390 ha        1 GW8      0.131000
     54 HAK        -8.1900    3.2090   -0.4770 ha        1 GW8      0.152000
     55 HAM         4.9500    2.1510    1.1080 ha        1 GW8      0.144500
     56 HAN         7.3120    0.0720   -1.8620 ha        1 GW8      0.144500
     57 HAO         3.1110    0.5430    0.7920 ha        1 GW8      0.149000
     58 HAP         5.4730   -1.5300   -2.2320 ha        1 GW8      0.149000
     59 HAQ        -2.7960   -4.8000    2.3210 ha        1 GW8      0.151000
     60 HAR        -2.6050   -2.6180   -1.4480 ha        1 GW8      0.151000
     61 HAS        -0.6850   -5.9160    1.7830 ha        1 GW8      0.145500
     62 HAT        -0.4920   -3.7500   -1.9850 ha        1 GW8      0.145500
     63 HAU        -4.4950    0.9800   -0.1670 ha        1 GW8      0.183000
     64 HAV        -3.0890    7.0050   -0.7250 h1        1 GW8      0.038700
     65 HAVA       -4.8560    6.7150   -0.3880 h1        1 GW8      0.038700
     66 HAW        -5.2580    5.2460    1.9340 h1        1 GW8      0.038700
     67 HAWA       -3.6920    4.8080    2.7550 h1        1 GW8      0.038700
     68 HAX        -4.1820    5.1580   -2.1040 h1        1 GW8      0.067700
     69 HAXA       -2.6590    4.6780   -1.2090 h1        1 GW8      0.067700
     70 HAY        -3.0340    3.2890    0.9980 h1        1 GW8      0.067700
     71 HAYA       -4.7740    2.9390    1.4260 h1        1 GW8      0.067700
     72 HAZ         7.5700    2.6470   -1.2000 h1        1 GW8      0.112200
     73 HAZA        6.9660    3.0660    0.4300 h1        1 GW8      0.112200
     74 HNBC       -4.5510   -3.4470    1.6020 hn        1 GW8      0.305500
     75 HNBD       -6.2300   -1.8410    1.5260 hn        1 GW8      0.305500
     76 HNBE        2.1700   -1.0930   -0.6750 hn        1 GW8      0.439800
     77 CAZ         7.3440    2.2080   -0.1890 c3        1 GW8     -0.250300
     78 NBC        -4.1240   -3.0610    0.7870 n         1 GW8     -0.458100
     79 SBS         8.7670    1.5420    0.5090 s6        1 GW8      1.333000
     80 CAA        -3.5720    7.3290    1.8830 c3        1 GW8      0.157100
     81 OAE        -5.9900    3.7620   -2.1200 o         1 GW8     -0.596100
@<TRIPOS>BOND
     1    1    2 ar  
     2    1    6 ar  
     3    2    3 ar  
     4    2   29 1   
     5    3    4 ar  
     6    4    5 ar  
     7    4   39 1   
     8    5    6 ar  
     9    5   41 1   
    10    6   42 1   
    11    7   39 1   
    12    7   46 1   
    13    7   47 1   
    14    7   48 1   
    15    8   49 1   
    16    8   50 1   
    17    8   51 1   
    18    8   79 1   
    19    9   30 2   
    20   10   79 2   
    21   11   79 2   
    22   12   13 ar  
    23   12   14 ar  
    24   12   52 1   
    25   13   35 ar  
    26   13   53 1   
    27   14   36 ar  
    28   14   54 1   
    29   15   17 ar  
    30   15   32 ar  
    31   15   55 1   
    32   16   18 ar  
    33   16   32 ar  
    34   16   56 1   
    35   17   34 ar  
    36   17   57 1   
    37   18   34 ar  
    38   18   58 1   
    39   19   21 ar  
    40   19   33 ar  
    41   19   59 1   
    42   20   22 ar  
    43   20   33 ar  
    44   20   60 1   
    45   21   37 ar  
    46   21   61 1   
    47   22   37 ar  
    48   22   62 1   
    49   23   35 ar  
    50   23   36 ar  
    51   23   63 1   
    52   24   26 1   
    53   24   38 1   
    54   24   64 1   
    55   24   65 1   
    56   25   27 1   
    57   25   38 1   
    58   25   66 1   
    59   25   67 1   
    60   26   40 1   
    61   26   68 1   
    62   26   69 1   
    63   27   40 1   
    64   27   70 1   
    65   27   71 1   
    66   28   30 1   
    67   28   35 1   
    68   28   75 1   
    69   29   34 1   
    70   29   76 1   
    71   30   78 1   
    72   31   36 1   
    73   31   40 1   
    74   31   81 2   
    75   32   77 1   
    76   33   78 1   
    77   37   39 1   
    78   38   80 1   
    79   43   80 1   
    80   44   80 1   
    81   45   80 1   
    82   72   77 1   
    83   73   77 1   
    84   74   78 1   
    85   77   79 1   
@<TRIPOS>SUBSTRUCTURE
     1 GW8         1 TEMP              0 ****  ****    0 ROOT
