@<TRIPOS>MOLECULE
GW9
   28    29     1     0     0
SMALL
bcc


@<TRIPOS>ATOM
      1 Cl          0.8530   -1.7040   -0.8440 cl        1 GW9     -0.050400
      2 C9          2.2550   -0.8330   -0.4590 ca        1 GW9      0.069400
      3 C10         2.9080   -1.1110    0.7490 ca        1 GW9     -0.141000
      4 C11         4.0560   -0.4100    1.1030 ca        1 GW9     -0.045000
      5 C12         4.5490    0.5830    0.2410 ca        1 GW9     -0.184200
      6 N2          5.7770    1.3350    0.6140 no        1 GW9      0.316200
      7 O3          6.3030    1.0930    1.6670 o         1 GW9     -0.198500
      8 O2          6.2080    2.1570   -0.1470 o         1 GW9     -0.198500
      9 C13         3.8970    0.8770   -0.9650 ca        1 GW9     -0.017000
     10 C8          2.7520    0.1570   -1.3180 ca        1 GW9     -0.152600
     11 C1          2.0710    0.5340   -2.6030 c         1 GW9      0.681700
     12 O1          1.6870    1.7010   -2.7860 o         1 GW9     -0.563100
     13 N1          1.9610   -0.4820   -3.5340 ns        1 GW9     -0.457100
     14 C2          1.3580   -0.4110   -4.8040 ca        1 GW9      0.062600
     15 C7          0.8590    0.7860   -5.3580 ca        1 GW9     -0.165500
     16 C6          0.2850    0.7800   -6.6270 ca        1 GW9     -0.104000
     17 C5          0.1950   -0.3970   -7.3670 ca        1 GW9     -0.152000
     18 C4          0.6860   -1.5850   -6.8280 ca        1 GW9     -0.104000
     19 C3          1.2620   -1.6040   -5.5630 ca        1 GW9     -0.165500
     20 H10         2.5120   -1.8850    1.4260 ha        1 GW9      0.167000
     21 H11         4.5730   -0.6300    2.0550 ha        1 GW9      0.180000
     22 H13         4.2710    1.6770   -1.6320 ha        1 GW9      0.193000
     23 HN1         2.2810   -1.3870   -3.2640 hn        1 GW9      0.322500
     24 H7          0.9140    1.7350   -4.7980 ha        1 GW9      0.150500
     25 H6         -0.1000    1.7230   -7.0440 ha        1 GW9      0.135000
     26 H5         -0.2600   -0.3900   -8.3680 ha        1 GW9      0.135000
     27 H4          0.6200   -2.5190   -7.4050 ha        1 GW9      0.135000
     28 H3          1.6420   -2.5550   -5.1620 ha        1 GW9      0.150500
@<TRIPOS>BOND
     1    1    2 1   
     2    2    3 ar  
     3    2   10 ar  
     4    3    4 ar  
     5    3   20 1   
     6    4    5 ar  
     7    4   21 1   
     8    5    6 1   
     9    5    9 ar  
    10    6    7 1   
    11    6    8 1   
    12    9   10 ar  
    13    9   22 1   
    14   10   11 1   
    15   11   12 2   
    16   11   13 1   
    17   13   14 1   
    18   13   23 1   
    19   14   15 ar  
    20   14   19 ar  
    21   15   16 ar  
    22   15   24 1   
    23   16   17 ar  
    24   16   25 1   
    25   17   18 ar  
    26   17   26 1   
    27   18   19 ar  
    28   18   27 1   
    29   19   28 1   
@<TRIPOS>SUBSTRUCTURE
     1 GW9         1 TEMP              0 ****  ****    0 ROOT
