@<TRIPOS>MOLECULE
GW9
   28    29     1     0     0
SMALL
bcc


@<TRIPOS>ATOM
      1 CL          0.2900   -1.4720    2.2040 cl        1 GW9     -0.050400
      2 C9          1.3450   -0.7660    1.0820 ca        1 GW9      0.069400
      3 C10         2.7180   -0.7570    1.3630 ca        1 GW9     -0.141000
      4 C11         3.6150   -0.1940    0.4610 ca        1 GW9     -0.045000
      5 C12         3.1300    0.3580   -0.7370 ca        1 GW9     -0.184200
      6 N2          4.0860    0.9610   -1.7050 no        1 GW9      0.316200
      7 O3          5.2590    0.9340   -1.4500 o         1 GW9     -0.198500
      8 O2          3.6560    1.4600   -2.7090 o         1 GW9     -0.198500
      9 C13         1.7600    0.3440   -1.0330 ca        1 GW9     -0.017000
     10 C8          0.8660   -0.2120   -0.1130 ca        1 GW9     -0.152600
     11 C1         -0.5870   -0.2320   -0.4930 c         1 GW9      0.681700
     12 O1         -0.9490   -0.7870   -1.5450 o         1 GW9     -0.563100
     13 N1         -1.4350    0.4320    0.3730 n         1 GW9     -0.457100
     14 C2         -2.8340    0.5540    0.2690 ca        1 GW9      0.062600
     15 C7         -3.5710    0.0840   -0.8370 ca        1 GW9     -0.165500
     16 C6         -4.9530    0.2510   -0.8740 ca        1 GW9     -0.104000
     17 C5         -5.6270    0.8800    0.1700 ca        1 GW9     -0.152000
     18 C4         -4.9060    1.3490    1.2680 ca        1 GW9     -0.104000
     19 C3         -3.5270    1.1920    1.3270 ca        1 GW9     -0.165500
     20 H10         3.0930   -1.1990    2.3000 ha        1 GW9      0.167000
     21 H11         4.6970   -0.1850    0.6820 ha        1 GW9      0.180000
     22 H13         1.3820    0.7560   -1.9880 ha        1 GW9      0.193000
     23 HN1        -1.0340    0.8160    1.2010 hn        1 GW9      0.322500
     24 H7         -3.0680   -0.4190   -1.6800 ha        1 GW9      0.150500
     25 H6         -5.5140   -0.1220   -1.7440 ha        1 GW9      0.135000
     26 H5         -6.7180    1.0070    0.1300 ha        1 GW9      0.135000
     27 H4         -5.4300    1.8470    2.0970 ha        1 GW9      0.135000
     28 H3         -2.9820    1.5710    2.2050 ha        1 GW9      0.150500
@<TRIPOS>BOND
     1    1    2 1   
     2    2    3 ar  
     3    2   10 ar  
     4    3    4 ar  
     5    3   20 1   
     6    4    5 ar  
     7    4   21 1   
     8    5    6 1   
     9    5    9 ar  
    10    6    7 1   
    11    6    8 1   
    12    9   10 ar  
    13    9   22 1   
    14   10   11 1   
    15   11   12 2   
    16   11   13 1   
    17   13   14 1   
    18   13   23 1   
    19   14   15 ar  
    20   14   19 ar  
    21   15   16 ar  
    22   15   24 1   
    23   16   17 ar  
    24   16   25 1   
    25   17   18 ar  
    26   17   26 1   
    27   18   19 ar  
    28   18   27 1   
    29   19   28 1   
@<TRIPOS>SUBSTRUCTURE
     1 GW9         1 TEMP              0 ****  ****    0 ROOT
