@<TRIPOS>MOLECULE
GW9
   28    29     1     0     0
SMALL
bcc


@<TRIPOS>ATOM
      1 CL          0.7810   -1.6350   -0.8470 cl        1 GW9     -0.050400
      2 C9          2.2150   -0.8200   -0.4570 ca        1 GW9      0.069400
      3 C10         2.8510   -1.1200    0.7550 ca        1 GW9     -0.141000
      4 C11         4.0240   -0.4650    1.1120 ca        1 GW9     -0.045000
      5 C12         4.5600    0.5050    0.2490 ca        1 GW9     -0.184200
      6 N2          5.8160    1.2080    0.6260 no        1 GW9      0.316200
      7 O3          6.3270    0.9490    1.6820 o         1 GW9     -0.198500
      8 O2          6.2830    2.0100   -0.1360 o         1 GW9     -0.198500
      9 C13         3.9260    0.8210   -0.9610 ca        1 GW9     -0.017000
     10 C8          2.7550    0.1460   -1.3170 ca        1 GW9     -0.152600
     11 C1          2.0960    0.5460   -2.6060 c         1 GW9      0.681700
     12 O1          1.7600    1.7270   -2.7950 o         1 GW9     -0.563100
     13 N1          1.9490   -0.4680   -3.5350 n         1 GW9     -0.457100
     14 C2          1.3550   -0.3760   -4.8080 ca        1 GW9      0.062600
     15 C7          0.9100    0.8390   -5.3690 ca        1 GW9     -0.165500
     16 C6          0.3420    0.8510   -6.6410 ca        1 GW9     -0.104000
     17 C5          0.2050   -0.3240   -7.3760 ca        1 GW9     -0.152000
     18 C4          0.6440   -1.5290   -6.8300 ca        1 GW9     -0.104000
     19 C3          1.2120   -1.5670   -5.5630 ca        1 GW9     -0.165500
     20 H10         2.4200   -1.8750    1.4330 ha        1 GW9      0.167000
     21 H11         4.5280   -0.7020    2.0670 ha        1 GW9      0.180000
     22 H13         4.3360    1.6030   -1.6280 ha        1 GW9      0.193000
     23 HN1         2.2310   -1.3840   -3.2600 hn        1 GW9      0.322500
     24 H7          1.0030    1.7860   -4.8130 ha        1 GW9      0.150500
     25 H6         -0.0010    1.8080   -7.0630 ha        1 GW9      0.135000
     26 H5         -0.2440   -0.3020   -8.3790 ha        1 GW9      0.135000
     27 H4          0.5400   -2.4630   -7.4040 ha        1 GW9      0.135000
     28 H3          1.5500   -2.5320   -5.1560 ha        1 GW9      0.150500
@<TRIPOS>BOND
     1    1    2 1   
     2    2    3 ar  
     3    2   10 ar  
     4    3    4 ar  
     5    3   20 1   
     6    4    5 ar  
     7    4   21 1   
     8    5    6 1   
     9    5    9 ar  
    10    6    7 1   
    11    6    8 1   
    12    9   10 ar  
    13    9   22 1   
    14   10   11 1   
    15   11   12 2   
    16   11   13 1   
    17   13   14 1   
    18   13   23 1   
    19   14   15 ar  
    20   14   19 ar  
    21   15   16 ar  
    22   15   24 1   
    23   16   17 ar  
    24   16   25 1   
    25   17   18 ar  
    26   17   26 1   
    27   18   19 ar  
    28   18   27 1   
    29   19   28 1   
@<TRIPOS>SUBSTRUCTURE
     1 GW9         1 TEMP              0 ****  ****    0 ROOT
