@<TRIPOS>MOLECULE
GW9
   28    25     1     0     0
SMALL
bcc


@<TRIPOS>ATOM
      1 CL          3.4980    1.1080   -0.6640 cl        1 GW9      0.028000
      2 C9          2.7010    0.7950    0.8950 c2        1 GW9     -0.009000
      3 C10         3.3640    1.0360    2.0650 c1        1 GW9     -0.141000
      4 C11         2.7420    0.7810    3.2820 c1        1 GW9     -0.045000
      5 C12         1.4580    0.2860    3.3040 c1        1 GW9     -0.139000
      6 N2          0.7610    0.1300    4.5550 n2        1 GW9      0.462400
      7 O3         -0.6250    0.2440    4.5920 o         1 GW9     -0.294200
      8 O2          1.4010    0.0040    5.6140 o         1 GW9     -0.294200
      9 C13         0.7920    0.0440    2.1210 c2        1 GW9     -0.017000
     10 C8          1.4070    0.2960    0.9200 c2        1 GW9     -0.132000
     11 C1          0.5630    0.2620   -0.4140 c2        1 GW9      0.355000
     12 O1          1.0650    0.6840   -1.4830 o         1 GW9     -0.324000
     13 N1         -0.7360   -0.3410   -0.4220 n         1 GW9     -0.311000
     14 C2         -1.4510   -0.4570   -1.6340 c2        1 GW9      0.070000
     15 C7         -2.0500   -1.6650   -1.9730 c2        1 GW9     -0.179000
     16 C6         -2.7360   -1.7810   -3.1480 c1        1 GW9     -0.104000
     17 C5         -2.8330   -0.7100   -3.9910 c1        1 GW9     -0.128000
     18 C4         -2.2320    0.5000   -3.6510 c1        1 GW9     -0.128000
     19 C3         -1.5480    0.6150   -2.4780 c1        1 GW9     -0.152000
     20 H10         4.2740    1.3860    2.0460 ha        1 GW9      0.167000
     21 H11         3.2100    0.9520    4.1110 ha        1 GW9      0.180000
     22 H13        -0.1170   -0.3070    2.1380 ha        1 GW9      0.193000
     23 HN1        -1.0240   -0.7610    0.2960 hn        1 GW9      0.236000
     24 H7         -1.9850   -2.4030   -1.3920 ha        1 GW9      0.129000
     25 H6         -3.1620   -2.6390   -3.3880 ha        1 GW9      0.133000
     26 H5         -3.3140   -0.7920   -4.8160 ha        1 GW9      0.136000
     27 H4         -2.3010    1.2580   -4.2470 ha        1 GW9      0.136000
     28 H3         -1.1230    1.4750   -2.2370 ha        1 GW9      0.172000
@<TRIPOS>BOND
     1    1    2 1   
     2    2    3 1   
     3    2   10 1   
     4    3   20 1   
     5    4    5 1   
     6    4   21 1   
     7    5    9 1   
     8    6    7 2   
     9    6    8 2   
    10    9   10 1   
    11    9   22 1   
    12   10   11 1   
    13   11   12 1   
    14   11   13 1   
    15   13   14 1   
    16   13   23 1   
    17   14   15 1   
    18   14   19 1   
    19   15   16 1   
    20   15   24 1   
    21   16   25 1   
    22   17   18 1   
    23   17   26 1   
    24   18   27 1   
    25   19   28 1   
@<TRIPOS>SUBSTRUCTURE
     1 GW9         1 TEMP              0 ****  ****    0 ROOT
