@<TRIPOS>MOLECULE
GW9
   28    29     1     0     0
SMALL
bcc


@<TRIPOS>ATOM
      1 CL          0.8520   -1.7020   -0.8440 cl        1 GW9     -0.050400
      2 C9          2.2550   -0.8330   -0.4590 ca        1 GW9      0.069400
      3 C10         2.9080   -1.1100    0.7500 ca        1 GW9     -0.141000
      4 C11         4.0560   -0.4100    1.1040 ca        1 GW9     -0.045000
      5 C12         4.5490    0.5830    0.2400 ca        1 GW9     -0.184200
      6 N2          5.7770    1.3350    0.6140 no        1 GW9      0.316200
      7 O3          6.3040    1.0930    1.6670 o         1 GW9     -0.198500
      8 O2          6.2090    2.1560   -0.1480 o         1 GW9     -0.198500
      9 C13         3.8970    0.8770   -0.9660 ca        1 GW9     -0.017000
     10 C8          2.7520    0.1570   -1.3180 ca        1 GW9     -0.152600
     11 C1          2.0720    0.5340   -2.6030 c         1 GW9      0.681700
     12 O1          1.6880    1.7010   -2.7870 o         1 GW9     -0.563100
     13 N1          1.9600   -0.4820   -3.5340 n         1 GW9     -0.457100
     14 C2          1.3580   -0.4110   -4.8040 ca        1 GW9      0.062600
     15 C7          0.8570    0.7860   -5.3570 ca        1 GW9     -0.165500
     16 C6          0.2840    0.7790   -6.6260 ca        1 GW9     -0.104000
     17 C5          0.1950   -0.3970   -7.3670 ca        1 GW9     -0.152000
     18 C4          0.6880   -1.5850   -6.8290 ca        1 GW9     -0.104000
     19 C3          1.2630   -1.6030   -5.5640 ca        1 GW9     -0.165500
     20 H10         2.5110   -1.8840    1.4270 ha        1 GW9      0.167000
     21 H11         4.5730   -0.6290    2.0550 ha        1 GW9      0.180000
     22 H13         4.2720    1.6760   -1.6320 ha        1 GW9      0.193000
     23 HN1         2.2800   -1.3870   -3.2640 hn        1 GW9      0.322500
     24 H7          0.9110    1.7340   -4.7970 ha        1 GW9      0.150500
     25 H6         -0.1030    1.7220   -7.0430 ha        1 GW9      0.135000
     26 H5         -0.2590   -0.3900   -8.3680 ha        1 GW9      0.135000
     27 H4          0.6220   -2.5190   -7.4060 ha        1 GW9      0.135000
     28 H3          1.6440   -2.5550   -5.1630 ha        1 GW9      0.150500
@<TRIPOS>BOND
     1    1    2 1   
     2    2    3 ar  
     3    2   10 ar  
     4    3    4 ar  
     5    3   20 1   
     6    4    5 ar  
     7    4   21 1   
     8    5    6 1   
     9    5    9 ar  
    10    6    7 1   
    11    6    8 1   
    12    9   10 ar  
    13    9   22 1   
    14   10   11 1   
    15   11   12 2   
    16   11   13 1   
    17   13   14 1   
    18   13   23 1   
    19   14   15 ar  
    20   14   19 ar  
    21   15   16 ar  
    22   15   24 1   
    23   16   17 ar  
    24   16   25 1   
    25   17   18 ar  
    26   17   26 1   
    27   18   19 ar  
    28   18   27 1   
    29   19   28 1   
@<TRIPOS>SUBSTRUCTURE
     1 GW9         1 TEMP              0 ****  ****    0 ROOT
