@<TRIPOS>MOLECULE
GWB
   37    38     1     0     0
SMALL
bcc


@<TRIPOS>ATOM
      1 CA         -0.5520    2.3170    1.3390 c1        1 GWB      0.574600
      2 CB          0.7340    2.4780    1.0940 ce        1 GWB     -0.402100
      3 CC          1.5870    1.4520    0.5350 ce        1 GWB      0.003800
      4 CD          0.9330    0.1780    0.1320 c3        1 GWB     -0.076900
      5 CE          2.9130    1.6260    0.3710 cf        1 GWB     -0.173000
      6 N1          5.2340    5.0050    1.6080 n         1 GWB     -0.443100
      7 C6          4.8160    4.9540    0.2750 c         1 GWB      0.691700
      8 O2          5.1560    5.8980   -0.4650 o         1 GWB     -0.634500
      9 C5          4.0040    3.7920   -0.1580 cc        1 GWB     -0.149400
     10 C4          3.6780    2.8180    0.7360 cd        1 GWB      0.055800
     11 O4         -1.7130    2.2140    1.5740 o         1 GWB     -0.374500
     12 C2          4.9290    4.0050    2.5210 ca        1 GWB      0.077600
     13 C3          4.1470    2.8920    2.1120 ca        1 GWB     -0.099800
     14 C7          3.8530    1.8820    3.0420 ca        1 GWB     -0.107000
     15 C8          4.3180    1.9720    4.3560 ca        1 GWB      0.083900
     16 C9          5.0910    3.0830    4.7640 ca        1 GWB     -0.114000
     17 C10         5.3910    4.0820    3.8610 ca        1 GWB     -0.163000
     18 F           4.0300    0.9940    5.2490 f         1 GWB     -0.139900
     19 C12         2.1300    4.1410   -1.7550 c3        1 GWB     -0.089600
     20 C13         3.9610    2.5460   -2.3340 c3        1 GWB     -0.089600
     21 HC          1.1920    3.4540    1.3330 ha        1 GWB      0.192000
     22 HD1         0.2250    0.3640   -0.7150 hc        1 GWB      0.050033
     23 HD2         1.6820   -0.5820   -0.1980 hc        1 GWB      0.050033
     24 HE1         0.3530   -0.2480    0.9890 hc        1 GWB      0.050033
     25 HE2         3.5290    0.8170   -0.0610 ha        1 GWB      0.145000
     26 HN1         5.7850    5.7800    1.9050 hn        1 GWB      0.334500
     27 H7          3.2500    1.0130    2.7340 ha        1 GWB      0.161000
     28 H9          5.4480    3.1380    5.8040 ha        1 GWB      0.153000
     29 H10         5.9950    4.9440    4.1860 ha        1 GWB      0.144000
     30 H11         4.1850    4.6630   -2.0990 hc        1 GWB      0.084700
     31 H121        1.5070    3.3840   -1.2190 hc        1 GWB      0.037867
     32 H122        1.8530    4.1330   -2.8360 hc        1 GWB      0.037867
     33 H123        1.9050    5.1510   -1.3360 hc        1 GWB      0.037867
     34 H131        3.9140    2.7230   -3.4370 hc        1 GWB      0.037867
     35 H132        3.2460    1.7260   -2.0840 hc        1 GWB      0.037867
     36 H133        4.9940    2.2150   -2.0710 hc        1 GWB      0.037867
     37 C11         3.6060    3.8250   -1.6020 c3        1 GWB     -0.024500
@<TRIPOS>BOND
     1    1    2 2   
     2    1   11 2   
     3    2    3 1   
     4    2   21 1   
     5    3    4 1   
     6    3    5 2   
     7    4   22 1   
     8    4   23 1   
     9    4   24 1   
    10    5   10 1   
    11    5   25 1   
    12    6    7 1   
    13    6   12 1   
    14    6   26 1   
    15    7    8 2   
    16    7    9 1   
    17    9   10 2   
    18    9   37 1   
    19   10   13 1   
    20   12   13 ar  
    21   12   17 ar  
    22   13   14 ar  
    23   14   15 ar  
    24   14   27 1   
    25   15   16 ar  
    26   15   18 1   
    27   16   17 ar  
    28   16   28 1   
    29   17   29 1   
    30   19   31 1   
    31   19   32 1   
    32   19   33 1   
    33   19   37 1   
    34   20   34 1   
    35   20   35 1   
    36   20   36 1   
    37   20   37 1   
    38   30   37 1   
@<TRIPOS>SUBSTRUCTURE
     1 GWB         1 TEMP              0 ****  ****    0 ROOT
