@<TRIPOS>MOLECULE
GWB
   37    39     1     0     0
SMALL
bcc


@<TRIPOS>ATOM
      1 CA          1.6580   -0.5460   -1.1150 c1        1 GWB     -0.044400
      2 CB          2.2240   -0.0080   -2.0180 c1        1 GWB     -0.102100
      3 CC          2.9130    0.6230   -3.0780 cx        1 GWB     -0.042600
      4 CD          2.1450    1.1960   -4.2490 cx        1 GWB     -0.116400
      5 CE          2.9760   -0.0340   -4.4390 cx        1 GWB     -0.116400
      6 N1         -1.7610    0.7490    2.2130 n         1 GWB     -0.445100
      7 C6         -0.4820    0.5580    2.7540 c         1 GWB      0.702700
      8 O2         -0.2930    0.9580    3.9180 o         1 GWB     -0.622500
      9 C5          0.5360   -0.0940    1.9000 cc        1 GWB     -0.140400
     10 C4          0.1790   -0.4960    0.6490 cd        1 GWB      0.153900
     11 O4          1.0980   -1.2430   -0.1240 os        1 GWB     -0.126700
     12 C2         -2.1100    0.3400    0.9340 ca        1 GWB      0.085600
     13 C3         -1.1480   -0.3010    0.1060 ca        1 GWB     -0.112800
     14 C7         -1.5040   -0.7280   -1.1810 ca        1 GWB     -0.100000
     15 C8         -2.8000   -0.5150   -1.6540 ca        1 GWB      0.088900
     16 C9         -3.7600    0.1290   -0.8380 ca        1 GWB     -0.109000
     17 C10        -3.4220    0.5470    0.4320 ca        1 GWB     -0.161000
     18 F          -3.1480   -0.9230   -2.8990 f         1 GWB     -0.135900
     19 C12         2.5560    1.0350    2.8080 c3        1 GWB     -0.095100
     20 C13         1.8820   -1.2100    3.6640 c3        1 GWB     -0.095100
     21 HC          3.8130    1.1770   -2.7300 hc        1 GWB      0.095700
     22 HD1         1.0440    1.1070   -4.2630 hc        1 GWB      0.077450
     23 HD2         2.4890    2.1540   -4.6770 hc        1 GWB      0.077450
     24 HE1         3.9220    0.0330   -5.0040 hc        1 GWB      0.077450
     25 HE2         2.4720   -1.0050   -4.5890 hc        1 GWB      0.077450
     26 HN1        -2.4500    1.1920    2.7810 hn        1 GWB      0.337500
     27 H7         -0.7550   -1.2330   -1.8130 ha        1 GWB      0.168000
     28 H9         -4.7770    0.2880   -1.2300 ha        1 GWB      0.155000
     29 H10        -4.1780    1.0450    1.0600 ha        1 GWB      0.146000
     30 H11         2.5380   -0.7870    1.6560 hc        1 GWB      0.066700
     31 H121        3.5970    0.8590    3.1710 hc        1 GWB      0.044867
     32 H122        2.5980    1.7000    1.9120 hc        1 GWB      0.044867
     33 H123        1.9780    1.5500    3.6140 hc        1 GWB      0.044867
     34 H131        1.2770   -0.7540    4.4860 hc        1 GWB      0.044867
     35 H132        1.4400   -2.1980    3.3950 hc        1 GWB      0.044867
     36 H133        2.9230   -1.3730    4.0340 hc        1 GWB      0.044867
     37 C11         1.9100   -0.2920    2.4560 c3        1 GWB     -0.014500
@<TRIPOS>BOND
     1    1    2 3   
     2    1   11 1   
     3    2    3 1   
     4    3    4 1   
     5    3    5 1   
     6    3   21 1   
     7    4    5 1   
     8    4   22 1   
     9    4   23 1   
    10    5   24 1   
    11    5   25 1   
    12    6    7 1   
    13    6   12 1   
    14    6   26 1   
    15    7    8 2   
    16    7    9 1   
    17    9   10 2   
    18    9   37 1   
    19   10   11 1   
    20   10   13 1   
    21   12   13 ar  
    22   12   17 ar  
    23   13   14 ar  
    24   14   15 ar  
    25   14   27 1   
    26   15   16 ar  
    27   15   18 1   
    28   16   17 ar  
    29   16   28 1   
    30   17   29 1   
    31   19   31 1   
    32   19   32 1   
    33   19   33 1   
    34   19   37 1   
    35   20   34 1   
    36   20   35 1   
    37   20   36 1   
    38   20   37 1   
    39   30   37 1   
@<TRIPOS>SUBSTRUCTURE
     1 GWB         1 TEMP              0 ****  ****    0 ROOT
