@<TRIPOS>MOLECULE
GWB
   37    39     1     0     0
SMALL
bcc


@<TRIPOS>ATOM
      1 CA         -0.9630   -2.3140   -0.5880 c1        1 GWB     -0.044400
      2 CB         -0.6240   -1.2890   -0.0790 c1        1 GWB     -0.102100
      3 CC         -0.2330   -0.0820    0.5430 cx        1 GWB     -0.042600
      4 CD          0.7380    0.8490   -0.1490 cx        1 GWB     -0.115900
      5 CE          1.1800    0.0830    1.0580 cx        1 GWB     -0.115900
      6 N1         -3.2710   -3.6140   -4.7630 ns        1 GWB     -0.445100
      7 C6         -4.0350   -3.8080   -3.6040 c         1 GWB      0.702700
      8 O2         -5.2490   -4.0430   -3.7580 o         1 GWB     -0.622500
      9 C5         -3.3440   -3.7150   -2.2990 cc        1 GWB     -0.140400
     10 C4         -2.0040   -3.4700   -2.2860 cd        1 GWB      0.153900
     11 O4         -1.3070   -3.5160   -1.0560 os        1 GWB     -0.126700
     12 C2         -1.9070   -3.3590   -4.7350 ca        1 GWB      0.085600
     13 C3         -1.2240   -3.2800   -3.4900 ca        1 GWB     -0.112800
     14 C7          0.1560   -3.0370   -3.4610 ca        1 GWB     -0.100000
     15 C8          0.8590   -2.8620   -4.6550 ca        1 GWB      0.088900
     16 C9          0.1850   -2.9330   -5.8970 ca        1 GWB     -0.109000
     17 C10        -1.1720   -3.1770   -5.9360 ca        1 GWB     -0.161000
     18 F           2.1930   -2.6240   -4.6320 f         1 GWB     -0.135900
     19 C12        -5.2390   -2.8570   -0.9380 c3        1 GWB     -0.095100
     20 C13        -4.7380   -5.3010   -0.9920 c3        1 GWB     -0.095100
     21 HC         -1.0560    0.3770    1.1350 hc        1 GWB      0.095700
     22 HD1         1.1380    0.5680   -1.1390 hc        1 GWB      0.077450
     23 HD2         0.5630    1.9370   -0.0670 hc        1 GWB      0.077450
     24 HE1         1.3250    0.6150    2.0150 hc        1 GWB      0.077450
     25 HE2         1.8960   -0.7490    0.9340 hc        1 GWB      0.077450
     26 HN1        -3.7320   -3.6710   -5.6450 hn        1 GWB      0.337500
     27 H7          0.6800   -2.9870   -2.4930 ha        1 GWB      0.168000
     28 H9          0.7570   -2.7920   -6.8270 ha        1 GWB      0.155000
     29 H10        -1.6870   -3.2330   -6.9080 ha        1 GWB      0.146000
     30 H11        -3.4500   -3.7820   -0.1700 hc        1 GWB      0.066700
     31 H121       -5.7870   -2.9930    0.0250 hc        1 GWB      0.044867
     32 H122       -4.8000   -1.8310   -0.9580 hc        1 GWB      0.044867
     33 H123       -5.9660   -2.9560   -1.7810 hc        1 GWB      0.044867
     34 H131       -5.4430   -5.4630   -1.8440 hc        1 GWB      0.044867
     35 H132       -3.9310   -6.0700   -1.0400 hc        1 GWB      0.044867
     36 H133       -5.2980   -5.4300   -0.0350 hc        1 GWB      0.044867
     37 C11        -4.1470   -3.9050   -1.0520 c3        1 GWB     -0.014500
@<TRIPOS>BOND
     1    1    2 3   
     2    1   11 1   
     3    2    3 1   
     4    3    4 1   
     5    3    5 1   
     6    3   21 1   
     7    4    5 1   
     8    4   22 1   
     9    4   23 1   
    10    5   24 1   
    11    5   25 1   
    12    6    7 1   
    13    6   12 1   
    14    6   26 1   
    15    7    8 2   
    16    7    9 1   
    17    9   10 2   
    18    9   37 1   
    19   10   11 1   
    20   10   13 1   
    21   12   13 ar  
    22   12   17 ar  
    23   13   14 ar  
    24   14   15 ar  
    25   14   27 1   
    26   15   16 ar  
    27   15   18 1   
    28   16   17 ar  
    29   16   28 1   
    30   17   29 1   
    31   19   31 1   
    32   19   32 1   
    33   19   33 1   
    34   19   37 1   
    35   20   34 1   
    36   20   35 1   
    37   20   36 1   
    38   20   37 1   
    39   30   37 1   
@<TRIPOS>SUBSTRUCTURE
     1 GWB         1 TEMP              0 ****  ****    0 ROOT
