@<TRIPOS>MOLECULE
GWD
   29    25     1     0     0
SMALL
bcc


@<TRIPOS>ATOM
      1 CAH        -0.1050   -2.6610    0.3760 c1        1 GWD     -0.005000
      2 CAO        -0.6420   -3.8830    0.0010 c1        1 GWD     -0.266000
      3 BRAC       -1.0100   -5.2120    1.3240 br        1 GWD      0.071000
      4 CAM        -0.8980   -4.1460   -1.3350 c1        1 GWD      0.158000
      5 OAB        -1.4570   -5.3800   -1.7150 oh        1 GWD     -0.225000
      6 CAP        -0.6180   -3.1870   -2.2970 c1        1 GWD     -0.210000
      7 BRAD       -0.9790   -3.5480   -4.1390 br        1 GWD      0.088000
      8 CAI        -0.0810   -1.9660   -1.9220 c1        1 GWD     -0.040000
      9 CAQ         0.1750   -1.7020   -0.5850 c1        1 GWD     -0.114000
     10 CAF         0.8420   -0.4060   -0.1860 c2        1 GWD     -0.006000
     11 CAS         0.0930    0.6570    0.1650 c1        1 GWD     -0.113000
     12 CAU         0.6050    1.9790    0.6140 c2        1 GWD     -0.111000
     13 CAK         1.8990    2.4690    0.7880 c2        1 GWD     -0.040000
     14 CAN         2.0950    3.7730    1.2400 c1        1 GWD     -0.303000
     15 IAE         3.8150    4.9370    1.5980 i         1 GWD      0.148000
     16 CAG         0.9930    4.5910    1.5200 c1        1 GWD     -0.114000
     17 CAJ        -0.3010    4.1030    1.3460 c1        1 GWD     -0.114000
     18 CAT        -0.4990    2.7990    0.8940 c1        1 GWD      0.094000
     19 NAL        -1.7450    2.0100    0.6270 n3        1 GWD     -0.334000
     20 CAR        -1.3590    0.7040    0.2060 c1        1 GWD      0.350000
     21 OAA        -2.1120   -0.1930   -0.1200 o         1 GWD     -0.320000
     22 HAH         0.0750   -2.4760    1.3170 ha        1 GWD      0.176000
     23 HOAB       -0.8460   -6.0210   -1.6310 ho        1 GWD      0.239000
     24 HAI         0.1160   -1.2910   -2.5990 ha        1 GWD      0.153000
     25 HAF         1.8150   -0.3320   -0.2050 ha        1 GWD      0.137000
     26 HAK         2.6670    1.8960    0.6030 ha        1 GWD      0.147000
     27 HAG         1.1310    5.5040    1.8370 ha        1 GWD      0.147500
     28 HAJ        -1.0690    4.6740    1.5410 ha        1 GWD      0.147500
     29 HNAL       -2.6000    2.3060    0.7360 hn        1 GWD      0.260000
@<TRIPOS>BOND
     1    1    9 1   
     2    1   22 1   
     3    2    3 1   
     4    2    4 1   
     5    4    5 1   
     6    5   23 1   
     7    6    7 1   
     8    6    8 1   
     9    8   24 1   
    10    9   10 1   
    11   10   11 1   
    12   10   25 1   
    13   11   12 1   
    14   12   13 1   
    15   12   18 1   
    16   13   14 1   
    17   13   26 1   
    18   14   15 1   
    19   16   17 1   
    20   16   27 1   
    21   17   28 1   
    22   18   19 1   
    23   19   20 1   
    24   19   29 1   
    25   20   21 1   
@<TRIPOS>SUBSTRUCTURE
     1 GWD         1 TEMP              0 ****  ****    0 ROOT
