@<TRIPOS>MOLECULE
GWD
   29    31     1     0     0
SMALL
bcc


@<TRIPOS>ATOM
      1 CAH        -0.0130   -0.0590   -0.0330 ca        1 GWD     -0.041000
      2 CAO         1.3590   -0.2010   -0.2300 ca        1 GWD     -0.093900
      3 BRAC        2.0040   -0.1960   -1.9880 br        1 GWD     -0.056600
      4 CAM         2.2050   -0.3460    0.8930 ca        1 GWD      0.197100
      5 OAB         3.5440   -0.4870    0.6500 oh        1 GWD     -0.470100
      6 CAP         1.6570   -0.3430    2.1930 ca        1 GWD     -0.093900
      7 BRAD        2.7280   -0.5460    3.7180 br        1 GWD     -0.056600
      8 CAI         0.2810   -0.1860    2.3640 ca        1 GWD     -0.041000
      9 CAQ        -0.5610   -0.0400    1.2570 ca        1 GWD     -0.116800
     10 CAF        -2.0030    0.0670    1.4110 ce        1 GWD     -0.012200
     11 CAS        -2.6780    0.9340    2.1770 cd        1 GWD     -0.110400
     12 CAU        -2.2790    2.0510    3.0350 ca        1 GWD     -0.117800
     13 CAK        -1.0540    2.6150    3.3300 ca        1 GWD     -0.037000
     14 CAN        -0.9980    3.7150    4.1990 ca        1 GWD     -0.018100
     15 IAE         0.7930    4.5380    4.6360 i         1 GWD     -0.135900
     16 CAG        -2.1590    4.2410    4.7580 ca        1 GWD     -0.050000
     17 CAJ        -3.4180    3.7010    4.4720 ca        1 GWD     -0.179000
     18 CAT        -3.4820    2.6100    3.6090 ca        1 GWD      0.086600
     19 NAL        -4.6020    1.9010    3.1560 n         1 GWD     -0.478100
     20 CAR        -4.1910    0.8820    2.2680 c         1 GWD      0.701700
     21 OAA        -4.9650    0.1070    1.6960 o         1 GWD     -0.591500
     22 HAH        -0.6860    0.0450   -0.9020 ha        1 GWD      0.160500
     23 HOAB        4.0080   -0.5770    1.5000 ho        1 GWD      0.440000
     24 HAI        -0.1560   -0.1840    3.3770 ha        1 GWD      0.160500
     25 HAF        -2.5860   -0.6640    0.8120 ha        1 GWD      0.160000
     26 HAK        -0.1330    2.2060    2.8820 ha        1 GWD      0.155000
     27 HAG        -2.1040    5.1050    5.4420 ha        1 GWD      0.148000
     28 HAJ        -4.3230    4.1340    4.9180 ha        1 GWD      0.147000
     29 HNAL       -5.5370    2.1150    3.3850 hn        1 GWD      0.346500
@<TRIPOS>BOND
     1    1    2 ar  
     2    1    9 ar  
     3    1   22 1   
     4    2    3 1   
     5    2    4 ar  
     6    4    5 1   
     7    4    6 ar  
     8    5   23 1   
     9    6    7 1   
    10    6    8 ar  
    11    8    9 ar  
    12    8   24 1   
    13    9   10 1   
    14   10   11 2   
    15   10   25 1   
    16   11   12 1   
    17   11   20 1   
    18   12   13 ar  
    19   12   18 ar  
    20   13   14 ar  
    21   13   26 1   
    22   14   15 1   
    23   14   16 ar  
    24   16   17 ar  
    25   16   27 1   
    26   17   18 ar  
    27   17   28 1   
    28   18   19 1   
    29   19   20 1   
    30   19   29 1   
    31   20   21 2   
@<TRIPOS>SUBSTRUCTURE
     1 GWD         1 TEMP              0 ****  ****    0 ROOT
