@<TRIPOS>MOLECULE
GWD
   29    31     1     0     0
SMALL
bcc


@<TRIPOS>ATOM
      1 CAH        -0.0220   -0.0580   -0.0370 ca        1 GWD     -0.041000
      2 CAO         1.3500   -0.2040   -0.2360 ca        1 GWD     -0.093900
      3 BRAC        1.9910   -0.1970   -1.9960 br        1 GWD     -0.056600
      4 CAM         2.1970   -0.3540    0.8850 ca        1 GWD      0.197100
      5 OAB         3.5350   -0.5000    0.6390 oh        1 GWD     -0.470100
      6 CAP         1.6510   -0.3520    2.1860 ca        1 GWD     -0.093900
      7 BRAD        2.7240   -0.5620    3.7080 br        1 GWD     -0.056600
      8 CAI         0.2760   -0.1910    2.3590 ca        1 GWD     -0.041000
      9 CAQ        -0.5680   -0.0400    1.2540 ca        1 GWD     -0.116800
     10 CAF        -2.0090    0.0720    1.4110 ce        1 GWD     -0.012200
     11 CAS        -2.6790    0.9400    2.1790 cd        1 GWD     -0.110400
     12 CAU        -2.2750    2.0540    3.0380 ca        1 GWD     -0.117800
     13 CAK        -1.0480    2.6130    3.3320 ca        1 GWD     -0.037000
     14 CAN        -0.9860    3.7120    4.2030 ca        1 GWD     -0.018100
     15 IAE         0.8080    4.5280    4.6390 i         1 GWD     -0.135900
     16 CAG        -2.1440    4.2410    4.7650 ca        1 GWD     -0.050000
     17 CAJ        -3.4060    3.7060    4.4800 ca        1 GWD     -0.179000
     18 CAT        -3.4750    2.6160    3.6160 ca        1 GWD      0.086600
     19 NAL        -4.5990    1.9120    3.1630 n         1 GWD     -0.478100
     20 CAR        -4.1930    0.8930    2.2720 c         1 GWD      0.701700
     21 OAA        -4.9700    0.1220    1.7010 o         1 GWD     -0.591500
     22 HAH        -0.6960    0.0510   -0.9040 ha        1 GWD      0.160500
     23 HOAB        4.0000   -0.5930    1.4880 ho        1 GWD      0.440000
     24 HAI        -0.1590   -0.1900    3.3730 ha        1 GWD      0.160500
     25 HAF        -2.5950   -0.6550    0.8110 ha        1 GWD      0.160000
     26 HAK        -0.1290    2.2020    2.8820 ha        1 GWD      0.155000
     27 HAG        -2.0850    5.1030    5.4500 ha        1 GWD      0.148000
     28 HAJ        -4.3090    4.1410    4.9290 ha        1 GWD      0.147000
     29 HNAL       -5.5320    2.1290    3.3950 hn        1 GWD      0.346500
@<TRIPOS>BOND
     1    1    2 ar  
     2    1    9 ar  
     3    1   22 1   
     4    2    3 1   
     5    2    4 ar  
     6    4    5 1   
     7    4    6 ar  
     8    5   23 1   
     9    6    7 1   
    10    6    8 ar  
    11    8    9 ar  
    12    8   24 1   
    13    9   10 1   
    14   10   11 2   
    15   10   25 1   
    16   11   12 1   
    17   11   20 1   
    18   12   13 ar  
    19   12   18 ar  
    20   13   14 ar  
    21   13   26 1   
    22   14   15 1   
    23   14   16 ar  
    24   16   17 ar  
    25   16   27 1   
    26   17   18 ar  
    27   17   28 1   
    28   18   19 1   
    29   19   20 1   
    30   19   29 1   
    31   20   21 2   
@<TRIPOS>SUBSTRUCTURE
     1 GWD         1 TEMP              0 ****  ****    0 ROOT
