@<TRIPOS>MOLECULE
GWD
   29    31     1     0     0
SMALL
bcc


@<TRIPOS>ATOM
      1 CAH         2.2770    1.8190    0.3620 ca        1 GWD     -0.041000
      2 CAO         3.1820    0.7600    0.3970 ca        1 GWD     -0.093900
      3 BRAC        4.6810    0.9170    1.5100 br        1 GWD     -0.056600
      4 CAM         2.9410   -0.3800   -0.4020 ca        1 GWD      0.197100
      5 OAB         3.8600   -1.3910   -0.3380 oh        1 GWD     -0.470100
      6 CAP         1.7930   -0.4360   -1.2200 ca        1 GWD     -0.093900
      7 BRAD        1.4290   -1.9160   -2.3120 br        1 GWD     -0.056600
      8 CAI         0.8950    0.6320   -1.2270 ca        1 GWD     -0.041000
      9 CAQ         1.1270    1.7620   -0.4370 ca        1 GWD     -0.116800
     10 CAF         0.2340    2.9090   -0.4740 ce        1 GWD     -0.012200
     11 CAS        -1.0910    2.9150   -0.2860 cd        1 GWD     -0.110400
     12 CAU        -2.0700    1.8830    0.0590 ca        1 GWD     -0.117800
     13 CAK        -1.9520    0.5350    0.3360 ca        1 GWD     -0.037000
     14 CAN        -3.1030   -0.2010    0.6550 ca        1 GWD     -0.018100
     15 IAE        -2.9340   -2.1730    1.0570 i         1 GWD     -0.135900
     16 CAG        -4.3520    0.4110    0.6980 ca        1 GWD     -0.050000
     17 CAJ        -4.5060    1.7770    0.4330 ca        1 GWD     -0.179000
     18 CAT        -3.3680    2.5150    0.1170 ca        1 GWD      0.086600
     19 NAL        -3.2480    3.8810   -0.1740 n         1 GWD     -0.478100
     20 CAR        -1.8920    4.1980   -0.4090 c         1 GWD      0.701700
     21 OAA        -1.4810    5.3330   -0.6710 o         1 GWD     -0.591500
     22 HAH         2.4590    2.7190    0.9750 ha        1 GWD      0.160500
     23 HOAB        3.5760   -2.1090   -0.9310 ho        1 GWD      0.440000
     24 HAI        -0.0040    0.5970   -1.8660 ha        1 GWD      0.160500
     25 HAF         0.7370    3.8780   -0.6820 ha        1 GWD      0.160000
     26 HAK        -0.9630    0.0490    0.3120 ha        1 GWD      0.155000
     27 HAG        -5.2510   -0.1770    0.9480 ha        1 GWD      0.148000
     28 HAJ        -5.4990    2.2440    0.4780 ha        1 GWD      0.147000
     29 HNAL       -3.9930    4.5270   -0.1650 hn        1 GWD      0.346500
@<TRIPOS>BOND
     1    1    2 ar  
     2    1    9 ar  
     3    1   22 1   
     4    2    3 1   
     5    2    4 ar  
     6    4    5 1   
     7    4    6 ar  
     8    5   23 1   
     9    6    7 1   
    10    6    8 ar  
    11    8    9 ar  
    12    8   24 1   
    13    9   10 1   
    14   10   11 2   
    15   10   25 1   
    16   11   12 1   
    17   11   20 1   
    18   12   13 ar  
    19   12   18 ar  
    20   13   14 ar  
    21   13   26 1   
    22   14   15 1   
    23   14   16 ar  
    24   16   17 ar  
    25   16   27 1   
    26   17   18 ar  
    27   17   28 1   
    28   18   19 1   
    29   19   20 1   
    30   19   29 1   
    31   20   21 2   
@<TRIPOS>SUBSTRUCTURE
     1 GWD         1 TEMP              0 ****  ****    0 ROOT
