@<TRIPOS>MOLECULE
GWE
   56    57     1     0     0
SMALL
bcc


@<TRIPOS>ATOM
      1 C1         -0.6140    0.2520   -0.2570 ca        1 GWE      0.153100
      2 C2          0.3240   -0.7080   -0.6900 ca        1 GWE     -0.187600
      3 C3          1.5670   -0.7660   -0.0500 ca        1 GWE     -0.063000
      4 C4          1.8690    0.1200    0.9870 ca        1 GWE     -0.010600
      5 C5          0.9270    1.0660    1.4110 ca        1 GWE     -0.058000
      6 C6         -0.3180    1.1300    0.7930 ca        1 GWE     -0.185000
      7 CL1         3.3850    0.0460    1.7370 cl        1 GWE     -0.048400
      8 C7          0.0140   -1.6100   -1.8180 c         1 GWE      0.629300
      9 O1         -0.6560   -1.2320   -2.7910 o         1 GWE     -0.570100
     10 C8          0.5460   -2.9910   -1.7530 ca        1 GWE     -0.158600
     11 C9          0.8950   -3.6360   -2.9440 ca        1 GWE     -0.097000
     12 C10         1.3800   -4.9560   -2.9040 ca        1 GWE      0.119900
     13 C11         1.5030   -5.6320   -1.6750 ca        1 GWE     -0.088000
     14 C12         1.1390   -4.9710   -0.5030 ca        1 GWE     -0.150300
     15 C13         0.6660   -3.6580   -0.5300 ca        1 GWE     -0.060000
     16 C14         1.2760   -5.6880    0.8400 c3        1 GWE      0.689200
     17 F1          1.2010   -7.0560    0.7620 f         1 GWE     -0.226633
     18 F2          2.4660   -5.4420    1.4790 f         1 GWE     -0.226633
     19 F3          0.3160   -5.3420    1.7580 f         1 GWE     -0.226633
     20 F4          1.7240   -5.5810   -4.0530 f         1 GWE     -0.120900
     21 O2         -1.8560    0.2090   -0.8710 os        1 GWE     -0.332900
     22 C15        -2.5420    1.4600   -0.9370 c3        1 GWE      0.059400
     23 C16        -3.4740    1.4850   -2.1480 c         1 GWE      0.666100
     24 O3         -4.4270    2.2770   -2.1400 o         1 GWE     -0.548100
     25 N1         -3.1830    0.6460   -3.2330 n         1 GWE     -0.451500
     26 C17        -3.9010    0.5240   -4.4040 cc        1 GWE      0.391200
     27 C18        -3.4500   -0.3920   -5.4210 cc        1 GWE     -0.224800
     28 C19        -4.1610   -0.5120   -6.5970 cd        1 GWE      0.009000
     29 C20        -5.3280    0.2430   -6.8660 cd        1 GWE     -0.816000
     30 C21        -5.7650    1.1270   -5.8570 cd        1 GWE      0.030000
     31 C22        -5.0840    1.2730   -4.6700 cc        1 GWE     -0.292600
     32 C23        -2.2340   -1.2170   -5.2220 c3        1 GWE     -0.073900
     33 S1         -6.0770   -0.0100   -8.2770 s4        1 GWE      1.259600
     34 N2         -7.0990   -0.7970  -10.4840 n3        1 GWE     -1.072400
     35 O4         -5.9820    1.4580   -9.0740 oh        1 GWE     -0.544800
     36 O5         -7.6620    0.3190   -7.8390 oh        1 GWE     -0.544800
     37 H3          2.3120   -1.5120   -0.3770 ha        1 GWE      0.166000
     38 H5          1.1670    1.7570    2.2360 ha        1 GWE      0.168000
     39 H6         -1.0640    1.8610    1.1380 ha        1 GWE      0.155000
     40 H9          0.7880   -3.1160   -3.9090 ha        1 GWE      0.166000
     41 H11         1.8770   -6.6690   -1.6480 ha        1 GWE      0.181000
     42 H13         0.3800   -3.1580    0.4110 ha        1 GWE      0.168000
     43 H15        -3.1730    1.5690   -0.0130 h1        1 GWE      0.095700
     44 H15A       -1.8290    2.3220   -1.0300 h1        1 GWE      0.095700
     45 HN1        -2.3890    0.0340   -3.1120 hn        1 GWE      0.377500
     46 H19        -3.8030   -1.2260   -7.3620 ha        1 GWE      0.142000
     47 H21        -6.6920    1.7070   -6.0210 ha        1 GWE      0.157000
     48 H22        -5.4810    1.9800   -3.9190 ha        1 GWE      0.201000
     49 H23        -2.0270   -1.8550   -6.1160 hc        1 GWE      0.067367
     50 H23A       -1.3360   -0.5720   -5.0430 hc        1 GWE      0.067367
     51 H23B       -2.3520   -1.8930   -4.3350 hc        1 GWE      0.067367
     52 HNS        -6.5770   -1.5820  -10.8210 hn        1 GWE      0.371800
     53 HNSA       -8.0700   -1.0430  -10.4660 hn        1 GWE      0.371800
     54 H18        -5.5420    2.1770   -8.6110 ho        1 GWE      0.490500
     55 H191       -8.1790    0.6690   -8.5750 ho        1 GWE      0.490500
     56 H231       -6.9710   -0.0280  -11.1130 hn        1 GWE      0.371800
@<TRIPOS>BOND
     1    1    2 ar  
     2    1    6 ar  
     3    1   21 1   
     4    2    3 ar  
     5    2    8 1   
     6    3    4 ar  
     7    3   37 1   
     8    4    5 ar  
     9    4    7 1   
    10    5    6 ar  
    11    5   38 1   
    12    6   39 1   
    13    8    9 2   
    14    8   10 1   
    15   10   11 ar  
    16   10   15 ar  
    17   11   12 ar  
    18   11   40 1   
    19   12   13 ar  
    20   12   20 1   
    21   13   14 ar  
    22   13   41 1   
    23   14   15 ar  
    24   14   16 1   
    25   15   42 1   
    26   16   17 1   
    27   16   18 1   
    28   16   19 1   
    29   21   22 1   
    30   22   23 1   
    31   22   43 1   
    32   22   44 1   
    33   23   24 2   
    34   23   25 1   
    35   25   26 2   
    36   25   45 1   
    37   26   27 1   
    38   26   31 1   
    39   27   28 2   
    40   27   32 1   
    41   28   29 1   
    42   28   46 1   
    43   29   30 1   
    44   29   33 2   
    45   30   31 2   
    46   30   47 1   
    47   31   48 1   
    48   32   49 1   
    49   32   50 1   
    50   32   51 1   
    51   33   35 1   
    52   33   36 1   
    53   34   52 1   
    54   34   53 1   
    55   34   56 1   
    56   35   54 1   
    57   36   55 1   
@<TRIPOS>SUBSTRUCTURE
     1 GWE         1 TEMP              0 ****  ****    0 ROOT
