@<TRIPOS>MOLECULE
GWE
   56    57     1     0     0
SMALL
bcc


@<TRIPOS>ATOM
      1 C1         -0.7580    0.2430   -0.1910 ca        1 GWE      0.153100
      2 C2          0.2350   -0.6090   -0.7140 ca        1 GWE     -0.187600
      3 C3          1.5010   -0.6090   -0.1160 ca        1 GWE     -0.063000
      4 C4          1.7690    0.2290    0.9690 ca        1 GWE     -0.010600
      5 C5          0.7710    1.0670    1.4830 ca        1 GWE     -0.058000
      6 C6         -0.4950    1.0720    0.9070 ca        1 GWE     -0.185000
      7 Cl1         3.3110    0.2270    1.6690 cl        1 GWE     -0.048400
      8 C7         -0.0430   -1.4570   -1.8910 c         1 GWE      0.629300
      9 O1         -0.7760   -1.0720   -2.8150 o         1 GWE     -0.569100
     10 C8          0.5990   -2.7920   -1.9370 ca        1 GWE     -0.158600
     11 C9          0.9580   -3.3250   -3.1790 ca        1 GWE     -0.097000
     12 C10         1.5480   -4.6010   -3.2440 ca        1 GWE      0.120900
     13 C11         1.7660   -5.3450   -2.0680 ca        1 GWE     -0.088000
     14 C12         1.3900   -4.7960   -0.8440 ca        1 GWE     -0.150300
     15 C13         0.8130   -3.5270   -0.7670 ca        1 GWE     -0.061000
     16 C14         1.6270   -5.5870    0.4420 c3        1 GWE      0.689200
     17 F1          1.6570   -6.9490    0.2720 f         1 GWE     -0.226633
     18 F2          2.8150   -5.2900    1.0620 f         1 GWE     -0.226633
     19 F3          0.6750   -5.3810    1.4090 f         1 GWE     -0.226633
     20 F4          1.9020   -5.1180   -4.4430 f         1 GWE     -0.120900
     21 O2         -2.0140    0.1430   -0.7700 os        1 GWE     -0.331900
     22 C15        -2.7970    1.3350   -0.7290 c3        1 GWE      0.059400
     23 C16        -3.7710    1.3610   -1.9070 c         1 GWE      0.667100
     24 O3         -4.8090    2.0300   -1.7990 o         1 GWE     -0.550100
     25 N1         -3.4270    0.6600   -3.0710 ns        1 GWE     -0.451500
     26 C17        -4.1480    0.5940   -4.2450 cc        1 GWE      0.390200
     27 C18        -3.6750   -0.2320   -5.3230 cc        1 GWE     -0.230800
     28 C19        -4.3970   -0.2980   -6.5000 cd        1 GWE      0.023000
     29 C20        -5.5990    0.4150   -6.7020 cd        1 GWE     -0.817000
     30 C21        -6.0420    1.2390   -5.6410 cd        1 GWE      0.016000
     31 C22        -5.3550    1.3260   -4.4540 cc        1 GWE     -0.286600
     32 C23        -2.4220   -1.0150   -5.1980 c3        1 GWE     -0.073900
     33 S1         -6.4790    0.4000   -8.0590 s4        1 GWE      1.261600
     34 N2         -7.9850    0.7760  -10.0860 n9        1 GWE     -1.072400
     35 O4         -7.0320   -1.1740   -8.1860 oh        1 GWE     -0.545300
     36 O5         -5.2890    0.0810   -9.1950 oh        1 GWE     -0.545300
     37 H3          2.2890   -1.2710   -0.5140 ha        1 GWE      0.166000
     38 H5          0.9850    1.7200    2.3460 ha        1 GWE      0.167000
     39 H6         -1.2830    1.7180    1.3220 ha        1 GWE      0.155000
     40 H9          0.7780   -2.7530   -4.1030 ha        1 GWE      0.167000
     41 H11         2.2210   -6.3480   -2.1240 ha        1 GWE      0.181000
     42 H13         0.5200   -3.1150    0.2140 ha        1 GWE      0.168000
     43 H15        -2.1570    2.2570   -0.7880 h1        1 GWE      0.095200
     44 H15A       -3.4000    1.3350    0.2200 h1        1 GWE      0.095200
     45 HN1        -2.5840    0.1050   -3.0150 hn        1 GWE      0.378500
     46 H19        -4.0140   -0.9230   -7.3290 ha        1 GWE      0.155000
     47 H21        -6.9680    1.8290   -5.7640 ha        1 GWE      0.145000
     48 H22        -5.7560    1.9820   -3.6590 ha        1 GWE      0.200000
     49 H23        -2.2090   -1.5870   -6.1340 hc        1 GWE      0.067367
     50 H23A       -2.4900   -1.7460   -4.3520 hc        1 GWE      0.067367
     51 H23B       -1.5480   -0.3410   -5.0000 hc        1 GWE      0.067367
     52 HNS        -7.5250    0.9810  -10.9510 hn        1 GWE      0.371800
     53 HNSA       -8.6240    1.5180   -9.8790 hn        1 GWE      0.371800
     54 H18        -6.7870   -1.7800   -7.4800 ho        1 GWE      0.490500
     55 H191       -5.6290   -0.4190   -9.9470 ho        1 GWE      0.490500
     56 H231       -8.5000   -0.0770  -10.1860 hn        1 GWE      0.371800
@<TRIPOS>BOND
     1    1    2 ar  
     2    1    6 ar  
     3    1   21 1   
     4    2    3 ar  
     5    2    8 1   
     6    3    4 ar  
     7    3   37 1   
     8    4    5 ar  
     9    4    7 1   
    10    5    6 ar  
    11    5   38 1   
    12    6   39 1   
    13    8    9 2   
    14    8   10 1   
    15   10   11 ar  
    16   10   15 ar  
    17   11   12 ar  
    18   11   40 1   
    19   12   13 ar  
    20   12   20 1   
    21   13   14 ar  
    22   13   41 1   
    23   14   15 ar  
    24   14   16 1   
    25   15   42 1   
    26   16   17 1   
    27   16   18 1   
    28   16   19 1   
    29   21   22 1   
    30   22   23 1   
    31   22   43 1   
    32   22   44 1   
    33   23   24 2   
    34   23   25 1   
    35   25   26 2   
    36   25   45 1   
    37   26   27 1   
    38   26   31 1   
    39   27   28 2   
    40   27   32 1   
    41   28   29 1   
    42   28   46 1   
    43   29   30 1   
    44   29   33 2   
    45   30   31 2   
    46   30   47 1   
    47   31   48 1   
    48   32   49 1   
    49   32   50 1   
    50   32   51 1   
    51   33   35 1   
    52   33   36 1   
    53   34   52 1   
    54   34   53 1   
    55   34   56 1   
    56   35   54 1   
    57   36   55 1   
@<TRIPOS>SUBSTRUCTURE
     1 GWE         1 TEMP              0 ****  ****    0 ROOT
