@<TRIPOS>MOLECULE
GWE
   57    58     1     0     0
SMALL
bcc


@<TRIPOS>ATOM
      1 C1         -0.9610   -0.0530    0.6070 ca        1 GWE      0.103100
      2 C2          0.0070   -0.8440   -0.0470 ca        1 GWE     -0.183600
      3 C3          1.1110   -1.2830    0.6930 ca        1 GWE     -0.068000
      4 C4          1.2560   -0.9160    2.0380 ca        1 GWE      0.017400
      5 C5          0.3010   -0.1020    2.6600 ca        1 GWE     -0.064000
      6 C6         -0.8160    0.3270    1.9440 ca        1 GWE     -0.120000
      7 CL1         2.5940   -1.4620    2.9090 cl        1 GWE     -0.008400
      8 C7         -0.1500   -1.2120   -1.4650 c         1 GWE      0.658300
      9 O1         -1.2840   -1.2370   -1.9930 o         1 GWE     -0.667100
     10 C8          1.0410   -1.5480   -2.2690 ca        1 GWE     -0.173600
     11 C9          2.2660   -0.9010   -2.0740 ca        1 GWE     -0.106000
     12 C10         3.3610   -1.2260   -2.8960 ca        1 GWE      0.138900
     13 C11         3.2300   -2.1960   -3.9130 ca        1 GWE     -0.073000
     14 C12         1.9980   -2.8180   -4.0940 ca        1 GWE     -0.150300
     15 C13         0.9060   -2.5050   -3.2830 ca        1 GWE     -0.058000
     16 C14         1.8150   -3.8620   -5.1960 c3        1 GWE      0.692200
     17 F1          2.7480   -3.8080   -6.1960 f         1 GWE     -0.225633
     18 F2          1.8430   -5.1570   -4.7470 f         1 GWE     -0.225633
     19 F3          0.6060   -3.7560   -5.8460 f         1 GWE     -0.225633
     20 F4          4.5430   -0.6030   -2.7120 f         1 GWE     -0.100900
     21 O2         -2.0490    0.4590   -0.1110 os        1 GWE     -0.367900
     22 C15        -3.2070   -0.3730   -0.0190 c3        1 GWE      0.077400
     23 C16        -4.1350   -0.0680   -1.1750 c         1 GWE      0.556100
     24 O3         -5.3310   -0.2960   -1.2180 o         1 GWE     -0.399100
     25 N1         -3.5000    0.5770   -2.4020 n4        1 GWE     -0.561200
     26 C17        -4.0360    0.1000   -3.6780 ca        1 GWE      0.046600
     27 C18        -5.1480    0.7390   -4.2720 ca        1 GWE     -0.035300
     28 C19        -5.6190    0.2440   -5.4930 ca        1 GWE     -0.016000
     29 C20        -5.0240   -0.8580   -6.1240 ca        1 GWE     -0.229500
     30 C21        -3.9190   -1.4670   -5.5160 ca        1 GWE     -0.011000
     31 C22        -3.4180   -0.9970   -4.3050 ca        1 GWE     -0.105000
     32 C23        -5.8190    1.8970   -3.6360 c3        1 GWE     -0.099800
     33 S1         -5.7090   -1.3420   -7.5800 s4        1 GWE      0.820100
     34 N2         -6.7330   -1.6600   -9.7900 n3        1 GWE     -1.087400
     35 O4         -6.4820   -2.7500   -7.1730 oh        1 GWE     -0.518300
     36 O5         -4.4050   -2.1840   -8.1890 oh        1 GWE     -0.518300
     37 H3          1.8680   -1.9330    0.2200 ha        1 GWE      0.176000
     38 H5          0.4250    0.1970    3.7160 ha        1 GWE      0.185000
     39 H6         -1.5750    0.9670    2.4230 ha        1 GWE      0.170000
     40 H9          2.3860   -0.1310   -1.2940 ha        1 GWE      0.172000
     41 H11         4.0950   -2.4450   -4.5530 ha        1 GWE      0.194000
     42 H13        -0.0610   -3.0100   -3.4400 ha        1 GWE      0.157000
     43 H15        -2.9340   -1.4650   -0.0810 h1        1 GWE      0.127700
     44 H15A       -3.7550   -0.1440    0.9390 h1        1 GWE      0.127700
     45 HN1        -3.6380    1.5940   -2.3310 hn        1 GWE      0.490300
     46 H19        -6.4920    0.7440   -5.9560 ha        1 GWE      0.171000
     47 H21        -3.4200   -2.3270   -6.0030 ha        1 GWE      0.184000
     48 H22        -2.5380   -1.4970   -3.8490 ha        1 GWE      0.205000
     49 H23        -5.1220    2.7710   -3.5610 hc        1 GWE      0.083367
     50 H23A       -6.7080    2.2290   -4.2310 hc        1 GWE      0.083367
     51 H23B       -6.1830    1.6260   -2.6110 hc        1 GWE      0.083367
     52 HNS        -6.1790   -2.0340  -10.5390 hn        1 GWE      0.386133
     53 HNSA       -7.1500   -0.8030  -10.1030 hn        1 GWE      0.386133
     54 H18        -5.9120   -3.5200   -7.0150 ho        1 GWE      0.515000
     55 H191       -4.1920   -2.0000   -9.1140 ho        1 GWE      0.515000
     56 H12        -2.4790    0.3790   -2.3580 hn        1 GWE      0.490300
     57 H231       -7.4670   -2.3150   -9.5860 hn        1 GWE      0.386133
@<TRIPOS>BOND
     1    1    2 ar  
     2    1    6 ar  
     3    1   21 1   
     4    2    3 ar  
     5    2    8 1   
     6    3    4 ar  
     7    3   37 1   
     8    4    5 ar  
     9    4    7 1   
    10    5    6 ar  
    11    5   38 1   
    12    6   39 1   
    13    8    9 2   
    14    8   10 1   
    15   10   11 ar  
    16   10   15 ar  
    17   11   12 ar  
    18   11   40 1   
    19   12   13 ar  
    20   12   20 1   
    21   13   14 ar  
    22   13   41 1   
    23   14   15 ar  
    24   14   16 1   
    25   15   42 1   
    26   16   17 1   
    27   16   18 1   
    28   16   19 1   
    29   21   22 1   
    30   22   23 1   
    31   22   43 1   
    32   22   44 1   
    33   23   24 2   
    34   23   25 1   
    35   25   26 1   
    36   25   45 1   
    37   25   56 1   
    38   26   27 ar  
    39   26   31 ar  
    40   27   28 ar  
    41   27   32 1   
    42   28   29 ar  
    43   28   46 1   
    44   29   30 ar  
    45   29   33 1   
    46   30   31 ar  
    47   30   47 1   
    48   31   48 1   
    49   32   49 1   
    50   32   50 1   
    51   32   51 1   
    52   33   35 1   
    53   33   36 1   
    54   34   52 1   
    55   34   53 1   
    56   34   57 1   
    57   35   54 1   
    58   36   55 1   
@<TRIPOS>SUBSTRUCTURE
     1 GWE         1 TEMP              0 ****  ****    0 ROOT
