@<TRIPOS>MOLECULE
GWE
   55    57     1     0     0
SMALL
bcc


@<TRIPOS>ATOM
      1 C1         -2.0510    2.1650    0.2340 ca        1 GWE      0.170100
      2 C2         -2.5140    0.8320    0.2020 ca        1 GWE     -0.190600
      3 C3         -3.8510    0.5750    0.5180 ca        1 GWE     -0.065000
      4 C4         -4.7040    1.6220    0.8740 ca        1 GWE     -0.020600
      5 C5         -4.2370    2.9420    0.9040 ca        1 GWE     -0.063000
      6 C6         -2.9120    3.2160    0.5810 ca        1 GWE     -0.192000
      7 CL1        -6.3200    1.2920    1.2710 cl        1 GWE     -0.071400
      8 C7         -1.5860   -0.2730   -0.1180 c         1 GWE      0.613300
      9 O1         -0.4210   -0.2910    0.3010 o         1 GWE     -0.527100
     10 C8         -2.1100   -1.3800   -0.9560 ca        1 GWE     -0.150600
     11 C9         -1.5640   -2.6580   -0.7990 ca        1 GWE     -0.091000
     12 C10        -2.0330   -3.7170   -1.5970 ca        1 GWE      0.116900
     13 C11        -3.0360   -3.4940   -2.5590 ca        1 GWE     -0.096000
     14 C12        -3.5570   -2.2090   -2.7040 ca        1 GWE     -0.154300
     15 C13        -3.1060   -1.1520   -1.9120 ca        1 GWE     -0.061000
     16 C14        -4.6530   -1.9580   -3.7360 c3        1 GWE      0.689200
     17 F1         -4.6190   -2.8010   -4.8190 f         1 GWE     -0.230967
     18 F2         -5.9270   -2.0950   -3.2390 f         1 GWE     -0.230967
     19 F3         -4.6380   -0.6990   -4.2830 f         1 GWE     -0.230967
     20 F4         -1.5140   -4.9570   -1.4440 f         1 GWE     -0.124900
     21 O2         -0.7440    2.3590   -0.1640 os        1 GWE     -0.323900
     22 C15        -0.1010    3.5170    0.3770 c3        1 GWE      0.049400
     23 C16         1.4180    3.2970    0.3990 c         1 GWE      0.662100
     24 O3          2.1360    4.3080    0.2840 o         1 GWE     -0.588100
     25 N1          1.8830    2.0160    0.6120 n         1 GWE     -0.459500
     26 C17         3.2310    1.6210    0.6850 cc        1 GWE      0.269200
     27 C18         3.5570    0.2390    0.5860 cc        1 GWE     -0.214800
     28 C19         4.8920   -0.1540    0.6910 cd        1 GWE     -0.056000
     29 C20         5.9220    0.7630    0.8820 cd        1 GWE     -0.690000
     30 C21         5.5920    2.1150    0.9840 cd        1 GWE     -0.046000
     31 C22         4.2760    2.5490    0.8890 cc        1 GWE     -0.252600
     32 C23         2.5140   -0.7940    0.3820 c3        1 GWE     -0.059900
     33 S1          7.6020    0.3430    0.8120 s6        1 GWE      1.390400
     34 N2          7.9140   -1.1730    0.3810 n3        1 GWE     -0.923400
     35 O4          7.6580    0.0310    2.5170 oh        1 GWE     -0.656200
     36 O5          8.9190    1.3550    1.2300 oh        1 GWE     -0.656200
     37 H3         -4.2250   -0.4620    0.4960 ha        1 GWE      0.160000
     38 H5         -4.9160    3.7650    1.1810 ha        1 GWE      0.159000
     39 H6         -2.5480    4.2540    0.5910 ha        1 GWE      0.155000
     40 H9         -0.7650   -2.8320   -0.0600 ha        1 GWE      0.174000
     41 H11        -3.3940   -4.3240   -3.1890 ha        1 GWE      0.174000
     42 H13        -3.5270   -0.1420   -2.0490 ha        1 GWE      0.168000
     43 H15        -0.3220    4.3920   -0.2910 h1        1 GWE      0.080200
     44 H15A       -0.4420    3.7240    1.4250 h1        1 GWE      0.080200
     45 HN1         1.2040    1.2790    0.5720 hn        1 GWE      0.351500
     46 H19         5.1250   -1.2300    0.6190 ha        1 GWE      0.119000
     47 H21         6.3910    2.8600    1.1420 ha        1 GWE      0.140000
     48 H22         4.0610    3.6270    0.9710 ha        1 GWE      0.170000
     49 H23         1.9260   -0.5920   -0.5490 hc        1 GWE      0.047033
     50 H23A        2.9680   -1.8110    0.2890 hc        1 GWE      0.047033
     51 H23B        1.7960   -0.8130    1.2420 hc        1 GWE      0.047033
     52 HNS         8.5470   -1.7850    0.8310 hn        1 GWE      0.260200
     53 HNSA        7.4070   -1.6210   -0.3380 hn        1 GWE      0.260200
     54 H18         6.8060   -0.1010    2.9230 ho        1 GWE      0.436500
     55 H191        9.2370    1.3880    2.1290 ho        1 GWE      0.436500
@<TRIPOS>BOND
     1    1    2 ar  
     2    1    6 ar  
     3    1   21 1   
     4    2    3 ar  
     5    2    8 1   
     6    3    4 ar  
     7    3   37 1   
     8    4    5 ar  
     9    4    7 1   
    10    5    6 ar  
    11    5   38 1   
    12    6   39 1   
    13    8    9 2   
    14    8   10 1   
    15   10   11 ar  
    16   10   15 ar  
    17   11   12 ar  
    18   11   40 1   
    19   12   13 ar  
    20   12   20 1   
    21   13   14 ar  
    22   13   41 1   
    23   14   15 ar  
    24   14   16 1   
    25   15   42 1   
    26   16   17 1   
    27   16   18 1   
    28   16   19 1   
    29   21   22 1   
    30   22   23 1   
    31   22   43 1   
    32   22   44 1   
    33   23   24 2   
    34   23   25 1   
    35   25   26 2   
    36   25   45 1   
    37   26   27 1   
    38   26   31 1   
    39   27   28 2   
    40   27   32 1   
    41   28   29 1   
    42   28   46 1   
    43   29   30 1   
    44   29   33 2   
    45   30   31 2   
    46   30   47 1   
    47   31   48 1   
    48   32   49 1   
    49   32   50 1   
    50   32   51 1   
    51   33   34 2   
    52   33   35 1   
    53   33   36 1   
    54   34   52 1   
    55   34   53 1   
    56   35   54 1   
    57   36   55 1   
@<TRIPOS>SUBSTRUCTURE
     1 GWE         1 TEMP              0 ****  ****    0 ROOT
