@<TRIPOS>MOLECULE
GWE
   55    50     1     0     0
SMALL
bcc


@<TRIPOS>ATOM
      1 C1          2.3480   -0.1710    3.3980 c1        1 GWE      0.094000
      2 C2          2.7810    1.1180    3.1250 c1        1 GWE     -0.149000
      3 C3          3.1090    1.9740    4.1670 c1        1 GWE     -0.087000
      4 C4          3.0030    1.5410    5.4800 c2        1 GWE     -0.075000
      5 C5          2.5700    0.2520    5.7520 c1        1 GWE     -0.089000
      6 C6          2.2430   -0.6040    4.7120 c2        1 GWE     -0.141000
      7 CL1         3.4900    2.5890    6.7850 cl        1 GWE      0.007000
      8 C7          2.9960    1.5560    1.6930 c2        1 GWE      0.322000
      9 O1          3.7850    0.9590    0.9870 o         1 GWE     -0.274000
     10 C8          2.2570    2.7580    1.1500 c2        1 GWE     -0.132000
     11 C9          1.4080    3.4790    1.9740 c2        1 GWE     -0.101000
     12 C10         0.7110    4.5660    1.4710 c1        1 GWE      0.080000
     13 C11         0.8630    4.9320    0.1420 c1        1 GWE     -0.094000
     14 C12         1.7120    4.2110   -0.6830 c1        1 GWE     -0.149000
     15 C13         2.4090    3.1240   -0.1790 c1        1 GWE     -0.046000
     16 C14         1.8230    4.5660   -2.1510 c3        1 GWE      0.469000
     17 F1          0.6930    4.2190   -2.7800 f         1 GWE     -0.159333
     18 F2          2.0180    5.8840   -2.2780 f         1 GWE     -0.159333
     19 F3          2.8550    3.9080   -2.6920 f         1 GWE     -0.159333
     20 F4         -0.1180    5.2560    2.2640 f         1 GWE     -0.091000
     21 O2          2.1040   -1.0690    2.3410 os        1 GWE     -0.237000
     22 C15         0.8020   -1.6170    2.3450 c3        1 GWE     -0.051000
     23 C16         0.3030   -1.7430    0.9200 c2        1 GWE      0.311000
     24 O3          1.0790   -1.6290   -0.0070 o         1 GWE     -0.345000
     25 N1         -1.0670   -2.0310    0.6690 n         1 GWE     -0.307000
     26 C17        -1.5290   -2.1860   -0.6700 c2        1 GWE      0.100000
     27 C18        -2.8030   -2.6740   -0.9110 c2        1 GWE     -0.133000
     28 C19        -3.2470   -2.8390   -2.2140 c1        1 GWE     -0.045000
     29 C20        -2.4160   -2.5140   -3.2760 c2        1 GWE     -0.686000
     30 C21        -1.1420   -2.0250   -3.0340 c1        1 GWE     -0.050000
     31 C22        -0.6980   -1.8610   -1.7310 c2        1 GWE     -0.166000
     32 C23        -3.7050   -3.0380    0.2460 c3        1 GWE     -0.180000
     33 S1         -2.9540   -2.8020   -4.9420 s6        1 GWE      1.811000
     34 N2         -4.3340   -1.9560   -5.2260 n3        1 GWE     -0.808000
     35 O4         -3.2170   -4.2750   -5.1390 oh        1 GWE     -0.673500
     36 O5         -1.8810   -2.3500   -5.9020 oh        1 GWE     -0.673500
     37 H3          3.4140    2.8810    3.9750 DU        1 GWE      0.144250
     38 H5          2.4960   -0.0520    6.6760 DU        1 GWE      0.144250
     39 H6          1.9380   -1.5110    4.9030 ha        1 GWE      0.162000
     40 H9          1.3010    3.2220    2.9090 ha        1 GWE      0.168000
     41 H11         0.3720    5.6970   -0.2130 ha        1 GWE      0.174000
     42 H13         3.0080    2.6160   -0.7590 ha        1 GWE      0.178000
     43 H15         0.2030   -1.0310    2.8500 h1        1 GWE      0.125500
     44 H15A        0.8220   -2.5030    2.7630 h1        1 GWE      0.125500
     45 HN1        -1.6430   -2.1460    1.3650 hn        1 GWE      0.247000
     46 H19        -4.1450   -3.1830   -2.3830 DU        1 GWE      0.144250
     47 H21        -0.5580   -1.7970   -3.7810 DU        1 GWE      0.144250
     48 H22         0.1980   -1.5170   -1.5610 ha        1 GWE      0.171000
     49 H23        -3.2050   -3.5790    0.8920 hc        1 GWE      0.082667
     50 H23A       -4.4720   -3.5510   -0.0850 hc        1 GWE      0.082667
     51 H23B       -4.0230   -2.2200    0.6820 hc        1 GWE      0.082667
     52 HNS        -4.1260   -1.1490   -5.6000 hn        1 GWE      0.213500
     53 HNSA       -4.8690   -2.4290   -5.7980 hn        1 GWE      0.213500
     54 H18        -2.9550   -4.5170   -5.9530 ho        1 GWE      0.233000
     55 H191       -2.0070   -2.7390   -6.6920 ho        1 GWE      0.233000
@<TRIPOS>BOND
     1    1    6 1   
     2    1   21 1   
     3    2    3 1   
     4    2    8 1   
     5    3    4 1   
     6    4    5 1   
     7    4    7 1   
     8    5    6 1   
     9    6   39 1   
    10    8    9 1   
    11    8   10 1   
    12   10   11 1   
    13   10   15 1   
    14   11   12 1   
    15   11   40 1   
    16   12   20 1   
    17   13   14 1   
    18   13   41 1   
    19   14   16 1   
    20   15   42 1   
    21   16   17 1   
    22   16   18 1   
    23   16   19 1   
    24   21   22 1   
    25   22   23 1   
    26   22   43 1   
    27   22   44 1   
    28   23   24 1   
    29   23   25 1   
    30   25   26 1   
    31   25   45 1   
    32   26   27 1   
    33   26   31 1   
    34   27   28 1   
    35   27   32 1   
    36   28   29 1   
    37   29   30 1   
    38   29   33 1   
    39   30   31 1   
    40   31   48 1   
    41   32   49 1   
    42   32   50 1   
    43   32   51 1   
    44   33   34 1   
    45   33   35 1   
    46   33   36 1   
    47   34   52 1   
    48   34   53 1   
    49   35   54 1   
    50   36   55 1   
@<TRIPOS>SUBSTRUCTURE
     1 GWE         1 TEMP              0 ****  ****    0 ROOT
