@<TRIPOS>MOLECULE
GWH
   54    57     1     0     0
SMALL
bcc


@<TRIPOS>ATOM
      1 C1         -0.8090   -0.0350    0.3290 ca        1 GWH     -0.094200
      2 C2          0.2340    0.9240    0.0560 ca        1 GWH      0.679200
      3 N3          0.9010    1.5340    1.0960 nb        1 GWH     -0.731000
      4 C4          0.5330    1.2320    2.3440 ca        1 GWH      0.459200
      5 C5         -0.4910    0.3220    2.6930 cp        1 GWH     -0.228300
      6 C6         -1.1650   -0.3200    1.6440 ca        1 GWH     -0.054000
      7 O7         -1.3540   -0.7580   -0.7180 os        1 GWH     -0.345900
      8 N8          0.5390    1.2650   -1.2440 nv        1 GWH     -0.949500
      9 C9         -2.6980   -0.3550   -1.0900 c3        1 GWH      0.184400
     10 C10        -2.6350    0.3790   -2.4020 ca        1 GWH     -0.051300
     11 C11        -3.4890   -1.6470   -1.2350 c3        1 GWH     -0.098100
     12 C12        -3.4210    1.5030   -2.7140 ca        1 GWH     -0.035200
     13 C13        -3.3000    2.0990   -3.9890 ca        1 GWH     -0.081000
     14 C14        -2.4220    1.5970   -4.9370 ca        1 GWH     -0.168000
     15 C15        -1.6380    0.4720   -4.6240 ca        1 GWH      0.125900
     16 C16        -1.7500   -0.1300   -3.3630 ca        1 GWH     -0.171000
     17 F17        -0.7750   -0.0300   -5.5400 f         1 GWH     -0.138900
     18 N18        -4.4000    2.1640   -1.8450 na        1 GWH     -0.064800
     19 N19        -3.7660    2.8160   -0.7310 na        1 GWH     -0.194900
     20 C20        -4.5060    2.3970    0.4420 cc        1 GWH     -0.193300
     21 C21        -5.4560    1.4850    0.0830 cd        1 GWH     -0.193300
     22 N22        -5.3940    1.2550   -1.3480 na        1 GWH     -0.194900
     23 C23        -0.8210    0.0590    4.0850 cp        1 GWH     -0.029000
     24 C24         0.1820    0.0200    5.0620 ca        1 GWH     -0.019000
     25 C25        -0.1210   -0.2250    6.4060 ca        1 GWH     -0.380500
     26 C26        -1.4560   -0.4540    6.7650 ca        1 GWH     -0.026000
     27 C27        -2.4630   -0.4230    5.8060 ca        1 GWH     -0.152000
     28 C28        -2.1510   -0.1640    4.4730 ca        1 GWH     -0.069000
     29 S29         1.0920   -0.2870    7.5610 sy        1 GWH      1.397300
     30 C30         1.1120    1.3370    8.0430 c3        1 GWH     -0.356300
     31 O31         0.6850   -1.0760    8.6470 o         1 GWH     -0.656800
     32 O32         2.3210   -0.5950    6.9590 o         1 GWH     -0.656800
     33 H4          1.1010    1.7630    3.1320 h4        1 GWH      0.021100
     34 H6         -1.9560   -1.0580    1.8450 ha        1 GWH      0.145000
     35 HN8         0.1530    0.6950   -1.9590 hn        1 GWH      0.439300
     36 HN8A        1.3650    1.7770   -1.4360 hn        1 GWH      0.439300
     37 H9         -3.1340    0.2780   -0.2720 h1        1 GWH      0.076700
     38 H11        -4.5250   -1.4150   -1.5780 hc        1 GWH      0.050367
     39 H11A       -3.5310   -2.1740   -0.2530 hc        1 GWH      0.050367
     40 H11B       -2.9970   -2.3190   -1.9780 hc        1 GWH      0.050367
     41 H13        -3.9100    2.9810   -4.2460 ha        1 GWH      0.148000
     42 H14        -2.3340    2.0660   -5.9270 ha        1 GWH      0.152000
     43 H16        -1.1410   -1.0170   -3.1220 ha        1 GWH      0.163000
     44 HN19       -3.8700    3.8110   -0.8840 hn        1 GWH      0.228700
     45 H20        -4.2000    2.7680    1.4210 h4        1 GWH      0.183000
     46 H21        -6.1500    0.8990    0.6850 h4        1 GWH      0.183000
     47 HN22       -6.2670    1.5220   -1.7870 hn        1 GWH      0.228700
     48 H24         1.2380    0.1620    4.7680 ha        1 GWH      0.158000
     49 H26        -1.7000   -0.6780    7.8190 ha        1 GWH      0.155000
     50 H27        -3.5080   -0.6070    6.1010 ha        1 GWH      0.141000
     51 H28        -2.9520   -0.1340    3.7180 ha        1 GWH      0.136000
     52 H30         1.8660    1.5050    8.8540 h1        1 GWH      0.113033
     53 H30A        1.3820    2.0360    7.2160 h1        1 GWH      0.113033
     54 H30B        0.1330    1.6850    8.4510 h1        1 GWH      0.113033
@<TRIPOS>BOND
     1    1    2 ar  
     2    1    6 ar  
     3    1    7 1   
     4    2    3 ar  
     5    2    8 1   
     6    3    4 ar  
     7    4    5 ar  
     8    4   33 1   
     9    5    6 ar  
    10    5   23 1   
    11    6   34 1   
    12    7    9 1   
    13    8   35 1   
    14    8   36 1   
    15    9   10 1   
    16    9   11 1   
    17    9   37 1   
    18   10   12 ar  
    19   10   16 ar  
    20   11   38 1   
    21   11   39 1   
    22   11   40 1   
    23   12   13 ar  
    24   12   18 1   
    25   13   14 ar  
    26   13   41 1   
    27   14   15 ar  
    28   14   42 1   
    29   15   16 ar  
    30   15   17 1   
    31   16   43 1   
    32   18   19 1   
    33   18   22 1   
    34   19   20 1   
    35   19   44 1   
    36   20   21 2   
    37   20   45 1   
    38   21   22 1   
    39   21   46 1   
    40   22   47 1   
    41   23   24 ar  
    42   23   28 ar  
    43   24   25 ar  
    44   24   48 1   
    45   25   26 ar  
    46   25   29 1   
    47   26   27 ar  
    48   26   49 1   
    49   27   28 ar  
    50   27   50 1   
    51   28   51 1   
    52   29   30 1   
    53   29   31 2   
    54   29   32 2   
    55   30   52 1   
    56   30   53 1   
    57   30   54 1   
@<TRIPOS>SUBSTRUCTURE
     1 GWH         1 TEMP              0 ****  ****    0 ROOT
