@<TRIPOS>MOLECULE
GWH
   54    57     1     0     0
SMALL
bcc


@<TRIPOS>ATOM
      1 C1         -0.9840    0.2620    0.8060 ca        1 GWH     -0.092200
      2 C2         -0.3030    1.5180    0.6280 ca        1 GWH      0.645200
      3 N3          0.3390    2.1140    1.6890 nb        1 GWH     -0.721000
      4 C4          0.2860    1.5060    2.8790 ca        1 GWH      0.453200
      5 C5         -0.3770    0.2850    3.1380 cp        1 GWH     -0.215300
      6 C6         -1.0220   -0.3400    2.0620 ca        1 GWH     -0.049000
      7 O7         -1.4880   -0.4230   -0.2860 os        1 GWH     -0.343900
      8 N8         -0.3600    2.1670   -0.5970 nh        1 GWH     -0.934500
      9 C9         -2.7870    0.0460   -0.7340 c3        1 GWH      0.184400
     10 C10        -2.6870    0.3960   -2.1940 ca        1 GWH     -0.052300
     11 C11        -3.7680   -1.0930   -0.5100 c3        1 GWH     -0.099100
     12 C12        -3.6060    1.2770   -2.8050 ca        1 GWH     -0.045200
     13 C13        -3.4940    1.5560   -4.1780 ca        1 GWH     -0.082000
     14 C14        -2.4880    0.9830   -4.9450 ca        1 GWH     -0.167000
     15 C15        -1.5710    0.1080   -4.3350 ca        1 GWH      0.125900
     16 C16        -1.6760   -0.1820   -2.9650 ca        1 GWH     -0.167000
     17 F17        -0.5840   -0.4580   -5.0700 f         1 GWH     -0.138900
     18 N18        -4.6520    1.8760   -1.9650 na        1 GWH     -0.056800
     19 N19        -4.5630    3.3110   -1.9980 na        1 GWH     -0.198400
     20 C20        -5.8770    3.7830   -2.3830 cc        1 GWH     -0.191800
     21 C21        -6.6910    2.7170   -2.6370 cd        1 GWH     -0.191800
     22 N22        -5.9570    1.4850   -2.4290 na        1 GWH     -0.198400
     23 C23        -0.3830   -0.2990    4.4710 cp        1 GWH     -0.036000
     24 C24         0.7510   -0.2190    5.2900 ca        1 GWH     -0.016000
     25 C25         0.7590   -0.7710    6.5760 ca        1 GWH     -0.381500
     26 C26        -0.3890   -1.4300    7.0330 ca        1 GWH     -0.024000
     27 C27        -1.5230   -1.5210    6.2300 ca        1 GWH     -0.152000
     28 C28        -1.5240   -0.9560    4.9570 ca        1 GWH     -0.064000
     29 S29         2.1300   -0.6840    7.5370 sy        1 GWH      1.397300
     30 C30         1.8030    0.7530    8.3730 c3        1 GWH     -0.357300
     31 O31         2.1450   -1.7450    8.4530 o         1 GWH     -0.656300
     32 O32         3.2690   -0.4940    6.7420 o         1 GWH     -0.656300
     33 H4          0.8180    2.0370    3.6920 h4        1 GWH      0.024100
     34 H6         -1.5360   -1.3050    2.1880 ha        1 GWH      0.151000
     35 HN8         0.2790    2.9110   -0.7580 hn        1 GWH      0.427300
     36 HN8A       -0.5620    1.5790   -1.3770 hn        1 GWH      0.427300
     37 H9         -3.0880    0.9490   -0.1340 h1        1 GWH      0.078700
     38 H11        -4.7800   -0.7950   -0.8720 hc        1 GWH      0.047367
     39 H11A       -3.4350   -2.0050   -1.0620 hc        1 GWH      0.047367
     40 H11B       -3.8210   -1.3360    0.5780 hc        1 GWH      0.047367
     41 H13        -4.2110    2.2410   -4.6590 ha        1 GWH      0.153000
     42 H14        -2.4040    1.2020   -6.0190 ha        1 GWH      0.152000
     43 H16        -0.9590   -0.8760   -2.4980 ha        1 GWH      0.169000
     44 HN19       -4.3360    3.6070   -1.0570 hn        1 GWH      0.226700
     45 H20        -6.0440    4.8550   -2.4960 h4        1 GWH      0.183000
     46 H21        -7.7110    2.6690   -3.0180 h4        1 GWH      0.183000
     47 HN22       -6.3750    0.9440   -1.6820 hn        1 GWH      0.226700
     48 H24         1.6670    0.2690    4.9100 ha        1 GWH      0.159000
     49 H26        -0.3820   -1.8950    8.0350 ha        1 GWH      0.155000
     50 H27        -2.4180   -2.0430    6.6010 ha        1 GWH      0.143000
     51 H28        -2.4240   -1.0230    4.3260 ha        1 GWH      0.139000
     52 H30         0.8460    0.7190    8.9480 h1        1 GWH      0.113367
     53 H30A        2.6080    0.9760    9.1190 h1        1 GWH      0.113367
     54 H30B        1.7420    1.6450    7.7040 h1        1 GWH      0.113367
@<TRIPOS>BOND
     1    1    2 ar  
     2    1    6 ar  
     3    1    7 1   
     4    2    3 ar  
     5    2    8 1   
     6    3    4 ar  
     7    4    5 ar  
     8    4   33 1   
     9    5    6 ar  
    10    5   23 1   
    11    6   34 1   
    12    7    9 1   
    13    8   35 1   
    14    8   36 1   
    15    9   10 1   
    16    9   11 1   
    17    9   37 1   
    18   10   12 ar  
    19   10   16 ar  
    20   11   38 1   
    21   11   39 1   
    22   11   40 1   
    23   12   13 ar  
    24   12   18 1   
    25   13   14 ar  
    26   13   41 1   
    27   14   15 ar  
    28   14   42 1   
    29   15   16 ar  
    30   15   17 1   
    31   16   43 1   
    32   18   19 1   
    33   18   22 1   
    34   19   20 1   
    35   19   44 1   
    36   20   21 2   
    37   20   45 1   
    38   21   22 1   
    39   21   46 1   
    40   22   47 1   
    41   23   24 ar  
    42   23   28 ar  
    43   24   25 ar  
    44   24   48 1   
    45   25   26 ar  
    46   25   29 1   
    47   26   27 ar  
    48   26   49 1   
    49   27   28 ar  
    50   27   50 1   
    51   28   51 1   
    52   29   30 1   
    53   29   31 2   
    54   29   32 2   
    55   30   52 1   
    56   30   53 1   
    57   30   54 1   
@<TRIPOS>SUBSTRUCTURE
     1 GWH         1 TEMP              0 ****  ****    0 ROOT
