@<TRIPOS>MOLECULE
GWH
   55    58     1     0     0
SMALL
bcc


@<TRIPOS>ATOM
      1 C1         -0.1190   -0.3730   -0.0950 ca        1 GWH      0.110800
      2 C2          1.2860   -0.1450   -0.1410 ca        1 GWH      0.347200
      3 N3          2.0080    0.3190    0.9230 nb        1 GWH     -0.619000
      4 C4          1.3520    0.5510    2.0540 ca        1 GWH      0.397200
      5 C5         -0.0540    0.3430    2.2170 cp        1 GWH     -0.024300
      6 C6         -0.7850   -0.1040    1.1170 ca        1 GWH     -0.151000
      7 O7         -0.6630   -0.8900   -1.2360 os        1 GWH     -0.371900
      8 N8          2.0340   -0.4340   -1.3770 n4        1 GWH     -0.794300
      9 C9         -2.1130   -0.9190   -1.3870 c3        1 GWH      0.201400
     10 C10        -2.5580    0.3560   -2.0460 ca        1 GWH     -0.065300
     11 C11        -2.3760   -2.1310   -2.2680 c3        1 GWH     -0.104100
     12 C12        -3.5660    1.1760   -1.4970 ca        1 GWH     -0.137200
     13 C13        -3.9960    2.3090   -2.2130 ca        1 GWH     -0.122000
     14 C14        -3.4140    2.6600   -3.4220 ca        1 GWH     -0.134000
     15 C15        -2.3810    1.8630   -3.9490 ca        1 GWH      0.142900
     16 C16        -1.9670    0.7100   -3.2610 ca        1 GWH     -0.161000
     17 F17        -1.7890    2.1980   -5.1170 f         1 GWH     -0.121900
     18 N18        -4.0970    0.8200   -0.1700 na        1 GWH      0.018200
     19 N19        -4.3110    1.9190    0.7130 na        1 GWH     -0.185400
     20 C20        -5.6870    1.8270    1.1510 cc        1 GWH     -0.190800
     21 C21        -6.2610    0.7130    0.6020 cd        1 GWH     -0.190800
     22 N22        -5.2880    0.0320   -0.2190 na        1 GWH     -0.185400
     23 C23        -0.6770    0.5740    3.5110 cp        1 GWH     -0.116000
     24 C24         0.0310    0.2970    4.6890 ca        1 GWH      0.004000
     25 C25        -0.5550    0.4790    5.9440 ca        1 GWH     -0.368500
     26 C26        -1.8740    0.9430    6.0120 ca        1 GWH      0.010000
     27 C27        -2.5870    1.2320    4.8490 ca        1 GWH     -0.150000
     28 C28        -1.9970    1.0480    3.6020 ca        1 GWH     -0.039000
     29 S29         0.3040    0.0740    7.3470 sy        1 GWH      1.395300
     30 C30         0.7110    1.6170    7.8900 c3        1 GWH     -0.369300
     31 O31        -0.5620   -0.5300    8.2610 o         1 GWH     -0.646800
     32 O32         1.4660   -0.6110    6.9670 o         1 GWH     -0.646800
     33 H4          1.9700    0.9310    2.8930 h4        1 GWH      0.064100
     34 H6         -1.8770   -0.2460    1.2040 ha        1 GWH      0.202000
     35 HN8         1.3810   -0.3860   -2.1680 hn        1 GWH      0.468133
     36 HN8A        2.7950    0.2440   -1.5050 hn        1 GWH      0.468133
     37 H9         -2.5920   -1.0840   -0.3840 h1        1 GWH      0.110700
     38 H11        -3.4760   -2.2160   -2.4390 hc        1 GWH      0.064033
     39 H11A       -2.0120   -3.0570   -1.7620 hc        1 GWH      0.064033
     40 H11B       -1.8600   -2.0330   -3.2530 hc        1 GWH      0.064033
     41 H13        -4.8150    2.9410   -1.8280 ha        1 GWH      0.150000
     42 H14        -3.7530    3.5500   -3.9760 ha        1 GWH      0.171000
     43 H16        -1.1790    0.0750   -3.6940 ha        1 GWH      0.147000
     44 HN19       -4.1200    2.8260    0.3030 hn        1 GWH      0.210700
     45 H20        -6.0790    2.5550    1.8630 h4        1 GWH      0.197000
     46 H21        -7.2500    0.2760    0.7440 h4        1 GWH      0.197000
     47 HN22       -5.6440   -0.1220   -1.1550 hn        1 GWH      0.210700
     48 H24         1.0620   -0.1020    4.6380 ha        1 GWH      0.164000
     49 H26        -2.3580    1.0620    6.9990 ha        1 GWH      0.163000
     50 H27        -3.6240    1.5970    4.9170 ha        1 GWH      0.157000
     51 H28        -2.5690    1.2770    2.6860 ha        1 GWH      0.165000
     52 H30         1.1740    1.5770    8.9110 h1        1 GWH      0.121700
     53 H30A        1.4560    2.1360    7.2380 h1        1 GWH      0.121700
     54 H30B       -0.1650    2.3060    7.9820 h1        1 GWH      0.121700
     55 H83         2.4290   -1.3790   -1.3170 hn        1 GWH      0.468133
@<TRIPOS>BOND
     1    1    2 ar  
     2    1    6 ar  
     3    1    7 1   
     4    2    3 ar  
     5    2    8 1   
     6    3    4 ar  
     7    4    5 ar  
     8    4   33 1   
     9    5    6 ar  
    10    5   23 1   
    11    6   34 1   
    12    7    9 1   
    13    8   35 1   
    14    8   36 1   
    15    8   55 1   
    16    9   10 1   
    17    9   11 1   
    18    9   37 1   
    19   10   12 ar  
    20   10   16 ar  
    21   11   38 1   
    22   11   39 1   
    23   11   40 1   
    24   12   13 ar  
    25   12   18 1   
    26   13   14 ar  
    27   13   41 1   
    28   14   15 ar  
    29   14   42 1   
    30   15   16 ar  
    31   15   17 1   
    32   16   43 1   
    33   18   19 1   
    34   18   22 1   
    35   19   20 1   
    36   19   44 1   
    37   20   21 2   
    38   20   45 1   
    39   21   22 1   
    40   21   46 1   
    41   22   47 1   
    42   23   24 ar  
    43   23   28 ar  
    44   24   25 ar  
    45   24   48 1   
    46   25   26 ar  
    47   25   29 1   
    48   26   27 ar  
    49   26   49 1   
    50   27   28 ar  
    51   27   50 1   
    52   28   51 1   
    53   29   30 1   
    54   29   31 2   
    55   29   32 2   
    56   30   52 1   
    57   30   53 1   
    58   30   54 1   
@<TRIPOS>SUBSTRUCTURE
     1 GWH         1 TEMP              0 ****  ****    0 ROOT
