@<TRIPOS>MOLECULE
GWI
   60    63     1     0     0
SMALL
bcc


@<TRIPOS>ATOM
      1 C1          0.0000    0.0000    0.0000 c2        1 GWI      0.077000
      2 C2          1.4030    0.0000    0.0000 c2        1 GWI     -0.086000
      3 C3          2.0940    0.0000    1.2160 c2        1 GWI     -0.183000
      4 C6         -0.6870   -0.0010    1.2050 c2        1 GWI     -0.279000
      5 C4          1.3930   -0.0010    2.4030 c3        1 GWI     -0.355000
      6 C5          0.0070   -0.0010    2.3980 c2        1 GWI      0.040000
      7 Cl          2.2520   -0.0010    3.9130 cl        1 GWI      0.158000
      8 C7          2.1440    0.0010   -1.2740 c2        1 GWI      0.379000
      9 O1          2.6760    1.0210   -1.6680 o         1 GWI     -0.288000
     10 C8          2.2430   -1.2400   -2.0720 ca        1 GWI     -0.116000
     11 C9          3.0300   -1.2680   -3.2260 ca        1 GWI     -0.012000
     12 C10         3.1230   -2.4270   -3.9740 ca        1 GWI     -0.127000
     13 C11         2.4400   -3.5630   -3.5850 ca        1 GWI     -0.058000
     14 C12         1.6500   -3.5480   -2.4320 ca        1 GWI     -0.011000
     15 C13         1.5550   -2.3840   -1.6720 ca        1 GWI     -0.037000
     16 Cl1         4.1020   -2.4550   -5.4070 cl        1 GWI      0.083000
     17 O2         -0.6800    0.0060   -1.1730 os        1 GWI     -0.134000
     18 C15        -2.1080    0.0050   -1.0950 c3        1 GWI      0.028000
     19 C16        -2.6870    0.0110   -2.4860 c2        1 GWI      0.181000
     20 O3         -1.9500    0.0170   -3.4500 o         1 GWI     -0.305000
     21 N1         -4.0230    0.0110   -2.6590 ns        1 GWI      0.095000
     22 C17        -4.5620   -0.0840   -3.9470 ca        1 GWI     -0.008000
     23 C18        -5.7570   -0.7610   -4.1530 ca        1 GWI     -0.075000
     24 C23        -6.4760   -1.3930   -2.9900 c3        1 GWI     -0.095000
     25 C19        -6.2860   -0.8520   -5.4270 ca        1 GWI      0.028000
     26 C20        -5.6260   -0.2730   -6.4950 ca        1 GWI     -0.820000
     27 C21        -4.4350    0.4010   -6.2930 ca        1 GWI      0.067000
     28 C22        -3.9050    0.5030   -5.0220 ca        1 GWI     -0.049000
     29 N3         -7.2930    0.9160   -8.3330 ny        1 GWI     -0.034000
     30 C14        -6.7730    2.1590   -8.3480 c2        1 GWI      0.060000
     31 C24        -7.6730    3.3510   -8.5450 c3        1 GWI      0.014000
     32 S          -6.3040   -0.3940   -8.1160 s6        1 GWI      2.293000
     33 O4         -5.2180   -0.2290   -9.0180 o         1 GWI     -0.755500
     34 C25        -6.8370    4.6320   -8.5210 c3        1 GWI     -0.110000
     35 O6         -5.5800    2.3180   -8.2030 o         1 GWI     -0.230000
     36 O5         -7.1470   -1.5380   -8.1150 o         1 GWI     -0.755500
     37 C26         0.9420   -4.7270   -2.0300 c1        1 GWI     -0.104000
     38 N2          0.3820   -5.6680   -1.7310 n1        1 GWI     -0.046000
     39 H3          2.3300    0.1040    2.2680 DU        1 GWI      0.333000
     40 H6         -1.5340    0.3730    0.6420 ha        1 GWI      0.151000
     41 H5         -0.7270   -0.1650    3.1780 ha        1 GWI      0.119000
     42 H9          3.8180   -0.6150   -3.5800 ha        1 GWI      0.137000
     43 H11         2.3610   -4.6170   -3.8250 ha        1 GWI      0.136000
     44 H13         1.0550   -2.4780   -0.7160 ha        1 GWI      0.119000
     45 H15        -2.6410    0.8640   -0.7070 h1        1 GWI      0.064000
     46 H15A       -2.4250   -0.7420   -0.3770 h1        1 GWI      0.064000
     47 HN1        -4.3790   -0.5200   -1.8890 hn        1 GWI      0.094000
     48 H23        -7.5430   -1.5780   -3.0100 hc        1 GWI      0.067667
     49 H23A       -5.8760   -2.2890   -2.8910 hc        1 GWI      0.067667
     50 H23B       -5.8610   -1.2150   -2.1170 hc        1 GWI      0.067667
     51 H19        -6.9560   -0.8900   -6.2770 ha        1 GWI      0.135000
     52 H21        -4.4490    0.6040   -7.3570 ha        1 GWI      0.146000
     53 H22        -3.5250    1.3620   -4.4830 ha        1 GWI      0.143000
     54 HN3        -7.9880    1.2060   -7.6740 hn        1 GWI      0.160000
     55 H24        -7.3330    2.8480   -9.4430 hc        1 GWI      0.049500
     56 H24A       -8.3690    2.6130   -8.9260 hc        1 GWI      0.049500
     57 H25        -7.4310    5.5160   -8.3240 hc        1 GWI      0.103000
     58 H25A       -6.0610    4.8180   -9.2540 hc        1 GWI      0.103000
     59 H25B       -6.8120    4.9180   -7.4770 hc        1 GWI      0.103000
     60 H32        -7.6740    1.1380   -9.2320 hn        1 GWI      0.160000
@<TRIPOS>BOND
     1    1    2 1   
     2    1    4 1   
     3    1   17 1   
     4    2    3 1   
     5    2    8 1   
     6    3    5 1   
     7    3   39 1   
     8    4    6 1   
     9    4   40 1   
    10    5    6 1   
    11    5    7 1   
    12    5   39 1   
    13    6   41 1   
    14    8    9 1   
    15    8   10 1   
    16   10   11 1   
    17   10   15 1   
    18   11   12 1   
    19   11   42 1   
    20   12   13 1   
    21   12   16 1   
    22   13   14 1   
    23   13   43 1   
    24   14   15 1   
    25   14   37 1   
    26   15   44 1   
    27   17   18 1   
    28   18   19 1   
    29   18   45 1   
    30   18   46 1   
    31   19   20 1   
    32   19   21 1   
    33   21   22 1   
    34   21   47 1   
    35   22   23 1   
    36   22   28 1   
    37   23   24 1   
    38   23   25 1   
    39   24   48 1   
    40   24   49 1   
    41   24   50 1   
    42   25   26 1   
    43   25   51 1   
    44   26   27 1   
    45   26   32 1   
    46   27   28 1   
    47   27   52 1   
    48   28   53 1   
    49   29   30 1   
    50   29   32 1   
    51   29   54 1   
    52   29   60 1   
    53   30   31 1   
    54   30   35 1   
    55   31   34 1   
    56   31   55 1   
    57   31   56 1   
    58   32   33 1   
    59   32   36 1   
    60   34   57 1   
    61   34   58 1   
    62   34   59 1   
    63   37   38 1   
@<TRIPOS>SUBSTRUCTURE
     1 GWI         1 TEMP              0 ****  ****    0 ROOT
