@<TRIPOS>MOLECULE
GWI
   59    54     1     0     0
SMALL
bcc


@<TRIPOS>ATOM
      1 C1          2.6760    0.6750    3.6510 c1        1 GWI      0.109000
      2 C2          3.3590    1.8350    3.3190 c1        1 GWI     -0.156000
      3 C3          3.8950    2.6330    4.3180 c1        1 GWI     -0.071000
      4 C6          2.5290    0.3150    4.9810 c1        1 GWI     -0.171000
      5 C4          3.7470    2.2730    5.6480 c1        1 GWI     -0.088000
      6 C5          3.0640    1.1130    5.9790 c1        1 GWI     -0.070000
      7 CL          4.3570    3.3150    6.9060 cl        1 GWI      0.009000
      8 C7          3.5880    2.1880    1.8660 c2        1 GWI      0.324000
      9 O1          2.6410    2.3990    1.1360 o         1 GWI     -0.283000
     10 C8          4.9970    2.2520    1.3150 c2        1 GWI     -0.146000
     11 C9          5.2800    1.7050    0.0730 c2        1 GWI     -0.073000
     12 C10         6.5490    1.8360   -0.4690 c1        1 GWI     -0.079000
     13 C11         7.5350    2.5130    0.2310 c1        1 GWI     -0.067000
     14 C12         7.2520    3.0600    1.4730 c1        1 GWI     -0.007000
     15 C13         5.9830    2.9290    2.0150 c1        1 GWI     -0.047000
     16 CL1         6.8960    1.1750   -2.0440 cl        1 GWI      0.014000
     17 O2          2.0530   -0.0840    2.6450 os        1 GWI     -0.203000
     18 C15         0.6610   -0.2290    2.8180 c3        1 GWI     -0.052000
     19 C16        -0.0140   -0.2850    1.4630 c2        1 GWI      0.286000
     20 O3          0.4410    0.3480    0.5320 o         1 GWI     -0.339000
     21 N1         -1.2050   -1.0420    1.2930 n         1 GWI     -0.312000
     22 C17        -1.8650   -1.0570    0.0320 c2        1 GWI      0.146000
     23 C18        -2.9520   -1.8930   -0.1720 c2        1 GWI     -0.141000
     24 C23        -3.4590   -2.7620    0.9580 c3        1 GWI     -0.190000
     25 C19        -3.5720   -1.9350   -1.4110 c1        1 GWI      0.006000
     26 C20        -3.1050   -1.1400   -2.4480 c1        1 GWI     -0.880000
     27 C21        -2.0190   -0.3040   -2.2440 c1        1 GWI      0.006000
     28 C22        -1.3990   -0.2620   -1.0040 c1        1 GWI     -0.195000
     29 N3         -5.4630   -1.2080   -3.9710 n         1 GWI     -0.856000
     30 C14        -6.2430   -1.1880   -5.1580 c2        1 GWI      0.326000
     31 C24        -7.4230   -2.1260   -5.3050 c3        1 GWI     -0.184000
     32 S          -3.8230   -1.2830   -4.0660 s6        1 GWI      2.867000
     33 O4         -3.3060   -0.2810   -4.9560 o         1 GWI     -0.919000
     34 C25        -7.0830   -3.2130   -6.3020 c3        1 GWI     -0.212000
     35 O6         -5.9850   -0.3930   -6.0410 o         1 GWI     -0.322000
     36 O5         -3.3930   -2.4870   -4.7220 o         1 GWI     -0.919000
     37 C26         8.3310    3.7930    2.2400 c1        1 GWI     -0.107000
     38 N2          9.1440    4.3460    2.8180 n1        1 GWI     -0.010000
     39 H3          4.3760    3.4490    4.0850 ha        1 GWI      0.162000
     40 H6          2.0470   -0.5020    5.2150 ha        1 GWI      0.155000
     41 H5          2.9600    0.8590    6.9160 ha        1 GWI      0.160000
     42 H9          4.5840    1.2270   -0.4200 ha        1 GWI      0.163000
     43 H11         8.4280    2.6050   -0.1510 ha        1 GWI      0.166000
     44 H13         5.7840    3.3140    2.8890 ha        1 GWI      0.167000
     45 H15         0.4780   -1.0580    3.3090 h1        1 GWI      0.132000
     46 H15A        0.3140    0.5340    3.3250 h1        1 GWI      0.132000
     47 HN1        -1.5430   -1.5220    1.9900 hn        1 GWI      0.270000
     48 H23        -2.7050   -3.2340    1.3720 hc        1 GWI      0.093667
     49 H23A       -4.0990   -3.4160    0.6050 hc        1 GWI      0.093667
     50 H23B       -3.9020   -2.2010    1.6290 hc        1 GWI      0.093667
     51 H19        -4.3370   -2.5250   -1.5550 ha        1 GWI      0.157000
     52 H21        -1.6900    0.2560   -2.9730 ha        1 GWI      0.159000
     53 H22        -0.6350    0.3270   -0.8610 ha        1 GWI      0.180000
     54 HN3        -5.8700   -1.1500   -3.1560 hn        1 GWI      0.242000
     55 H24        -7.6270   -2.5300   -4.4390 hc        1 GWI      0.116000
     56 H24A       -8.2020   -1.6240   -5.6220 hc        1 GWI      0.116000
     57 H25        -7.7830   -3.8980   -6.2910 hc        1 GWI      0.083333
     58 H25A       -7.0200   -2.8240   -7.2010 hc        1 GWI      0.083333
     59 H25B       -6.2240   -3.6190   -6.0620 hc        1 GWI      0.083333
@<TRIPOS>BOND
     1    1    4 1   
     2    1   17 1   
     3    2    3 1   
     4    2    8 1   
     5    3   39 1   
     6    4   40 1   
     7    5    6 1   
     8    5    7 1   
     9    6   41 1   
    10    8    9 1   
    11    8   10 1   
    12   10   11 1   
    13   10   15 1   
    14   11   12 1   
    15   11   42 1   
    16   12   16 1   
    17   13   14 1   
    18   13   43 1   
    19   14   37 1   
    20   15   44 1   
    21   17   18 1   
    22   18   19 1   
    23   18   45 1   
    24   18   46 1   
    25   19   20 1   
    26   19   21 1   
    27   21   22 1   
    28   21   47 1   
    29   22   23 1   
    30   22   28 1   
    31   23   24 1   
    32   23   25 1   
    33   24   48 1   
    34   24   49 1   
    35   24   50 1   
    36   25   51 1   
    37   26   27 1   
    38   26   32 1   
    39   27   52 1   
    40   28   53 1   
    41   29   30 1   
    42   29   32 1   
    43   29   54 1   
    44   30   31 1   
    45   30   35 1   
    46   31   34 1   
    47   31   55 1   
    48   31   56 1   
    49   32   33 1   
    50   32   36 1   
    51   34   57 1   
    52   34   58 1   
    53   34   59 1   
    54   37   38 1   
@<TRIPOS>SUBSTRUCTURE
     1 GWI         1 TEMP              0 ****  ****    0 ROOT
