@<TRIPOS>MOLECULE
GWI
   61    63     1     0     0
SMALL
bcc


@<TRIPOS>ATOM
      1 C1         -1.3020   -1.9580   -0.3160 ca        1 GWI      0.093100
      2 C2         -0.1990   -1.1950   -0.7520 ca        1 GWI     -0.186600
      3 C3          0.9480   -1.1610    0.0510 ca        1 GWI     -0.063000
      4 C6         -1.2350   -2.7230    0.8520 ca        1 GWI     -0.164000
      5 C4          0.9980   -1.8790    1.2520 ca        1 GWI      0.009400
      6 C5         -0.0880   -2.6730    1.6420 ca        1 GWI     -0.055000
      7 CL          2.3780   -1.8020    2.2170 cl        1 GWI     -0.004400
      8 C7         -0.2120   -0.4560   -2.0320 c         1 GWI      0.660300
      9 O1         -1.2340    0.1550   -2.4130 o         1 GWI     -0.648100
     10 C8          1.0160   -0.4510   -2.8420 ca        1 GWI     -0.195600
     11 C9          1.2660    0.6400   -3.6880 ca        1 GWI     -0.058000
     12 C10         2.4220    0.6610   -4.4720 ca        1 GWI     -0.001600
     13 C11         3.3280   -0.4060   -4.4340 ca        1 GWI     -0.037000
     14 C12         3.0640   -1.5010   -3.5990 ca        1 GWI      0.009000
     15 C13         1.9140   -1.5240   -2.7990 ca        1 GWI     -0.052000
     16 CL1         2.7280    1.9860   -5.4780 cl        1 GWI     -0.037400
     17 O2         -2.3970   -1.9980   -1.1890 os        1 GWI     -0.332900
     18 C15        -3.6750   -2.1410   -0.6140 c3        1 GWI      0.075400
     19 C16        -4.4450   -0.8300   -0.5600 c         1 GWI      0.517100
     20 O3         -5.4500   -0.6170    0.0960 o         1 GWI     -0.395100
     21 N1         -3.9330    0.3320   -1.3970 n4        1 GWI     -0.579200
     22 C17        -4.5780    0.4060   -2.7100 ca        1 GWI      0.070600
     23 C18        -5.7880    1.1190   -2.8750 ca        1 GWI     -0.048300
     24 C23        -6.4460    1.8320   -1.7550 c3        1 GWI     -0.105800
     25 C19        -6.3660    1.1470   -4.1490 ca        1 GWI      0.007000
     26 C20        -5.7810    0.5020   -5.2510 ca        1 GWI     -0.460500
     27 C21        -4.5640   -0.1750   -5.0570 ca        1 GWI      0.013000
     28 C22        -3.9610   -0.2250   -3.8050 ca        1 GWI     -0.102000
     29 N3         -5.7100    1.8980   -7.5560 n4        1 GWI     -0.635700
     30 C14        -4.6750    1.5060   -8.5800 c         1 GWI      0.564100
     31 C24        -5.1570    1.1840   -9.9630 c3        1 GWI     -0.157400
     32 S          -6.5590    0.4440   -6.6920 sy        1 GWI      1.463200
     33 O4         -6.1780   -0.6200   -7.4800 o         1 GWI     -0.547800
     34 C25        -6.1750    2.1480  -10.5100 c3        1 GWI     -0.126100
     35 O6         -3.5300    1.4560   -8.1540 o         1 GWI     -0.432100
     36 O5         -7.8540    0.9090   -6.6260 o         1 GWI     -0.547800
     37 C26         3.9690   -2.5970   -3.5590 cg        1 GWI      0.195800
     38 N2          4.7070   -3.4950   -3.5270 n1        1 GWI     -0.284800
     39 H3          1.8180   -0.5610   -0.2700 ha        1 GWI      0.181000
     40 H6         -2.0570   -3.3890    1.1550 ha        1 GWI      0.160000
     41 H5         -0.0360   -3.2710    2.5700 ha        1 GWI      0.185000
     42 H9          0.5500    1.4780   -3.7220 ha        1 GWI      0.160000
     43 H11         4.2420   -0.3890   -5.0540 ha        1 GWI      0.186000
     44 H13         1.7190   -2.3920   -2.1470 ha        1 GWI      0.161000
     45 H15        -4.2410   -2.8350   -1.3060 h1        1 GWI      0.137200
     46 H15A       -3.6730   -2.5580    0.4310 h1        1 GWI      0.137200
     47 HN1        -2.9000    0.2030   -1.5260 hn        1 GWI      0.495800
     48 H23        -6.6730    1.1310   -0.9090 hc        1 GWI      0.089367
     49 H23A       -5.7940    2.6600   -1.3750 hc        1 GWI      0.089367
     50 H23B       -7.4170    2.2900   -2.0780 hc        1 GWI      0.089367
     51 H19        -7.3320    1.6800   -4.2770 ha        1 GWI      0.193000
     52 H21        -4.0750   -0.6930   -5.9060 ha        1 GWI      0.193000
     53 H22        -2.9880   -0.7470   -3.6840 ha        1 GWI      0.211000
     54 HN3        -6.4220    2.4610   -8.0330 hn        1 GWI      0.467800
     55 H24        -5.5690    0.1330   -9.9430 hc        1 GWI      0.132200
     56 H24A       -4.2420    1.1730  -10.6260 hc        1 GWI      0.132200
     57 H25        -7.1770    2.0190  -10.0340 hc        1 GWI      0.071700
     58 H25A       -5.8430    3.2090  -10.3920 hc        1 GWI      0.071700
     59 H25B       -6.3020    1.9530  -11.6070 hc        1 GWI      0.071700
     60 H12        -4.1040    1.2140   -0.8930 hn        1 GWI      0.495800
     61 H32        -5.2610    2.5030   -6.8670 hn        1 GWI      0.467800
@<TRIPOS>BOND
     1    1    2 ar  
     2    1    4 ar  
     3    1   17 1   
     4    2    3 ar  
     5    2    8 1   
     6    3    5 ar  
     7    3   39 1   
     8    4    6 ar  
     9    4   40 1   
    10    5    6 ar  
    11    5    7 1   
    12    6   41 1   
    13    8    9 2   
    14    8   10 1   
    15   10   11 ar  
    16   10   15 ar  
    17   11   12 ar  
    18   11   42 1   
    19   12   13 ar  
    20   12   16 1   
    21   13   14 ar  
    22   13   43 1   
    23   14   15 ar  
    24   14   37 1   
    25   15   44 1   
    26   17   18 1   
    27   18   19 1   
    28   18   45 1   
    29   18   46 1   
    30   19   20 2   
    31   19   21 1   
    32   21   22 1   
    33   21   47 1   
    34   21   60 1   
    35   22   23 ar  
    36   22   28 ar  
    37   23   24 1   
    38   23   25 ar  
    39   24   48 1   
    40   24   49 1   
    41   24   50 1   
    42   25   26 ar  
    43   25   51 1   
    44   26   27 ar  
    45   26   32 1   
    46   27   28 ar  
    47   27   52 1   
    48   28   53 1   
    49   29   30 1   
    50   29   32 1   
    51   29   54 1   
    52   29   61 1   
    53   30   31 1   
    54   30   35 2   
    55   31   34 1   
    56   31   55 1   
    57   31   56 1   
    58   32   33 2   
    59   32   36 2   
    60   34   57 1   
    61   34   58 1   
    62   34   59 1   
    63   37   38 3   
@<TRIPOS>SUBSTRUCTURE
     1 GWI         1 TEMP              0 ****  ****    0 ROOT
