@<TRIPOS>MOLECULE
GWI
   59    61     1     0     0
SMALL
bcc


@<TRIPOS>ATOM
      1 C1         -3.1060    1.8380    0.7660 ca        1 GWI      0.165100
      2 C2         -3.5790    0.7070    0.0680 ca        1 GWI     -0.187600
      3 C3         -4.9510    0.4330    0.0790 ca        1 GWI     -0.065000
      4 C6         -3.9900    2.6750    1.4620 ca        1 GWI     -0.191000
      5 C4         -5.8280    1.2620    0.7820 ca        1 GWI     -0.019600
      6 C5         -5.3500    2.3830    1.4720 ca        1 GWI     -0.064000
      7 CL         -7.4870    0.9080    0.7970 cl        1 GWI     -0.070400
      8 C7         -2.6330   -0.1960   -0.6230 c         1 GWI      0.615300
      9 O1         -1.5340   -0.4850   -0.1310 o         1 GWI     -0.535100
     10 C8         -3.0570   -0.7580   -1.9270 ca        1 GWI     -0.168600
     11 C9         -2.5470   -2.0010   -2.3220 ca        1 GWI     -0.055000
     12 C10        -2.9210   -2.5430   -3.5550 ca        1 GWI     -0.002600
     13 C11        -3.7860   -1.8490   -4.4070 ca        1 GWI     -0.063000
     14 C12        -4.2800   -0.5990   -4.0100 ca        1 GWI     -0.014000
     15 C13        -3.9200   -0.0530   -2.7710 ca        1 GWI     -0.055000
     16 CL1        -2.3150   -4.0550   -4.0270 cl        1 GWI     -0.063400
     17 O2         -1.7550    2.0970    0.6520 os        1 GWI     -0.324900
     18 C15        -1.1720    2.8090    1.7470 c3        1 GWI      0.050400
     19 C16         0.3240    2.4840    1.8350 c         1 GWI      0.665100
     20 O3          1.0710    3.3650    2.2950 o         1 GWI     -0.576100
     21 N1          0.7380    1.2190    1.4550 n         1 GWI     -0.454100
     22 C17         2.0380    0.7070    1.5240 ca        1 GWI      0.141600
     23 C18         2.3230   -0.5530    0.9140 ca        1 GWI     -0.152300
     24 C23         1.2800   -1.3200    0.1910 c3        1 GWI     -0.056800
     25 C19         3.6070   -1.0770    1.0030 ca        1 GWI      0.007000
     26 C20         4.6430   -0.4140    1.6740 ca        1 GWI     -0.439500
     27 C21         4.3530    0.8220    2.2650 ca        1 GWI      0.025000
     28 C22         3.0840    1.3780    2.1990 ca        1 GWI     -0.195000
     29 N3          7.0630   -0.3170    0.6760 n         1 GWI     -0.675300
     30 C14         7.5050    1.0080    0.6720 c         1 GWI      0.689100
     31 C24         8.4340    1.4290   -0.4490 c3        1 GWI     -0.150400
     32 S           6.1480   -1.1110    1.8090 sy        1 GWI      1.519900
     33 O4          6.6730   -0.9180    3.0940 o         1 GWI     -0.646800
     34 C25         8.8060    2.8840   -0.3360 c3        1 GWI     -0.089100
     35 O6          7.1320    1.7870    1.5650 o         1 GWI     -0.577100
     36 O5          6.0870   -2.4520    1.3560 o         1 GWI     -0.646800
     37 C26        -5.1540    0.1190   -4.8720 cg        1 GWI      0.223800
     38 N2         -5.8690    0.7070   -5.5770 n1        1 GWI     -0.338800
     39 H3         -5.3320   -0.4480   -0.4630 ha        1 GWI      0.161000
     40 H6         -3.6150    3.5620    1.9940 ha        1 GWI      0.154000
     41 H5         -6.0470    3.0360    2.0210 ha        1 GWI      0.159000
     42 H9         -1.8500   -2.5380   -1.6560 ha        1 GWI      0.172000
     43 H11        -4.0750   -2.2760   -5.3810 ha        1 GWI      0.166000
     44 H13        -4.3120    0.9320   -2.4670 ha        1 GWI      0.161000
     45 H15        -1.2830    3.9100    1.5560 h1        1 GWI      0.082700
     46 H15A       -1.6500    2.5280    2.7210 h1        1 GWI      0.082700
     47 HN1         0.0510    0.6420    1.0010 hn        1 GWI      0.358500
     48 H23         0.8570   -0.7220   -0.6560 hc        1 GWI      0.051367
     49 H23A        1.7000   -2.2670   -0.2300 hc        1 GWI      0.051367
     50 H23B        0.4360   -1.5920    0.8750 hc        1 GWI      0.051367
     51 H19         3.8200   -2.0590    0.5400 ha        1 GWI      0.157000
     52 H21         5.1570    1.3690    2.7950 ha        1 GWI      0.174000
     53 H22         2.9100    2.3540    2.6810 ha        1 GWI      0.180000
     54 HN3         7.3750   -0.8480   -0.1090 hn        1 GWI      0.331500
     55 H24         9.3590    0.7920   -0.4070 hc        1 GWI      0.067700
     56 H24A        7.9290    1.2360   -1.4330 hc        1 GWI      0.067700
     57 H25         7.8940    3.5270   -0.3900 hc        1 GWI      0.049367
     58 H25A        9.3090    3.0850    0.6410 hc        1 GWI      0.049367
     59 H25B        9.4970    3.1650   -1.1660 hc        1 GWI      0.049367
@<TRIPOS>BOND
     1    1    2 ar  
     2    1    4 ar  
     3    1   17 1   
     4    2    3 ar  
     5    2    8 1   
     6    3    5 ar  
     7    3   39 1   
     8    4    6 ar  
     9    4   40 1   
    10    5    6 ar  
    11    5    7 1   
    12    6   41 1   
    13    8    9 2   
    14    8   10 1   
    15   10   11 ar  
    16   10   15 ar  
    17   11   12 ar  
    18   11   42 1   
    19   12   13 ar  
    20   12   16 1   
    21   13   14 ar  
    22   13   43 1   
    23   14   15 ar  
    24   14   37 1   
    25   15   44 1   
    26   17   18 1   
    27   18   19 1   
    28   18   45 1   
    29   18   46 1   
    30   19   20 2   
    31   19   21 1   
    32   21   22 1   
    33   21   47 1   
    34   22   23 ar  
    35   22   28 ar  
    36   23   24 1   
    37   23   25 ar  
    38   24   48 1   
    39   24   49 1   
    40   24   50 1   
    41   25   26 ar  
    42   25   51 1   
    43   26   27 ar  
    44   26   32 1   
    45   27   28 ar  
    46   27   52 1   
    47   28   53 1   
    48   29   30 1   
    49   29   32 1   
    50   29   54 1   
    51   30   31 1   
    52   30   35 2   
    53   31   34 1   
    54   31   55 1   
    55   31   56 1   
    56   32   33 2   
    57   32   36 2   
    58   34   57 1   
    59   34   58 1   
    60   34   59 1   
    61   37   38 3   
@<TRIPOS>SUBSTRUCTURE
     1 GWI         1 TEMP              0 ****  ****    0 ROOT
