@<TRIPOS>MOLECULE
GWJ
   53    55     1     0     0
SMALL
bcc


@<TRIPOS>ATOM
      1 C1         -1.0080   -0.2930    0.4330 ca        1 GWJ      0.102100
      2 C2          0.1030   -0.5100   -0.4080 ca        1 GWJ     -0.194600
      3 C3          1.3820   -0.3770    0.1500 ca        1 GWJ     -0.064000
      4 C6         -0.8560    0.0030    1.7920 ca        1 GWJ     -0.115000
      5 C4          1.5430   -0.0610    1.5060 ca        1 GWJ      0.017400
      6 C5          0.4250    0.1230    2.3280 ca        1 GWJ     -0.063000
      7 CL          3.0960    0.0950    2.1440 cl        1 GWJ     -0.005400
      8 C7         -0.0400   -0.8270   -1.8410 c         1 GWJ      0.656300
      9 O1         -1.0890   -0.5530   -2.4640 o         1 GWJ     -0.672100
     10 C8          1.0820   -1.4860   -2.5350 ca        1 GWJ     -0.191600
     11 C9          1.4140   -1.0720   -3.8320 ca        1 GWJ     -0.069000
     12 C10         2.4620   -1.6970   -4.5140 ca        1 GWJ      0.003400
     13 C11         3.1720   -2.7480   -3.9200 ca        1 GWJ     -0.042000
     14 C12         2.8230   -3.1670   -2.6290 ca        1 GWJ      0.017000
     15 C13         1.7850   -2.5350   -1.9310 ca        1 GWJ     -0.063000
     16 CL1         2.8720   -1.1800   -6.0720 cl        1 GWJ     -0.038400
     17 O2         -2.3110   -0.2350   -0.0690 os        1 GWJ     -0.367900
     18 C15        -2.9000   -1.5000   -0.3520 c3        1 GWJ      0.078400
     19 C16        -3.9150   -1.3380   -1.4660 c         1 GWJ      0.553100
     20 O3         -4.7480   -2.1560   -1.8100 o         1 GWJ     -0.395100
     21 N1         -3.8830   -0.0080   -2.2170 n4        1 GWJ     -0.570200
     22 C17        -4.3460   -0.0800   -3.6010 ca        1 GWJ      0.076600
     23 C18        -5.7130    0.0930   -3.9110 ca        1 GWJ     -0.043300
     24 C23        -6.7280    0.3560   -2.8630 c3        1 GWJ     -0.101800
     25 C19        -6.1070   -0.0150   -5.2500 ca        1 GWJ      0.013000
     26 C20        -5.1900   -0.2850   -6.2790 ca        1 GWJ     -0.471500
     27 C21        -3.8320   -0.4350   -5.9370 ca        1 GWJ      0.006000
     28 C22        -3.4050   -0.3350   -4.6180 ca        1 GWJ     -0.110000
     29 N3         -5.5940    1.1780   -8.5030 n4        1 GWJ     -0.798500
     30 S          -5.7050   -0.5790   -7.8040 sy        1 GWJ      1.467200
     31 O4         -4.7650   -1.2140   -8.5810 o         1 GWJ     -0.537300
     32 O5         -7.0600   -0.7930   -7.8880 o         1 GWJ     -0.537300
     33 C26         3.5260   -4.2410   -2.0180 cg        1 GWJ      0.192800
     34 N2          4.1000   -5.1200   -1.5170 n1        1 GWJ     -0.279800
     35 H3          2.2760   -0.5080   -0.4870 ha        1 GWJ      0.178000
     36 H6         -1.7430    0.1590    2.4250 ha        1 GWJ      0.171000
     37 H5          0.5530    0.3660    3.3980 ha        1 GWJ      0.186000
     38 H9          0.8550   -0.2470   -4.3010 ha        1 GWJ      0.151000
     39 H11         3.9990   -3.2420   -4.4600 ha        1 GWJ      0.187000
     40 H13         1.5240   -2.8710   -0.9140 ha        1 GWJ      0.159000
     41 H15        -2.1380   -2.2560   -0.6900 h1        1 GWJ      0.127700
     42 H15A       -3.4480   -1.8630    0.5640 h1        1 GWJ      0.127700
     43 HN1        -2.8920    0.3250   -2.1910 hn        1 GWJ      0.497300
     44 H23        -6.5250    1.3270   -2.3430 hc        1 GWJ      0.086700
     45 H23A       -7.7590    0.4170   -3.2990 hc        1 GWJ      0.086700
     46 H23B       -6.7340   -0.4730   -2.1080 hc        1 GWJ      0.086700
     47 H19        -7.1860    0.0850   -5.4900 ha        1 GWJ      0.192000
     48 H21        -3.0870   -0.6700   -6.7240 ha        1 GWJ      0.193000
     49 H22        -2.3290   -0.4720   -4.3790 ha        1 GWJ      0.214000
     50 HN3        -6.5110    1.4870   -8.8360 hn        1 GWJ      0.468800
     51 HN3A       -5.2640    1.8690   -7.8350 hn        1 GWJ      0.468800
     52 H12        -4.4600    0.6630   -1.6910 hn        1 GWJ      0.497300
     53 H33        -4.9610    1.2020   -9.3070 hn        1 GWJ      0.468800
@<TRIPOS>BOND
     1    1    2 ar  
     2    1    4 ar  
     3    1   17 1   
     4    2    3 ar  
     5    2    8 1   
     6    3    5 ar  
     7    3   35 1   
     8    4    6 ar  
     9    4   36 1   
    10    5    6 ar  
    11    5    7 1   
    12    6   37 1   
    13    8    9 2   
    14    8   10 1   
    15   10   11 ar  
    16   10   15 ar  
    17   11   12 ar  
    18   11   38 1   
    19   12   13 ar  
    20   12   16 1   
    21   13   14 ar  
    22   13   39 1   
    23   14   15 ar  
    24   14   33 1   
    25   15   40 1   
    26   17   18 1   
    27   18   19 1   
    28   18   41 1   
    29   18   42 1   
    30   19   20 2   
    31   19   21 1   
    32   21   22 1   
    33   21   43 1   
    34   21   52 1   
    35   22   23 ar  
    36   22   28 ar  
    37   23   24 1   
    38   23   25 ar  
    39   24   44 1   
    40   24   45 1   
    41   24   46 1   
    42   25   26 ar  
    43   25   47 1   
    44   26   27 ar  
    45   26   30 1   
    46   27   28 ar  
    47   27   48 1   
    48   28   49 1   
    49   29   30 1   
    50   29   50 1   
    51   29   51 1   
    52   29   53 1   
    53   30   31 2   
    54   30   32 2   
    55   33   34 3   
@<TRIPOS>SUBSTRUCTURE
     1 GWJ         1 TEMP              0 ****  ****    0 ROOT
