@<TRIPOS>MOLECULE
GWJ
   51    53     1     0     0
SMALL
bcc


@<TRIPOS>ATOM
      1 C1         -2.2350    2.1450    0.3830 ca        1 GWJ      0.165100
      2 C2         -2.6860    0.8450    0.0730 ca        1 GWJ     -0.187600
      3 C3         -4.0320    0.5290    0.2880 ca        1 GWJ     -0.065000
      4 C6         -3.1140    3.1070    0.9000 ca        1 GWJ     -0.191000
      5 C4         -4.9030    1.4860    0.8140 ca        1 GWJ     -0.018600
      6 C5         -4.4470    2.7740    1.1190 ca        1 GWJ     -0.064000
      7 CL         -6.5290    1.0830    1.0820 cl        1 GWJ     -0.070400
      8 C7         -1.7410   -0.1770   -0.4270 c         1 GWJ      0.615300
      9 O1         -0.5890   -0.2710    0.0190 o         1 GWJ     -0.534100
     10 C8         -2.2300   -1.1000   -1.4790 ca        1 GWJ     -0.168600
     11 C9         -1.6740   -2.3830   -1.5590 ca        1 GWJ     -0.055000
     12 C10        -2.1080   -3.2650   -2.5530 ca        1 GWJ     -0.002600
     13 C11        -3.0810   -2.8740   -3.4790 ca        1 GWJ     -0.063000
     14 C12        -3.6220   -1.5830   -3.4000 ca        1 GWJ     -0.014000
     15 C13        -3.2010   -0.6970   -2.4000 ca        1 GWJ     -0.056000
     16 CL1        -1.4460   -4.8230   -2.6420 cl        1 GWJ     -0.063400
     17 O2         -0.9170    2.4170    0.0750 os        1 GWJ     -0.324900
     18 C15        -0.2960    3.4290    0.8720 c3        1 GWJ      0.050400
     19 C16         1.2190    3.1970    0.9120 c         1 GWJ      0.665100
     20 O3          1.9450    4.1990    1.0320 o         1 GWJ     -0.581100
     21 N1          1.6770    1.8920    0.8720 n         1 GWJ     -0.454100
     22 C17         3.0110    1.4740    0.9570 ca        1 GWJ      0.132600
     23 C18         3.3380    0.1210    0.6460 ca        1 GWJ     -0.146300
     24 C23         2.3040   -0.8520    0.2210 c3        1 GWJ     -0.057800
     25 C19         4.6620   -0.2990    0.7490 ca        1 GWJ      0.004000
     26 C20         5.6900    0.5600    1.1490 ca        1 GWJ     -0.419500
     27 C21         5.3540    1.8800    1.4660 ca        1 GWJ      0.004000
     28 C22         4.0480    2.3390    1.3750 ca        1 GWJ     -0.188000
     29 N3          7.9100    0.3680   -0.1500 n3        1 GWJ     -1.026700
     30 S           7.2740    0.0110    1.2790 sy        1 GWJ      1.533200
     31 O4          7.9340    0.7660    2.2740 o         1 GWJ     -0.662300
     32 O5          7.2520   -1.3930    1.4330 o         1 GWJ     -0.662300
     33 C26        -4.6050   -1.1730   -4.3400 cg        1 GWJ      0.223800
     34 N2         -5.4100   -0.8360   -5.1100 n1        1 GWJ     -0.338800
     35 H3         -4.3960   -0.4840    0.0500 ha        1 GWJ      0.161000
     36 H6         -2.7570    4.1230    1.1270 ha        1 GWJ      0.154000
     37 H5         -5.1400    3.5260    1.5280 ha        1 GWJ      0.159000
     38 H9         -0.8930   -2.6830   -0.8390 ha        1 GWJ      0.172000
     39 H11        -3.4180   -3.5700   -4.2650 ha        1 GWJ      0.166000
     40 H13        -3.6290    0.3180   -2.3450 ha        1 GWJ      0.161000
     41 H15        -0.4890    4.4270    0.3940 h1        1 GWJ      0.082200
     42 H15A       -0.6810    3.4170    1.9260 h1        1 GWJ      0.082200
     43 HN1         0.9970    1.1840    0.6560 hn        1 GWJ      0.358500
     44 H23         1.7740   -0.4980   -0.7010 hc        1 GWJ      0.051700
     45 H23A        2.7600   -1.8490   -0.0030 hc        1 GWJ      0.051700
     46 H23B        1.5370   -0.9960    1.0240 hc        1 GWJ      0.051700
     47 H19         4.9090   -1.3530    0.5240 ha        1 GWJ      0.153000
     48 H21         6.1440    2.5690    1.8150 ha        1 GWJ      0.152000
     49 H22         3.8350    3.3890    1.6350 ha        1 GWJ      0.176000
     50 HN3         8.3720    1.2190   -0.3450 hn        1 GWJ      0.445300
     51 HN3A        7.8960   -0.2470   -0.9230 hn        1 GWJ      0.445300
@<TRIPOS>BOND
     1    1    2 ar  
     2    1    4 ar  
     3    1   17 1   
     4    2    3 ar  
     5    2    8 1   
     6    3    5 ar  
     7    3   35 1   
     8    4    6 ar  
     9    4   36 1   
    10    5    6 ar  
    11    5    7 1   
    12    6   37 1   
    13    8    9 2   
    14    8   10 1   
    15   10   11 ar  
    16   10   15 ar  
    17   11   12 ar  
    18   11   38 1   
    19   12   13 ar  
    20   12   16 1   
    21   13   14 ar  
    22   13   39 1   
    23   14   15 ar  
    24   14   33 1   
    25   15   40 1   
    26   17   18 1   
    27   18   19 1   
    28   18   41 1   
    29   18   42 1   
    30   19   20 2   
    31   19   21 1   
    32   21   22 1   
    33   21   43 1   
    34   22   23 ar  
    35   22   28 ar  
    36   23   24 1   
    37   23   25 ar  
    38   24   44 1   
    39   24   45 1   
    40   24   46 1   
    41   25   26 ar  
    42   25   47 1   
    43   26   27 ar  
    44   26   30 1   
    45   27   28 ar  
    46   27   48 1   
    47   28   49 1   
    48   29   30 1   
    49   29   50 1   
    50   29   51 1   
    51   30   31 2   
    52   30   32 2   
    53   33   34 3   
@<TRIPOS>SUBSTRUCTURE
     1 GWJ         1 TEMP              0 ****  ****    0 ROOT
