@<TRIPOS>MOLECULE
GWJ
   51    46     1     0     0
SMALL
bcc


@<TRIPOS>ATOM
      1 C1          0.9450   -0.3150    2.9290 c1        1 GWJ      0.120000
      2 C2          2.3220   -0.3410    3.0810 c1        1 GWJ     -0.167000
      3 C3          2.8770   -0.5190    4.3380 c1        1 GWJ     -0.064000
      4 C6          0.1230   -0.4690    4.0340 c1        1 GWJ     -0.191000
      5 C4          2.0550   -0.6730    5.4440 c1        1 GWJ     -0.098000
      6 C5          0.6780   -0.6470    5.2920 c1        1 GWJ     -0.064000
      7 CL          2.7530   -0.9210    7.0220 cl        1 GWJ      0.007000
      8 C7          3.2180   -0.1990    1.8730 c2        1 GWJ      0.335000
      9 O1          3.1840    0.8160    1.2080 o         1 GWJ     -0.295000
     10 C8          4.2060   -1.2900    1.5340 c2        1 GWJ     -0.148000
     11 C9          4.4560   -2.3050    2.4440 c2        1 GWJ     -0.067000
     12 C10         5.4000   -3.2780    2.1550 c1        1 GWJ     -0.081000
     13 C11         6.0930   -3.2360    0.9560 c1        1 GWJ     -0.062000
     14 C12         5.8420   -2.2210    0.0450 c1        1 GWJ     -0.009000
     15 C13         4.8990   -1.2480    0.3350 c1        1 GWJ     -0.043000
     16 CL1         5.7430   -4.5320    3.3160 cl        1 GWJ      0.013000
     17 O2          0.3810   -0.2090    1.6420 os        1 GWJ     -0.208000
     18 C15        -0.6490    0.7520    1.5470 c3        1 GWJ     -0.050000
     19 C16        -1.1110    0.8570    0.1040 c2        1 GWJ      0.309000
     20 O3         -0.2950    0.9810   -0.7870 o         1 GWJ     -0.342000
     21 N1         -2.5030    0.9060   -0.1950 n         1 GWJ     -0.308000
     22 C17        -2.9380    1.1010   -1.5400 c2        1 GWJ      0.139000
     23 C18        -4.2940    1.1260   -1.8330 c2        1 GWJ     -0.139000
     24 C23        -5.3110    1.0120   -0.7180 c3        1 GWJ     -0.183000
     25 C19        -4.7170    1.2700   -3.1470 c1        1 GWJ      0.004000
     26 C20        -3.7850    1.3880   -4.1670 c1        1 GWJ     -0.864000
     27 C21        -2.4290    1.3630   -3.8740 c1        1 GWJ      0.003000
     28 C22        -2.0060    1.2190   -2.5600 c1        1 GWJ     -0.189000
     29 N3         -4.6970    2.9960   -6.2800 n3        1 GWJ     -0.953000
     30 S          -4.3250    1.4510   -5.8590 s6        1 GWJ      2.871000
     31 O4         -3.3390    0.8930   -6.7420 o         1 GWJ     -0.942000
     32 O5         -5.4330    0.5680   -6.0850 o         1 GWJ     -0.942000
     33 C26         6.5580   -2.2070   -1.2880 c1        1 GWJ     -0.106000
     34 N2          7.0970   -2.1960   -2.2910 n1        1 GWJ     -0.011000
     35 H3          3.8480   -0.5370    4.4460 ha        1 GWJ      0.162000
     36 H6         -0.8470   -0.4510    3.9270 ha        1 GWJ      0.154000
     37 H5          0.0990   -0.7560    6.0700 ha        1 GWJ      0.159000
     38 H9          3.9680   -2.3350    3.2890 ha        1 GWJ      0.164000
     39 H11         6.7560   -3.9210    0.7520 ha        1 GWJ      0.166000
     40 H13         4.7230   -0.5340   -0.3060 ha        1 GWJ      0.168000
     41 H15        -0.3130    1.6210    1.8460 h1        1 GWJ      0.121500
     42 H15A       -1.4020    0.4800    2.1120 h1        1 GWJ      0.121500
     43 HN1        -3.1160    0.8030    0.4720 hn        1 GWJ      0.272000
     44 H23        -6.2110    0.9530   -1.1020 hc        1 GWJ      0.091000
     45 H23A       -5.1280    0.2060   -0.1900 hc        1 GWJ      0.091000
     46 H23B       -5.2530    1.8020   -0.1400 hc        1 GWJ      0.091000
     47 H19        -5.6710    1.2880   -3.3530 ha        1 GWJ      0.153000
     48 H21        -1.7730    1.4460   -4.5910 ha        1 GWJ      0.153000
     49 H22        -1.0550    1.2010   -2.3540 ha        1 GWJ      0.176000
     50 HN3        -5.3470    3.4510   -5.8230 hn        1 GWJ      0.240500
     51 HN3A       -4.2740    3.3900   -6.9840 hn        1 GWJ      0.240500
@<TRIPOS>BOND
     1    1    4 1   
     2    1   17 1   
     3    2    3 1   
     4    2    8 1   
     5    3   35 1   
     6    4   36 1   
     7    5    6 1   
     8    5    7 1   
     9    6   37 1   
    10    8    9 1   
    11    8   10 1   
    12   10   11 1   
    13   10   15 1   
    14   11   12 1   
    15   11   38 1   
    16   12   16 1   
    17   13   14 1   
    18   13   39 1   
    19   14   33 1   
    20   15   40 1   
    21   17   18 1   
    22   18   19 1   
    23   18   41 1   
    24   18   42 1   
    25   19   20 1   
    26   19   21 1   
    27   21   22 1   
    28   21   43 1   
    29   22   23 1   
    30   22   28 1   
    31   23   24 1   
    32   23   25 1   
    33   24   44 1   
    34   24   45 1   
    35   24   46 1   
    36   25   47 1   
    37   26   27 1   
    38   26   30 1   
    39   27   48 1   
    40   28   49 1   
    41   29   30 1   
    42   29   50 1   
    43   29   51 1   
    44   30   31 1   
    45   30   32 1   
    46   33   34 1   
@<TRIPOS>SUBSTRUCTURE
     1 GWJ         1 TEMP              0 ****  ****    0 ROOT
