@<TRIPOS>MOLECULE
GWJ
   52    55     1     0     0
SMALL
bcc


@<TRIPOS>ATOM
      1 C1          0.0000    0.0000    0.0000 ca        1 GWJ      0.146000
      2 C2          1.4030    0.0000    0.0000 ca        1 GWJ     -0.125000
      3 C3          2.0930    0.0000    1.2160 ca        1 GWJ     -0.023000
      4 C6         -0.6870   -0.0000    1.2050 ca        1 GWJ     -0.252000
      5 C4          1.3940    0.0000    2.4030 ca        1 GWJ     -0.180000
      6 C5          0.0070    0.0000    2.3990 ca        1 GWJ     -0.065000
      7 Cl          2.2530    0.0000    3.9120 cl        1 GWJ      0.089000
      8 C7          2.1440    0.0000   -1.2750 c2        1 GWJ      0.376000
      9 O1          2.6750    1.0200   -1.6690 o         1 GWJ     -0.289000
     10 C8          2.2420   -1.2410   -2.0720 ca        1 GWJ     -0.119000
     11 C9          3.0280   -1.2700   -3.2270 ca        1 GWJ     -0.018000
     12 C10         3.1200   -2.4290   -3.9730 ca        1 GWJ     -0.161000
     13 C11         2.4370   -3.5650   -3.5840 ca        1 GWJ     -0.052000
     14 C12         1.6470   -3.5480   -2.4320 ca        1 GWJ      0.025000
     15 C13         1.5540   -2.3850   -1.6720 ca        1 GWJ     -0.045000
     16 Cl1         4.0990   -2.4570   -5.4070 cl        1 GWJ      0.087000
     17 O2         -0.6810    0.0060   -1.1730 os        1 GWJ     -0.098000
     18 C15        -2.1080    0.0050   -1.0940 c3        1 GWJ     -0.085000
     19 C16        -2.6880    0.0120   -2.4840 c3        1 GWJ      0.331000
     20 O3         -1.9520    0.0170   -3.4480 o         1 GWJ     -0.415000
     21 N1         -4.0250    0.0130   -2.6580 nu        1 GWJ      0.055000
     22 C17        -4.5640   -0.0830   -3.9460 ca        1 GWJ      0.051000
     23 C18        -5.7590   -0.7600   -4.1520 ca        1 GWJ     -0.154000
     24 C23        -6.4780   -1.3920   -2.9870 c3        1 GWJ     -0.057000
     25 C19        -6.2880   -0.8530   -5.4240 ca        1 GWJ      0.001000
     26 C20        -5.6290   -0.2730   -6.4930 ca        1 GWJ     -0.672000
     27 C21        -4.4380    0.4010   -6.2900 ca        1 GWJ      0.018000
     28 C22        -3.9070    0.5030   -5.0200 ca        1 GWJ     -0.098000
     29 N3         -7.2960    0.9160   -8.3300 nz        1 GWJ      0.074000
     30 S          -6.3070   -0.3950   -8.1140 s6        1 GWJ      2.294000
     31 O4         -5.2220   -0.2300   -9.0160 o         1 GWJ     -0.764500
     32 O5         -7.1500   -1.5380   -8.1120 o         1 GWJ     -0.764500
     33 C26         0.9400   -4.7270   -2.0300 c1        1 GWJ     -0.108000
     34 N2          0.3760   -5.6540   -1.6930 n1        1 GWJ     -0.040000
     35 H3          3.0910   -0.1690    1.6040 ha        1 GWJ      0.142000
     36 H6         -1.6520    0.0660    1.6940 ha        1 GWJ      0.152000
     37 H5         -0.5780   -0.1620    3.2960 ha        1 GWJ      0.117000
     38 H9          3.7410   -0.4640   -3.3530 ha        1 GWJ      0.138000
     39 H11         2.5920   -4.2140   -4.4370 ha        1 GWJ      0.134000
     40 H13         0.7710   -2.7220   -1.0030 ha        1 GWJ      0.133000
     41 H15        -2.4560   -0.1370   -0.0780 h1        1 GWJ      0.171000
     42 H15A       -2.7050    0.4800   -1.8630 DU        1 GWJ     -0.006000
     43 HN1        -4.5290    0.0150   -1.7930 hn        1 GWJ      0.097000
     44 H23        -5.9230   -1.8260   -2.1650 hc        1 GWJ      0.061333
     45 H23A       -6.9000   -0.5150   -2.5090 hc        1 GWJ      0.061333
     46 H23B       -7.2530   -1.9210   -3.5290 hc        1 GWJ      0.061333
     47 H19        -7.0660   -1.6050   -5.3820 ha        1 GWJ      0.149000
     48 H21        -3.9520    0.8260   -7.1600 ha        1 GWJ      0.125000
     49 H22        -3.1000    1.2130   -4.8840 ha        1 GWJ      0.157000
     50 HN3        -6.9720    1.7740   -7.9280 hn        1 GWJ      0.114667
     51 HN3A       -8.1950    1.2570   -8.0500 hn        1 GWJ      0.114667
     52 H33        -7.0840    1.2550   -9.2480 hn        1 GWJ      0.114667
@<TRIPOS>BOND
     1    1    2 1   
     2    1    4 1   
     3    1   17 1   
     4    2    3 1   
     5    2    8 1   
     6    3    5 1   
     7    3   35 1   
     8    4    6 1   
     9    4   36 1   
    10    5    6 1   
    11    5    7 1   
    12    6   37 1   
    13    8    9 1   
    14    8   10 1   
    15   10   11 1   
    16   10   15 1   
    17   11   12 1   
    18   11   38 1   
    19   12   13 1   
    20   12   16 1   
    21   13   14 1   
    22   13   39 1   
    23   14   15 1   
    24   14   33 1   
    25   15   40 1   
    26   17   18 1   
    27   18   19 1   
    28   18   41 1   
    29   18   42 1   
    30   19   20 1   
    31   19   21 1   
    32   19   42 1   
    33   21   22 1   
    34   21   43 1   
    35   22   23 1   
    36   22   28 1   
    37   23   24 1   
    38   23   25 1   
    39   24   44 1   
    40   24   45 1   
    41   24   46 1   
    42   25   26 1   
    43   25   47 1   
    44   26   27 1   
    45   26   30 1   
    46   27   28 1   
    47   27   48 1   
    48   28   49 1   
    49   29   30 1   
    50   29   50 1   
    51   29   51 1   
    52   29   52 1   
    53   30   31 1   
    54   30   32 1   
    55   33   34 1   
@<TRIPOS>SUBSTRUCTURE
     1 GWJ         1 TEMP              0 ****  ****    0 ROOT
