@<TRIPOS>MOLECULE
GWX
   83    85     1     0     0
SMALL
bcc


@<TRIPOS>ATOM
      1 C1          1.6640   -0.7070   -0.3080 c3        1 GWX      0.066500
      2 N2          0.3220   -1.3310   -0.5670 ny        1 GWX     -0.687800
      3 C3          1.6740    0.0190    1.0480 c         1 GWX      0.513100
      4 C4         -0.7250   -0.3250   -1.1010 c         1 GWX      0.659100
      5 N5         -1.8330   -0.8160   -1.8000 ns        1 GWX     -0.446900
      6 O6         -0.4450    0.8530   -0.8950 o         1 GWX     -0.457100
      7 O7          0.9340   -0.2690    1.9790 o         1 GWX     -0.374100
      8 N8          2.6570    1.1220    1.2100 ny        1 GWX     -0.650800
      9 C9          2.7940   -1.7520   -0.2900 c3        1 GWX     -0.116400
     10 C10         2.9210   -2.5730   -1.5660 c3        1 GWX     -0.081700
     11 C11         4.1690   -3.4510   -1.4480 c3        1 GWX     -0.076400
     12 C12         4.3450   -4.3060   -2.6860 c3        1 GWX     -0.079900
     13 C13         4.4080   -3.4570   -3.9370 c3        1 GWX     -0.086400
     14 C14         3.1930   -2.5610   -4.0560 c3        1 GWX     -0.079900
     15 C15         3.0080   -1.7090   -2.8150 c3        1 GWX     -0.076400
     16 C16        -3.1320   -0.4230   -1.2330 c3        1 GWX     -0.024300
     17 C17        -3.1780   -0.7920    0.2610 c         1 GWX      0.614100
     18 O18        -4.2990   -0.6870    0.9920 oh        1 GWX     -0.487100
     19 O19        -2.1750   -1.1820    0.8740 o         1 GWX     -0.548000
     20 C20        -4.3150   -1.0460   -1.9960 c3        1 GWX     -0.099400
     21 C21        -5.3640   -0.0030   -2.3400 c3        1 GWX     -0.082400
     22 C22        -6.5390   -0.6470   -3.0570 c3        1 GWX     -0.111400
     23 C23        -7.5740    0.4190   -3.4070 c3        1 GWX      0.100800
     24 N24        -8.7690   -0.1290   -4.1120 nz        1 GWX     -0.837600
     25 C25         3.3770    1.1080    2.5430 c3        1 GWX      0.102500
     26 C26         4.6080    0.1640    2.5830 c3        1 GWX     -0.098400
     27 C27         3.9650    2.5160    2.9120 c3        1 GWX     -0.071000
     28 C28         5.7430    1.0880    3.0660 c3        1 GWX     -0.060700
     29 C29         4.9970    2.0720    4.0230 c3        1 GWX     -0.029000
     30 C30         6.1020    1.9910    1.8720 c3        1 GWX     -0.092400
     31 C31         4.9110    2.9590    1.7740 c3        1 GWX     -0.095400
     32 C32         5.8670    3.2060    4.5230 c3        1 GWX     -0.100100
     33 C33         4.3680    1.4130    5.2310 c3        1 GWX     -0.100100
     34 C34         2.9320    3.5200    3.3040 c3        1 GWX     -0.103100
     35 H1          1.8470    0.0350   -1.1490 hx        1 GWX      0.147700
     36 H2          0.4640   -2.1080   -1.2270 hn        1 GWX      0.493800
     37 H91C        2.6580   -2.4470    0.5830 hc        1 GWX      0.094700
     38 H92C        3.7560   -1.1900   -0.1330 hc        1 GWX      0.094700
     39 H8          2.1510    2.0230    1.1550 hn        1 GWX      0.475800
     40 H5         -1.7970   -1.7750   -2.0960 hn        1 GWX      0.325500
     41 H16        -3.1820    0.7100   -1.3000 h1        1 GWX      0.135700
     42 H25         2.6050    0.8120    3.3130 hx        1 GWX      0.129700
     43 H10         2.0390   -3.2680   -1.6620 hc        1 GWX      0.041700
     44 H111        5.0720   -2.8000   -1.3120 hc        1 GWX      0.042450
     45 H112        4.0790   -4.1090   -0.5440 hc        1 GWX      0.042450
     46 H151        3.8720   -0.9990   -2.7220 hc        1 GWX      0.042450
     47 H152        2.0730   -1.0980   -2.9270 hc        1 GWX      0.042450
     48 H121        3.4990   -5.0380   -2.7640 hc        1 GWX      0.062200
     49 H122        5.2920   -4.9000   -2.5870 hc        1 GWX      0.062200
     50 H131        4.4680   -4.1230   -4.8390 hc        1 GWX      0.070700
     51 H132        5.3390   -2.8300   -3.9240 hc        1 GWX      0.070700
     52 H141        2.2780   -3.1890   -4.2190 hc        1 GWX      0.062200
     53 H142        3.3070   -1.8900   -4.9490 hc        1 GWX      0.062200
     54 H201       -4.7730   -1.8590   -1.3690 hc        1 GWX      0.088700
     55 H202       -3.9680   -1.5280   -2.9510 hc        1 GWX      0.088700
     56 H211       -4.9080    0.7870   -2.9970 hc        1 GWX      0.067200
     57 H212       -5.7270    0.5050   -1.4070 hc        1 GWX      0.067200
     58 H221       -6.1730   -1.1550   -3.9900 hc        1 GWX      0.080200
     59 H222       -6.9970   -1.4330   -2.3970 hc        1 GWX      0.080200
     60 H231       -7.9390    0.9270   -2.4660 hx        1 GWX      0.119700
     61 H232       -7.1110    1.2000   -4.0790 hx        1 GWX      0.119700
     62 H241       -8.4940   -0.5770   -4.9940 hn        1 GWX      0.473467
     63 H242       -9.2460   -0.8260   -3.5270 hn        1 GWX      0.473467
     64 H261        4.4280   -0.6680    3.3090 hc        1 GWX      0.069700
     65 H262        4.8560   -0.2890    1.5920 hc        1 GWX      0.069700
     66 H28         6.6000    0.5490    3.5170 hc        1 GWX      0.117700
     67 H311        5.2350    4.0170    1.9500 hc        1 GWX      0.054700
     68 H312        4.4340    2.9420    0.7670 hc        1 GWX      0.054700
     69 H341        2.2550    3.1150    4.0970 hc        1 GWX      0.061367
     70 H342        2.3180    3.8360    2.4250 hc        1 GWX      0.061367
     71 H343        3.4360    4.4330    3.7170 hc        1 GWX      0.061367
     72 H301        7.0560    2.5410    2.0670 hc        1 GWX      0.070700
     73 H302        6.2400    1.4030    0.9340 hc        1 GWX      0.070700
     74 H321        6.6810    2.7890    5.1680 hc        1 GWX      0.058700
     75 H322        6.3450    3.7860    3.7000 hc        1 GWX      0.058700
     76 H323        5.2550    3.9110    5.1400 hc        1 GWX      0.058700
     77 H331        3.6490    2.1190    5.7170 hc        1 GWX      0.058700
     78 H332        3.8260    0.4690    4.9900 hc        1 GWX      0.058700
     79 H333        5.1650    1.1610    5.9760 hc        1 GWX      0.058700
     80 H22        -0.0710   -1.7080    0.3200 hn        1 GWX      0.493800
     81 H52        -5.0340   -0.3460    0.4550 ho        1 GWX      0.450000
     82 H82         3.3580    1.0930    0.4570 hn        1 GWX      0.475800
     83 H243       -9.4290    0.6330   -4.3200 hn        1 GWX      0.473467
@<TRIPOS>BOND
     1    1    2 1   
     2    1    3 1   
     3    1    9 1   
     4    1   35 1   
     5    2    4 1   
     6    2   36 1   
     7    2   80 1   
     8    3    7 2   
     9    3    8 1   
    10    4    5 1   
    11    4    6 2   
    12    5   16 1   
    13    5   40 1   
    14    8   25 1   
    15    8   39 1   
    16    8   82 1   
    17    9   10 1   
    18    9   37 1   
    19    9   38 1   
    20   10   11 1   
    21   10   15 1   
    22   10   43 1   
    23   11   12 1   
    24   11   44 1   
    25   11   45 1   
    26   12   13 1   
    27   12   48 1   
    28   12   49 1   
    29   13   14 1   
    30   13   50 1   
    31   13   51 1   
    32   14   15 1   
    33   14   52 1   
    34   14   53 1   
    35   15   46 1   
    36   15   47 1   
    37   16   17 1   
    38   16   20 1   
    39   16   41 1   
    40   17   18 1   
    41   17   19 2   
    42   18   81 1   
    43   20   21 1   
    44   20   54 1   
    45   20   55 1   
    46   21   22 1   
    47   21   56 1   
    48   21   57 1   
    49   22   23 1   
    50   22   58 1   
    51   22   59 1   
    52   23   24 1   
    53   23   60 1   
    54   23   61 1   
    55   24   62 1   
    56   24   63 1   
    57   24   83 1   
    58   25   26 1   
    59   25   27 1   
    60   25   42 1   
    61   26   28 1   
    62   26   64 1   
    63   26   65 1   
    64   27   29 1   
    65   27   31 1   
    66   27   34 1   
    67   28   29 1   
    68   28   30 1   
    69   28   66 1   
    70   29   32 1   
    71   29   33 1   
    72   30   31 1   
    73   30   72 1   
    74   30   73 1   
    75   31   67 1   
    76   31   68 1   
    77   32   74 1   
    78   32   75 1   
    79   32   76 1   
    80   33   77 1   
    81   33   78 1   
    82   33   79 1   
    83   34   69 1   
    84   34   70 1   
    85   34   71 1   
@<TRIPOS>SUBSTRUCTURE
     1 GWX         1 TEMP              0 ****  ****    0 ROOT
