@<TRIPOS>MOLECULE
GX1
   44    46     1     0     0
SMALL
bcc


@<TRIPOS>ATOM
      1 OP2         2.8590    0.0790    2.3500 o         1 GX1     -0.858000
      2 P           3.5540   -0.2520    1.0710 p5        1 GX1      1.440700
      3 S           7.6860   -0.0660   -1.9950 sh        1 GX1     -0.436900
      4 N1         -6.5090   -0.3780   -0.8710 n         1 GX1     -0.505400
      5 C2         -6.1940    0.7230   -0.0490 cc        1 GX1      0.638800
      6 N2         -7.2960    1.4130    0.5430 nh        1 GX1     -0.876800
      7 N3         -4.9420    1.1270    0.2430 nd        1 GX1     -0.649100
      8 C4         -3.9390    0.3270   -0.2830 cd        1 GX1      0.081800
      9 N4          5.0550    0.3290    1.0560 n3        1 GX1     -0.944300
     10 C5         -4.1590   -0.8300   -1.1180 cc        1 GX1      0.187800
     11 C6         -5.5150   -1.2250   -1.4320 c         1 GX1      0.649000
     12 O6         -5.9080   -2.1800   -2.1210 o         1 GX1     -0.619500
     13 N7         -2.9390   -1.3990   -1.4860 nc        1 GX1     -0.610000
     14 C8         -2.0050   -0.6220   -0.8990 cd        1 GX1      0.430400
     15 N9         -2.5540    0.4410   -0.1480 na        1 GX1     -0.201900
     16 C1'        -1.8500    1.4930    0.5750 c3        1 GX1      0.252800
     17 C2'        -1.4880    1.1280    2.0300 c3        1 GX1     -0.125400
     18 C3'         0.0310    0.9190    2.0300 c3        1 GX1      0.148100
     19 O3'         0.5790    1.6640    3.0950 oh        1 GX1     -0.635800
     20 C4'         0.5160    1.4570    0.6660 c3        1 GX1      0.064100
     21 O4'        -0.6440    1.8180   -0.1120 os        1 GX1     -0.421600
     22 C5'         1.3680    0.4570   -0.1380 c3        1 GX1      0.197400
     23 O5'         2.7170    0.7480   -0.0050 os        1 GX1     -0.586200
     24 C7'         6.0310   -0.2140    0.1860 c3        1 GX1      0.220800
     25 C8'         6.4700    0.7020   -0.9590 c3        1 GX1     -0.009300
     26 OP1         3.4680   -1.5990    0.4540 o         1 GX1     -0.858000
     27 HS          7.0490   -1.1880   -2.2870 hs        1 GX1      0.216800
     28 HN2        -7.9920    1.6750   -0.1250 hn        1 GX1      0.399300
     29 HN2A       -7.0090    2.1890    1.1060 hn        1 GX1      0.399300
     30 HN4         5.3350    1.1120    1.5830 hn        1 GX1      0.410800
     31 H1'        -2.4990    2.4170    0.5220 h2        1 GX1      0.087700
     32 H2'        -1.7590    1.9840    2.6980 hc        1 GX1      0.070700
     33 H2'A       -2.0170    0.2180    2.3950 hc        1 GX1      0.070700
     34 H3'         0.2930   -0.1670    2.1500 h1        1 GX1      0.078700
     35 HO3'        1.4890    1.3360    3.2170 ho        1 GX1      0.474000
     36 H4'         1.0920    2.4130    0.8050 h1        1 GX1      0.089700
     37 H5'         1.1620   -0.5990    0.1950 h1        1 GX1      0.029200
     38 H5'A        1.0940    0.5600   -1.2270 h1        1 GX1      0.029200
     39 H7'         6.9690   -0.4930    0.7560 h1        1 GX1      0.052200
     40 H7'A        5.5960   -1.1650   -0.2520 h1        1 GX1      0.052200
     41 H8'         6.9680    1.6200   -0.5650 h1        1 GX1      0.072200
     42 H8'A        5.5920    1.0140   -1.5730 h1        1 GX1      0.072200
     43 HN1        -7.4600   -0.6470   -0.9950 hn        1 GX1      0.328500
     44 H8         -0.9140   -0.7500   -0.9740 h5        1 GX1      0.091100
@<TRIPOS>BOND
     1    1    2 1   
     2    2    9 1   
     3    2   23 1   
     4    2   26 1   
     5    3   25 1   
     6    3   27 1   
     7    4    5 1   
     8    4   11 1   
     9    4   43 1   
    10    5    6 1   
    11    5    7 2   
    12    6   28 1   
    13    6   29 1   
    14    7    8 1   
    15    8   10 2   
    16    8   15 1   
    17    9   24 1   
    18    9   30 1   
    19   10   11 1   
    20   10   13 1   
    21   11   12 2   
    22   13   14 2   
    23   14   15 1   
    24   14   44 1   
    25   15   16 1   
    26   16   17 1   
    27   16   21 1   
    28   16   31 1   
    29   17   18 1   
    30   17   32 1   
    31   17   33 1   
    32   18   19 1   
    33   18   20 1   
    34   18   34 1   
    35   19   35 1   
    36   20   21 1   
    37   20   22 1   
    38   20   36 1   
    39   22   23 1   
    40   22   37 1   
    41   22   38 1   
    42   24   25 1   
    43   24   39 1   
    44   24   40 1   
    45   25   41 1   
    46   25   42 1   
@<TRIPOS>SUBSTRUCTURE
     1 GX1         1 TEMP              0 ****  ****    0 ROOT
