@<TRIPOS>MOLECULE
GXL
   24    24     1     0     0
SMALL
bcc


@<TRIPOS>ATOM
      1 C1          0.0960   -0.1840   -0.0540 c3        1 GXL      0.309900
      2 C2          1.6260   -0.1370    0.0850 c3        1 GXL      0.095100
      3 C3          2.0250   -0.0080    1.5620 c3        1 GXL      0.076100
      4 C4          1.3550   -1.1170    2.3890 c3        1 GXL      0.127100
      5 C5         -0.1620   -1.0700    2.1660 c3        1 GXL      0.106100
      6 C6         -0.8550   -2.2690    2.8220 c3        1 GXL      0.141400
      7 O1         -0.4090    1.0780    0.3210 oh        1 GXL     -0.641800
      8 O2          2.1820    0.9160   -0.6720 oh        1 GXL     -0.593800
      9 O3          3.4240   -0.1680    1.7250 oh        1 GXL     -0.606800
     10 O4          1.8310   -2.3980    2.0170 oh        1 GXL     -0.594800
     11 O5         -0.5260   -1.1330    0.7830 os        1 GXL     -0.444600
     12 O6         -2.2570   -2.1660    2.7090 oh        1 GXL     -0.598800
     13 H1         -0.2150   -0.4690   -1.0990 h2        1 GXL      0.086700
     14 HA          2.0670   -1.0800   -0.3470 h1        1 GXL      0.108700
     15 H3          1.7140    1.0020    1.9510 h1        1 GXL      0.061700
     16 H4          1.5740   -0.9450    3.4810 h1        1 GXL      0.058700
     17 H5         -0.5540   -0.1020    2.5860 h1        1 GXL      0.064700
     18 H6C1       -0.6440   -2.2660    3.9230 h1        1 GXL      0.066200
     19 H6C2       -0.4830   -3.2200    2.3570 h1        1 GXL      0.066200
     20 HB         -1.3720    1.0360    0.2670 ho        1 GXL      0.429000
     21 H2          1.7140    1.7280   -0.4280 ho        1 GXL      0.421000
     22 HC          3.8480    0.3490    1.0270 ho        1 GXL      0.426000
     23 HD          2.7970   -2.3500    2.0430 ho        1 GXL      0.424000
     24 H6         -2.4670   -2.1920    1.7670 ho        1 GXL      0.411000
@<TRIPOS>BOND
     1    1    2 1   
     2    1    7 1   
     3    1   11 1   
     4    1   13 1   
     5    2    3 1   
     6    2    8 1   
     7    2   14 1   
     8    3    4 1   
     9    3    9 1   
    10    3   15 1   
    11    4    5 1   
    12    4   10 1   
    13    4   16 1   
    14    5    6 1   
    15    5   11 1   
    16    5   17 1   
    17    6   12 1   
    18    6   18 1   
    19    6   19 1   
    20    7   20 1   
    21    8   21 1   
    22    9   22 1   
    23   10   23 1   
    24   12   24 1   
@<TRIPOS>SUBSTRUCTURE
     1 GXL         1 TEMP              0 ****  ****    0 ROOT
