@<TRIPOS>MOLECULE
GXL
   24    24     1     0     0
SMALL
bcc


@<TRIPOS>ATOM
      1 C1          1.3890    0.6320   -0.2680 c3        1 GXL      0.309900
      2 C2          0.3860    0.6030   -1.4330 c3        1 GXL      0.095100
      3 C3         -0.6040   -0.5570   -1.2570 c3        1 GXL      0.076100
      4 C4         -1.2590   -0.4860    0.1310 c3        1 GXL      0.127100
      5 C5         -0.1670   -0.4560    1.2070 c3        1 GXL      0.106100
      6 C6         -0.7630   -0.1990    2.5950 c3        1 GXL      0.141400
      7 O1          2.1980   -0.5190   -0.3680 oh        1 GXL     -0.641800
      8 O2          1.0430    0.5090   -2.6780 oh        1 GXL     -0.593800
      9 O3         -1.6540   -0.4760   -2.2070 oh        1 GXL     -0.606800
     10 O4         -2.0620    0.6730    0.2650 oh        1 GXL     -0.594800
     11 O5          0.7870    0.5930    1.0060 os        1 GXL     -0.444600
     12 O6          0.2290   -0.2810    3.5950 oh        1 GXL     -0.598800
     13 H1          2.0000    1.5790   -0.2720 h2        1 GXL      0.086700
     14 HA         -0.1740    1.5810   -1.4640 h1        1 GXL      0.108700
     15 H3         -0.0630   -1.5370   -1.3760 h1        1 GXL      0.061700
     16 H4         -1.9020   -1.4000    0.2820 h1        1 GXL      0.058700
     17 H5          0.3850   -1.4370    1.1840 h1        1 GXL      0.064700
     18 H6C1       -1.5010   -1.0080    2.8400 h1        1 GXL      0.066200
     19 H6C2       -1.2670    0.8030    2.6090 h1        1 GXL      0.066200
     20 HB          2.8040   -0.5170    0.3830 ho        1 GXL      0.429000
     21 H2          1.6510   -0.2430   -2.6300 ho        1 GXL      0.421000
     22 HC         -1.2440   -0.2680   -3.0580 ho        1 GXL      0.426000
     23 HD         -2.6510    0.6890   -0.5030 ho        1 GXL      0.424000
     24 H6          0.8640    0.4250    3.4190 ho        1 GXL      0.411000
@<TRIPOS>BOND
     1    1    2 1   
     2    1    7 1   
     3    1   11 1   
     4    1   13 1   
     5    2    3 1   
     6    2    8 1   
     7    2   14 1   
     8    3    4 1   
     9    3    9 1   
    10    3   15 1   
    11    4    5 1   
    12    4   10 1   
    13    4   16 1   
    14    5    6 1   
    15    5   11 1   
    16    5   17 1   
    17    6   12 1   
    18    6   18 1   
    19    6   19 1   
    20    7   20 1   
    21    8   21 1   
    22    9   22 1   
    23   10   23 1   
    24   12   24 1   
@<TRIPOS>SUBSTRUCTURE
     1 GXL         1 TEMP              0 ****  ****    0 ROOT
