@<TRIPOS>MOLECULE
GXL
   24    24     1     0     0
SMALL
bcc


@<TRIPOS>ATOM
      1 C1          0.0930   -0.1520   -0.0420 c3        1 GXL      0.309900
      2 C2          1.6260   -0.1460    0.0710 c3        1 GXL      0.095100
      3 C3          2.0540   -0.0390    1.5420 c3        1 GXL      0.076100
      4 C4          1.3680   -1.1370    2.3720 c3        1 GXL      0.127100
      5 C5         -0.1500   -1.0480    2.1750 c3        1 GXL      0.106100
      6 C6         -0.8630   -2.2330    2.8340 c3        1 GXL      0.141400
      7 O1         -0.3710    1.1200    0.3510 oh        1 GXL     -0.641800
      8 O2          2.1960    0.8970   -0.6880 oh        1 GXL     -0.593800
      9 O3          3.4510   -0.2380    1.6790 oh        1 GXL     -0.606800
     10 O4          1.8030   -2.4270    1.9820 oh        1 GXL     -0.594800
     11 O5         -0.5390   -1.0910    0.7980 os        1 GXL     -0.444600
     12 O6         -2.2640   -2.0920    2.7470 oh        1 GXL     -0.598800
     13 H1         -0.2440   -0.4200   -1.0830 h2        1 GXL      0.086700
     14 HA          2.0340   -1.0970   -0.3760 h1        1 GXL      0.108700
     15 H3          1.7760    0.9750    1.9430 h1        1 GXL      0.061700
     16 H4          1.6110   -0.9790    3.4610 h1        1 GXL      0.058700
     17 H5         -0.5090   -0.0730    2.6090 h1        1 GXL      0.064700
     18 H6C1       -0.6330   -2.2450    3.9320 h1        1 GXL      0.066200
     19 H6C2       -0.5250   -3.1900    2.3560 h1        1 GXL      0.066200
     20 HB         -1.3360    1.1040    0.3140 ho        1 GXL      0.429000
     21 H2          1.7550    1.7190   -0.4300 ho        1 GXL      0.421000
     22 HC          3.8760    0.2740    0.9770 ho        1 GXL      0.426000
     23 HD          2.7710   -2.4050    1.9910 ho        1 GXL      0.424000
     24 H6         -2.4910   -2.1050    1.8080 ho        1 GXL      0.411000
@<TRIPOS>BOND
     1    1    2 1   
     2    1    7 1   
     3    1   11 1   
     4    1   13 1   
     5    2    3 1   
     6    2    8 1   
     7    2   14 1   
     8    3    4 1   
     9    3    9 1   
    10    3   15 1   
    11    4    5 1   
    12    4   10 1   
    13    4   16 1   
    14    5    6 1   
    15    5   11 1   
    16    5   17 1   
    17    6   12 1   
    18    6   18 1   
    19    6   19 1   
    20    7   20 1   
    21    8   21 1   
    22    9   22 1   
    23   10   23 1   
    24   12   24 1   
@<TRIPOS>SUBSTRUCTURE
     1 GXL         1 TEMP              0 ****  ****    0 ROOT
