@<TRIPOS>MOLECULE
GXL
   24    24     1     0     0
SMALL
bcc


@<TRIPOS>ATOM
      1 C1         -0.7950    0.6840   -1.4390 c3        1 GXL      0.343900
      2 C2          0.7180    0.7030   -1.4310 c3        1 GXL      0.097100
      3 C3          1.2740    0.7470   -0.0570 c3        1 GXL      0.071100
      4 C4          0.7070   -0.3230    0.8150 c3        1 GXL      0.127100
      5 C5         -0.8110   -0.3400    0.7960 c3        1 GXL      0.108100
      6 C6         -1.2910   -1.5430    1.5430 c3        1 GXL      0.142400
      7 O1         -1.2600    1.9100   -1.0070 oh        1 GXL     -0.611800
      8 O2          1.1720    1.8650   -2.1540 oh        1 GXL     -0.578800
      9 O3          2.7150    0.5800   -0.1280 oh        1 GXL     -0.610800
     10 O4          1.1900   -1.5940    0.3630 oh        1 GXL     -0.593800
     11 O5         -1.3550   -0.3780   -0.5620 os        1 GXL     -0.453600
     12 O6         -2.7010   -1.5700    1.5370 oh        1 GXL     -0.599800
     13 H1         -1.1040    0.5330   -2.3540 h2        1 GXL      0.085700
     14 HA          1.0470   -0.0990   -1.8810 h1        1 GXL      0.073700
     15 H3          1.0740    1.6180    0.3390 h1        1 GXL      0.079700
     16 H4          1.0110   -0.1770    1.7330 h1        1 GXL      0.054700
     17 H5         -1.1410    0.4620    1.2450 h1        1 GXL      0.066700
     18 H6C1       -0.9470   -2.3530    1.1130 h1        1 GXL      0.064700
     19 H6C2       -0.9690   -1.5040    2.4680 h1        1 GXL      0.064700
     20 HB         -1.9970    2.1230   -1.4580 ho        1 GXL      0.418000
     21 H2          1.5950    1.6070   -2.8930 ho        1 GXL      0.404000
     22 HC          3.1100    1.2000    0.3720 ho        1 GXL      0.414000
     23 HD          1.7460   -1.9330    0.9680 ho        1 GXL      0.421000
     24 H6         -2.9880   -2.2180    2.0730 ho        1 GXL      0.411000
@<TRIPOS>BOND
     1    1    2 1   
     2    1    7 1   
     3    1   11 1   
     4    1   13 1   
     5    2    3 1   
     6    2    8 1   
     7    2   14 1   
     8    3    4 1   
     9    3    9 1   
    10    3   15 1   
    11    4    5 1   
    12    4   10 1   
    13    4   16 1   
    14    5    6 1   
    15    5   11 1   
    16    5   17 1   
    17    6   12 1   
    18    6   18 1   
    19    6   19 1   
    20    7   20 1   
    21    8   21 1   
    22    9   22 1   
    23   10   23 1   
    24   12   24 1   
@<TRIPOS>SUBSTRUCTURE
     1 GXL         1 TEMP              0 ****  ****    0 ROOT
