@<TRIPOS>MOLECULE
GXV
   12    11     1     0     0
SMALL
bcc


@<TRIPOS>ATOM
      1 O2          0.1650   -0.1500   -0.3950 oh        1 GXV     -0.589800
      2 C           1.5430   -0.0370   -0.1230 c3        1 GXV      0.114400
      3 C1          1.8150   -0.1790    1.3810 c3        1 GXV     -0.022900
      4 O1          1.1380    0.8500    2.0800 oh        1 GXV     -0.591800
      5 C2          3.3010   -0.1900    1.6410 c         1 GXV      0.539900
      6 O           3.8730    0.7560    2.1810 o         1 GXV     -0.513100
      7 H1         -0.2930    0.4620    0.1980 ho        1 GXV      0.418000
      8 H2          1.9280    0.9530   -0.4870 h1        1 GXV      0.052200
      9 H3          2.0260   -0.8720   -0.6960 h1        1 GXV      0.052200
     10 H4          1.3500   -1.1340    1.7630 h1        1 GXV      0.105700
     11 H5          1.7190    1.6240    2.1030 ho        1 GXV      0.421000
     12 H6          3.8380   -1.1030    1.3070 h4        1 GXV      0.014200
@<TRIPOS>BOND
     1    1    2 1   
     2    1    7 1   
     3    2    3 1   
     4    2    8 1   
     5    2    9 1   
     6    3    4 1   
     7    3    5 1   
     8    3   10 1   
     9    4   11 1   
    10    5    6 2   
    11    5   12 1   
@<TRIPOS>SUBSTRUCTURE
     1 GXV         1 TEMP              0 ****  ****    0 ROOT
