@<TRIPOS>MOLECULE
GY3
   45    47     1     0     0
SMALL
bcc


@<TRIPOS>ATOM
      1 O1          0.1720    0.3030    0.0890 os        1 GY3     -0.410600
      2 C2          1.5690    0.1750    0.3010 c3        1 GY3      0.090400
      3 C3          1.9190    0.0610    1.7850 c3        1 GY3      0.025500
      4 N4          1.7260   -1.2290    2.4290 n         1 GY3     -0.306400
      5 C5          2.7790   -2.2120    2.3400 c         1 GY3      0.666000
      6 C6          2.1480   -3.6030    2.5080 c3        1 GY3     -0.171400
      7 C7          0.6580   -3.2910    2.3130 c         1 GY3      0.666000
      8 N8          0.4860   -1.8610    2.4220 n         1 GY3     -0.306400
      9 C9         -0.6700   -1.2410    1.7940 c3        1 GY3      0.025500
     10 C10        -0.5700   -0.8860    0.3100 c3        1 GY3      0.090400
     11 O11         3.9740   -1.9240    2.2760 o         1 GY3     -0.564000
     12 O12        -0.2840   -4.0810    2.2480 o         1 GY3     -0.564000
     13 C19         2.7370   -4.6690    1.6580 ca        1 GY3     -0.057300
     14 C20         3.6170   -5.6010    2.2440 ca        1 GY3     -0.044300
     15 C21         4.1300   -6.6540    1.4780 ca        1 GY3     -0.130000
     16 C22         3.8000   -6.7930    0.1290 ca        1 GY3     -0.060300
     17 C23         2.9610   -5.8470   -0.4600 ca        1 GY3     -0.124000
     18 C24         2.4350   -4.7850    0.2870 ca        1 GY3     -0.030800
     19 C25         1.6120   -3.7970   -0.4000 ce        1 GY3     -0.131200
     20 C26         0.7410   -4.0820   -1.3690 c2        1 GY3     -0.190000
     21 C27         4.3300   -7.9270   -0.6630 c3        1 GY3     -0.056800
     22 C28         4.0660   -5.5070    3.6660 c3        1 GY3     -0.049100
     23 C29         3.1300   -6.2200    4.6130 c3        1 GY3     -0.094100
     24 H2          1.9840   -0.6800   -0.2940 h1        1 GY3      0.062700
     25 H2A         1.9840    1.1430   -0.0970 h1        1 GY3      0.062700
     26 H3          1.3010    0.8130    2.3560 h1        1 GY3      0.088700
     27 H3A         3.0110    0.3110    1.9190 h1        1 GY3      0.088700
     28 H6          2.2480   -3.8790    3.6010 hc        1 GY3      0.129700
     29 H9         -1.5200   -1.9690    1.9330 h1        1 GY3      0.088700
     30 H9A        -0.8990   -0.2990    2.3720 h1        1 GY3      0.088700
     31 H10        -1.5960   -0.6300   -0.0730 h1        1 GY3      0.062700
     32 H10A       -0.1460   -1.7340   -0.2910 h1        1 GY3      0.062700
     33 H21         4.8100   -7.3820    1.9480 ha        1 GY3      0.136000
     34 H23         2.7130   -5.9280   -1.5300 ha        1 GY3      0.137000
     35 H25         1.7780   -2.7550   -0.0750 ha        1 GY3      0.113000
     36 H26         0.5440   -5.1060   -1.7110 ha        1 GY3      0.118500
     37 H26A        0.1590   -3.3020   -1.8780 ha        1 GY3      0.118500
     38 H27         4.4260   -7.6520   -1.7420 hc        1 GY3      0.047033
     39 H27A        3.6370   -8.8020   -0.5840 hc        1 GY3      0.047033
     40 H27B        5.3350   -8.2420   -0.2870 hc        1 GY3      0.047033
     41 H28         5.0900   -5.9640    3.7560 hc        1 GY3      0.054200
     42 H28A        4.1790   -4.4310    3.9650 hc        1 GY3      0.054200
     43 H29         3.0840   -7.3090    4.3690 hc        1 GY3      0.039367
     44 H29A        3.4910   -6.1060    5.6630 hc        1 GY3      0.039367
     45 H29B        2.0940   -5.8070    4.5470 hc        1 GY3      0.039367
@<TRIPOS>BOND
     1    1    2 1   
     2    1   10 1   
     3    2    3 1   
     4    2   24 1   
     5    2   25 1   
     6    3    4 1   
     7    3   26 1   
     8    3   27 1   
     9    4    5 1   
    10    4    8 1   
    11    5    6 1   
    12    5   11 2   
    13    6    7 1   
    14    6   13 1   
    15    6   28 1   
    16    7    8 1   
    17    7   12 2   
    18    8    9 1   
    19    9   10 1   
    20    9   29 1   
    21    9   30 1   
    22   10   31 1   
    23   10   32 1   
    24   13   14 ar  
    25   13   18 ar  
    26   14   15 ar  
    27   14   22 1   
    28   15   16 ar  
    29   15   33 1   
    30   16   17 ar  
    31   16   21 1   
    32   17   18 ar  
    33   17   34 1   
    34   18   19 1   
    35   19   20 2   
    36   19   35 1   
    37   20   36 1   
    38   20   37 1   
    39   21   38 1   
    40   21   39 1   
    41   21   40 1   
    42   22   23 1   
    43   22   41 1   
    44   22   42 1   
    45   23   43 1   
    46   23   44 1   
    47   23   45 1   
@<TRIPOS>SUBSTRUCTURE
     1 GY3         1 TEMP              0 ****  ****    0 ROOT
