@<TRIPOS>MOLECULE
GY3
   45    47     1     0     0
SMALL
bcc


@<TRIPOS>ATOM
      1 O1         -4.2420   -0.9050    0.3620 os        1 GY3     -0.411600
      2 C2         -3.6500   -0.8800   -0.9270 c3        1 GY3      0.089900
      3 C3         -3.2880    0.5380   -1.3730 c3        1 GY3      0.025000
      4 N4         -2.0880    1.1380   -0.8110 n         1 GY3     -0.302900
      5 C5         -0.8100    0.8460   -1.4120 c         1 GY3      0.667500
      6 C6          0.2760    1.0910   -0.3570 c3        1 GY3     -0.169400
      7 C7         -0.5580    1.1670    0.9320 c         1 GY3      0.667500
      8 N8         -1.9460    1.3220    0.5610 n         1 GY3     -0.302900
      9 C9         -2.9620    0.8440    1.4900 c3        1 GY3      0.025000
     10 C10        -3.3390   -0.6370    1.4250 c3        1 GY3      0.089900
     11 O11        -0.6670    0.5960   -2.6100 o         1 GY3     -0.568500
     12 O12        -0.1550    1.2330    2.0930 o         1 GY3     -0.568500
     13 C19         1.4110    0.1330   -0.3060 ca        1 GY3     -0.055300
     14 C20         2.7290    0.6300   -0.2260 ca        1 GY3     -0.044300
     15 C21         3.8040   -0.2590   -0.1210 ca        1 GY3     -0.130000
     16 C22         3.6040   -1.6400   -0.0890 ca        1 GY3     -0.060300
     17 C23         2.3020   -2.1310   -0.1810 ca        1 GY3     -0.124000
     18 C24         1.2110   -1.2610   -0.2980 ca        1 GY3     -0.035800
     19 C25        -0.1100   -1.8680   -0.4520 ce        1 GY3     -0.137200
     20 C26        -0.6210   -2.7590    0.3970 c2        1 GY3     -0.208000
     21 C27         4.7530   -2.5630    0.0490 c3        1 GY3     -0.056800
     22 C28         3.0550    2.0880   -0.2520 c3        1 GY3     -0.045100
     23 C29         2.8110    2.7530    1.0810 c3        1 GY3     -0.100100
     24 H2         -2.7620   -1.5650   -0.9630 h1        1 GY3      0.063450
     25 H2A        -4.4610   -1.2770   -1.5980 h1        1 GY3      0.063450
     26 H3         -3.1330    0.5350   -2.4900 h1        1 GY3      0.088450
     27 H3A        -4.1510    1.2210   -1.1260 h1        1 GY3      0.088450
     28 H6          0.6520    2.1410   -0.5480 hc        1 GY3      0.129700
     29 H9         -2.5670    1.0720    2.5210 h1        1 GY3      0.088450
     30 H9A        -3.8900    1.4590    1.3110 h1        1 GY3      0.088450
     31 H10        -3.9270   -0.9060    2.3450 h1        1 GY3      0.063450
     32 H10A       -2.4320   -1.2950    1.3500 h1        1 GY3      0.063450
     33 H21         4.8300    0.1380   -0.0600 ha        1 GY3      0.136000
     34 H23         2.1220   -3.2170   -0.1680 ha        1 GY3      0.138000
     35 H25        -0.6460   -1.5760   -1.3740 ha        1 GY3      0.137000
     36 H26        -1.5990   -3.2300    0.2290 ha        1 GY3      0.119500
     37 H26A       -0.1000   -3.0780    1.3100 ha        1 GY3      0.119500
     38 H27         5.0120   -2.6890    1.1310 hc        1 GY3      0.047367
     39 H27A        4.5140   -3.5700   -0.3730 hc        1 GY3      0.047367
     40 H27B        5.6530   -2.1620   -0.4810 hc        1 GY3      0.047367
     41 H28         4.1370    2.2200   -0.5300 hc        1 GY3      0.048700
     42 H28A        2.4670    2.6030   -1.0590 hc        1 GY3      0.048700
     43 H29         1.7690    2.5620    1.4410 hc        1 GY3      0.043700
     44 H29A        3.5180    2.3580    1.8500 hc        1 GY3      0.043700
     45 H29B        2.9640    3.8560    0.9920 hc        1 GY3      0.043700
@<TRIPOS>BOND
     1    1    2 1   
     2    1   10 1   
     3    2    3 1   
     4    2   24 1   
     5    2   25 1   
     6    3    4 1   
     7    3   26 1   
     8    3   27 1   
     9    4    5 1   
    10    4    8 1   
    11    5    6 1   
    12    5   11 2   
    13    6    7 1   
    14    6   13 1   
    15    6   28 1   
    16    7    8 1   
    17    7   12 2   
    18    8    9 1   
    19    9   10 1   
    20    9   29 1   
    21    9   30 1   
    22   10   31 1   
    23   10   32 1   
    24   13   14 ar  
    25   13   18 ar  
    26   14   15 ar  
    27   14   22 1   
    28   15   16 ar  
    29   15   33 1   
    30   16   17 ar  
    31   16   21 1   
    32   17   18 ar  
    33   17   34 1   
    34   18   19 1   
    35   19   20 2   
    36   19   35 1   
    37   20   36 1   
    38   20   37 1   
    39   21   38 1   
    40   21   39 1   
    41   21   40 1   
    42   22   23 1   
    43   22   41 1   
    44   22   42 1   
    45   23   43 1   
    46   23   44 1   
    47   23   45 1   
@<TRIPOS>SUBSTRUCTURE
     1 GY3         1 TEMP              0 ****  ****    0 ROOT
