@<TRIPOS>MOLECULE
GY3
   45    47     1     0     0
SMALL
bcc


@<TRIPOS>ATOM
      1 O1          0.1750    0.2980    0.0820 os        1 GY3     -0.410600
      2 C2          1.5710    0.1710    0.2970 c3        1 GY3      0.090400
      3 C3          1.9180    0.0570    1.7820 c3        1 GY3      0.025500
      4 N4          1.7240   -1.2330    2.4260 n         1 GY3     -0.306400
      5 C5          2.7760   -2.2160    2.3400 c         1 GY3      0.666000
      6 C6          2.1460   -3.6060    2.5070 c3        1 GY3     -0.171400
      7 C7          0.6560   -3.2950    2.3090 c         1 GY3      0.666000
      8 N8          0.4840   -1.8640    2.4170 n         1 GY3     -0.306400
      9 C9         -0.6710   -1.2440    1.7860 c3        1 GY3      0.025500
     10 C10        -0.5670   -0.8900    0.3020 c3        1 GY3      0.090400
     11 O11         3.9720   -1.9280    2.2780 o         1 GY3     -0.564000
     12 O12        -0.2860   -4.0850    2.2420 o         1 GY3     -0.564000
     13 C19         2.7370   -4.6730    1.6590 ca        1 GY3     -0.057300
     14 C20         3.6160   -5.6050    2.2470 ca        1 GY3     -0.044300
     15 C21         4.1300   -6.6570    1.4820 ca        1 GY3     -0.130000
     16 C22         3.8030   -6.7980    0.1320 ca        1 GY3     -0.060300
     17 C23         2.9640   -5.8520   -0.4590 ca        1 GY3     -0.124000
     18 C24         2.4380   -4.7900    0.2870 ca        1 GY3     -0.030800
     19 C25         1.6150   -3.8020   -0.4020 ce        1 GY3     -0.131200
     20 C26         0.7460   -4.0870   -1.3730 c2        1 GY3     -0.190000
     21 C27         4.3350   -7.9320   -0.6580 c3        1 GY3     -0.056800
     22 C28         4.0620   -5.5100    3.6690 c3        1 GY3     -0.049100
     23 C29         3.1240   -6.2220    4.6150 c3        1 GY3     -0.094100
     24 H2          1.9880   -0.6840   -0.2970 h1        1 GY3      0.062700
     25 H2A         1.9870    1.1380   -0.1010 h1        1 GY3      0.062700
     26 H3          3.0100    0.3070    1.9180 h1        1 GY3      0.088700
     27 H3A         1.2990    0.8090    2.3510 h1        1 GY3      0.088700
     28 H6          2.2440   -3.8820    3.6000 hc        1 GY3      0.129700
     29 H9         -1.5210   -1.9730    1.9230 h1        1 GY3      0.088700
     30 H9A        -0.9010   -0.3030    2.3630 h1        1 GY3      0.088700
     31 H10        -1.5930   -0.6340   -0.0830 h1        1 GY3      0.062700
     32 H10A       -0.1430   -1.7390   -0.2980 h1        1 GY3      0.062700
     33 H21         4.8090   -7.3850    1.9540 ha        1 GY3      0.136000
     34 H23         2.7190   -5.9330   -1.5290 ha        1 GY3      0.137000
     35 H25         1.7810   -2.7590   -0.0770 ha        1 GY3      0.113000
     36 H26         0.5490   -5.1130   -1.7140 ha        1 GY3      0.118500
     37 H26A        0.1650   -3.3080   -1.8830 ha        1 GY3      0.118500
     38 H27         4.4320   -7.6580   -1.7370 hc        1 GY3      0.047033
     39 H27A        3.6420   -8.8070   -0.5790 hc        1 GY3      0.047033
     40 H27B        5.3390   -8.2460   -0.2800 hc        1 GY3      0.047033
     41 H28         5.0860   -5.9660    3.7610 hc        1 GY3      0.054200
     42 H28A        4.1750   -4.4330    3.9680 hc        1 GY3      0.054200
     43 H29         3.0790   -7.3110    4.3720 hc        1 GY3      0.039367
     44 H29A        2.0890   -5.8100    4.5470 hc        1 GY3      0.039367
     45 H29B        3.4840   -6.1070    5.6660 hc        1 GY3      0.039367
@<TRIPOS>BOND
     1    1    2 1   
     2    1   10 1   
     3    2    3 1   
     4    2   24 1   
     5    2   25 1   
     6    3    4 1   
     7    3   26 1   
     8    3   27 1   
     9    4    5 1   
    10    4    8 1   
    11    5    6 1   
    12    5   11 2   
    13    6    7 1   
    14    6   13 1   
    15    6   28 1   
    16    7    8 1   
    17    7   12 2   
    18    8    9 1   
    19    9   10 1   
    20    9   29 1   
    21    9   30 1   
    22   10   31 1   
    23   10   32 1   
    24   13   14 ar  
    25   13   18 ar  
    26   14   15 ar  
    27   14   22 1   
    28   15   16 ar  
    29   15   33 1   
    30   16   17 ar  
    31   16   21 1   
    32   17   18 ar  
    33   17   34 1   
    34   18   19 1   
    35   19   20 2   
    36   19   35 1   
    37   20   36 1   
    38   20   37 1   
    39   21   38 1   
    40   21   39 1   
    41   21   40 1   
    42   22   23 1   
    43   22   41 1   
    44   22   42 1   
    45   23   43 1   
    46   23   44 1   
    47   23   45 1   
@<TRIPOS>SUBSTRUCTURE
     1 GY3         1 TEMP              0 ****  ****    0 ROOT
