@<TRIPOS>MOLECULE
GY3
   45    47     1     0     0
SMALL
bcc


@<TRIPOS>ATOM
      1 O1          0.1740    0.3030    0.0880 os        1 GY3     -0.410600
      2 C2          1.5710    0.1760    0.3000 c3        1 GY3      0.090400
      3 C3          1.9200    0.0610    1.7850 c3        1 GY3      0.025500
      4 N4          1.7270   -1.2290    2.4290 n         1 GY3     -0.306400
      5 C5          2.7790   -2.2120    2.3400 c         1 GY3      0.666000
      6 C6          2.1480   -3.6020    2.5080 c3        1 GY3     -0.171400
      7 C7          0.6580   -3.2900    2.3130 c         1 GY3      0.666000
      8 N8          0.4860   -1.8600    2.4210 n         1 GY3     -0.306400
      9 C9         -0.6690   -1.2400    1.7930 c3        1 GY3      0.025500
     10 C10        -0.5680   -0.8850    0.3090 c3        1 GY3      0.090400
     11 O11         3.9750   -1.9250    2.2760 o         1 GY3     -0.564000
     12 O12        -0.2850   -4.0800    2.2480 o         1 GY3     -0.564000
     13 C19         2.7370   -4.6690    1.6580 ca        1 GY3     -0.057300
     14 C20         3.6160   -5.6020    2.2450 ca        1 GY3     -0.044300
     15 C21         4.1290   -6.6540    1.4790 ca        1 GY3     -0.130000
     16 C22         3.7990   -6.7940    0.1300 ca        1 GY3     -0.060300
     17 C23         2.9600   -5.8480   -0.4600 ca        1 GY3     -0.124000
     18 C24         2.4350   -4.7850    0.2870 ca        1 GY3     -0.030800
     19 C25         1.6120   -3.7970   -0.4000 ce        1 GY3     -0.131200
     20 C26         0.7420   -4.0810   -1.3700 c2        1 GY3     -0.190000
     21 C27         4.3290   -7.9280   -0.6620 c3        1 GY3     -0.056800
     22 C28         4.0640   -5.5080    3.6660 c3        1 GY3     -0.049100
     23 C29         3.1280   -6.2200    4.6130 c3        1 GY3     -0.094100
     24 H2          1.9860   -0.6800   -0.2950 h1        1 GY3      0.062700
     25 H2A         1.9860    1.1430   -0.0980 h1        1 GY3      0.062700
     26 H3          3.0130    0.3100    1.9180 h1        1 GY3      0.088700
     27 H3A         1.3030    0.8130    2.3550 h1        1 GY3      0.088700
     28 H6          2.2480   -3.8780    3.6010 hc        1 GY3      0.129700
     29 H9         -0.8980   -0.2980    2.3710 h1        1 GY3      0.088700
     30 H9A        -1.5200   -1.9680    1.9320 h1        1 GY3      0.088700
     31 H10        -1.5940   -0.6290   -0.0740 h1        1 GY3      0.062700
     32 H10A       -0.1450   -1.7340   -0.2920 h1        1 GY3      0.062700
     33 H21         4.8080   -7.3830    1.9490 ha        1 GY3      0.136000
     34 H23         2.7130   -5.9280   -1.5300 ha        1 GY3      0.137000
     35 H25         1.7800   -2.7550   -0.0750 ha        1 GY3      0.113000
     36 H26         0.5440   -5.1060   -1.7110 ha        1 GY3      0.118500
     37 H26A        0.1600   -3.3010   -1.8790 ha        1 GY3      0.118500
     38 H27         3.6350   -8.8030   -0.5830 hc        1 GY3      0.047033
     39 H27A        5.3340   -8.2430   -0.2860 hc        1 GY3      0.047033
     40 H27B        4.4250   -7.6540   -1.7410 hc        1 GY3      0.047033
     41 H28         5.0880   -5.9650    3.7570 hc        1 GY3      0.054200
     42 H28A        4.1790   -4.4310    3.9660 hc        1 GY3      0.054200
     43 H29         3.4890   -6.1060    5.6640 hc        1 GY3      0.039367
     44 H29A        3.0810   -7.3090    4.3700 hc        1 GY3      0.039367
     45 H29B        2.0930   -5.8060    4.5470 hc        1 GY3      0.039367
@<TRIPOS>BOND
     1    1    2 1   
     2    1   10 1   
     3    2    3 1   
     4    2   24 1   
     5    2   25 1   
     6    3    4 1   
     7    3   26 1   
     8    3   27 1   
     9    4    5 1   
    10    4    8 1   
    11    5    6 1   
    12    5   11 2   
    13    6    7 1   
    14    6   13 1   
    15    6   28 1   
    16    7    8 1   
    17    7   12 2   
    18    8    9 1   
    19    9   10 1   
    20    9   29 1   
    21    9   30 1   
    22   10   31 1   
    23   10   32 1   
    24   13   14 ar  
    25   13   18 ar  
    26   14   15 ar  
    27   14   22 1   
    28   15   16 ar  
    29   15   33 1   
    30   16   17 ar  
    31   16   21 1   
    32   17   18 ar  
    33   17   34 1   
    34   18   19 1   
    35   19   20 2   
    36   19   35 1   
    37   20   36 1   
    38   20   37 1   
    39   21   38 1   
    40   21   39 1   
    41   21   40 1   
    42   22   23 1   
    43   22   41 1   
    44   22   42 1   
    45   23   43 1   
    46   23   44 1   
    47   23   45 1   
@<TRIPOS>SUBSTRUCTURE
     1 GY3         1 TEMP              0 ****  ****    0 ROOT
