@<TRIPOS>MOLECULE
GYC
   36    33     1     0     0
SMALL
bcc


@<TRIPOS>ATOM
      1 N          -1.2370   -0.8950   -2.4140 n3        1 GYC     -0.354000
      2 SG1         0.9060   -0.3750   -4.8680 sh        1 GYC     -0.078000
      3 CB1         0.8210    0.0140   -3.1140 c3        1 GYC     -0.236000
      4 CA1         0.1500   -1.0940   -2.3940 c3        1 GYC      0.042000
      5 C1          0.6420   -1.1200   -0.9280 c2        1 GYC      0.094000
      6 N2          0.1830   -0.2270   -0.0540 n1        1 GYC     -0.231000
      7 N3          1.0490   -2.3160   -0.3520 n         1 GYC     -0.255000
      8 C2          0.7940   -2.1020    1.1350 c2        1 GYC      0.301000
      9 O2          1.3410   -2.6730    2.0250 o         1 GYC     -0.323000
     10 CA2         0.1830   -0.6540    1.2080 c1        1 GYC     -0.085000
     11 CA3         2.0090   -3.2580   -0.9300 c3        1 GYC     -0.122000
     12 CB2        -0.2520    0.0060    2.3070 c1        1 GYC     -0.077000
     13 CG2        -0.8450    1.4600    2.1700 c1        1 GYC     -0.060000
     14 CD1        -0.0010    2.5940    2.3280 c2        1 GYC     -0.093000
     15 CD2        -2.2080    1.6320    1.9830 c1        1 GYC     -0.055000
     16 CE1        -0.5250    3.8290    2.2950 c1        1 GYC     -0.168000
     17 CE2        -2.7370    2.8940    1.9500 c1        1 GYC     -0.221000
     18 CZ         -1.9060    4.0030    2.1050 c1        1 GYC      0.069000
     19 OH         -2.4490    5.2950    2.0430 oh        1 GYC     -0.262000
     20 C           2.2980   -4.3460    0.0580 c2        1 GYC      0.325000
     21 O           1.6620   -5.4460   -0.0100 o         1 GYC     -0.562500
     22 OXT         3.2210   -4.1950    0.9260 o         1 GYC     -0.562500
     23 HN1        -1.4820   -0.5910   -3.2120 hn        1 GYC      0.179000
     24 HN2        -1.6580   -1.6830   -2.2440 hn        1 GYC      0.179000
     25 HG1         1.5390    0.4260   -5.4090 hs        1 GYC      0.067000
     26 HB11        1.7940    0.1420   -2.7340 h1        1 GYC      0.115000
     27 HB12        0.3060    0.8450   -2.9850 h1        1 GYC      0.115000
     28 HA1         0.3560   -1.8980   -2.8050 h1        1 GYC      0.145000
     29 HA31        2.8530   -2.7760   -1.1540 h1        1 GYC      0.098000
     30 HA32        1.6400   -3.6460   -1.7240 h1        1 GYC      0.098000
     31 HB2        -0.2040   -0.3960    3.1370 ha        1 GYC      0.140000
     32 HD1         0.9720    2.4700    2.5030 ha        1 GYC      0.132000
     33 HD2        -2.7940    0.8710    1.9980 ha        1 GYC      0.167000
     34 HE1         0.1000    4.6670    2.4130 ha        1 GYC      0.140000
     35 HE2        -3.6650    3.0140    1.8240 ha        1 GYC      0.129000
     36 HOH        -2.8580    5.5260    2.9230 ho        1 GYC      0.212000
@<TRIPOS>BOND
     1    1    4 1   
     2    1   23 1   
     3    1   24 1   
     4    2    3 1   
     5    2   25 1   
     6    3    4 1   
     7    3   26 1   
     8    3   27 1   
     9    4    5 1   
    10    4   28 1   
    11    5    6 1   
    12    5    7 1   
    13    7    8 1   
    14    7   11 1   
    15    8    9 1   
    16    8   10 1   
    17   10   12 1   
    18   11   20 1   
    19   11   29 1   
    20   11   30 1   
    21   12   31 1   
    22   13   14 1   
    23   13   15 1   
    24   14   16 1   
    25   14   32 1   
    26   15   33 1   
    27   16   34 1   
    28   17   18 1   
    29   17   35 1   
    30   18   19 1   
    31   19   36 1   
    32   20   21 1   
    33   20   22 1   
@<TRIPOS>SUBSTRUCTURE
     1 GYC         1 TEMP              0 ****  ****    0 ROOT
