@<TRIPOS>MOLECULE
GYC
   36    37     1     0     0
SMALL
bcc


@<TRIPOS>ATOM
      1 N          -1.4970   -2.4470   -1.5280 n3        1 GYC     -0.894800
      2 SG1        -3.5470   -3.0980    0.9220 sh        1 GYC     -0.503900
      3 CB1        -2.2270   -1.9180    0.8340 c3        1 GYC     -0.013300
      4 CA1        -2.0160   -1.4490   -0.6130 c3        1 GYC      0.127200
      5 C1         -1.1180   -0.2200   -0.5520 cc        1 GYC      0.504900
      6 N2          0.2120   -0.2640   -0.4070 nd        1 GYC     -0.656300
      7 N3         -1.6530    1.0920   -0.6440 n         1 GYC     -0.380300
      8 C2         -0.5670    1.9900   -0.4910 c         1 GYC      0.667700
      9 O2         -0.6110    3.2250   -0.5160 o         1 GYC     -0.602500
     10 CA2         0.6610    1.0870   -0.3580 cd        1 GYC      0.035400
     11 CA3        -3.0410    1.4590   -0.6190 c3        1 GYC     -0.036000
     12 CB2         1.9000    1.5930   -0.2130 ce        1 GYC     -0.062200
     13 CG2         3.1480    0.8700   -0.0860 ca        1 GYC     -0.071800
     14 CD1         3.3340   -0.4250   -0.5900 ca        1 GYC     -0.074500
     15 CD2         4.2260    1.5100    0.5560 ca        1 GYC     -0.074500
     16 CE1         4.5600   -1.0720   -0.4500 ca        1 GYC     -0.194500
     17 CE2         5.4530    0.8780    0.7070 ca        1 GYC     -0.194500
     18 CZ          5.6150   -0.4210    0.2000 ca        1 GYC      0.114100
     19 OH          6.8540   -1.0030    0.3720 oh        1 GYC     -0.508100
     20 C          -3.8940    0.7400    0.4680 c         1 GYC      0.892600
     21 O          -3.6780    1.0060    1.6770 o         1 GYC     -0.826800
     22 OXT        -4.7580   -0.0880    0.0540 o         1 GYC     -0.826800
     23 HN1        -0.5860   -2.7540   -1.2440 hn        1 GYC      0.352800
     24 HN2        -2.1200   -3.2350   -1.5200 hn        1 GYC      0.352800
     25 HG1        -4.5760   -2.2310    0.7600 hs        1 GYC      0.311800
     26 HB11       -2.4750   -1.0310    1.4750 h1        1 GYC      0.098700
     27 HB12       -1.3170   -2.4200    1.2390 h1        1 GYC      0.098700
     28 HA1        -3.0340   -1.1280   -1.0180 h1        1 GYC      0.133700
     29 HA31       -3.0980    2.5670   -0.4310 h1        1 GYC      0.055700
     30 HA32       -3.4820    1.2310   -1.6300 h1        1 GYC      0.055700
     31 HB2         1.9850    2.6970   -0.1670 ha        1 GYC      0.140000
     32 HD1         2.5110   -0.9440   -1.1070 ha        1 GYC      0.150000
     33 HD2         4.0900    2.5280    0.9530 ha        1 GYC      0.150000
     34 HE1         4.6950   -2.0890   -0.8450 ha        1 GYC      0.134500
     35 HE2         6.2920    1.3730    1.2150 ha        1 GYC      0.134500
     36 HOH         6.8090   -1.8980    0.0090 ho        1 GYC      0.413000
@<TRIPOS>BOND
     1    1    4 1   
     2    1   23 1   
     3    1   24 1   
     4    2    3 1   
     5    2   25 1   
     6    3    4 1   
     7    3   26 1   
     8    3   27 1   
     9    4    5 1   
    10    4   28 1   
    11    5    6 2   
    12    5    7 1   
    13    6   10 1   
    14    7    8 1   
    15    7   11 1   
    16    8    9 2   
    17    8   10 1   
    18   10   12 2   
    19   11   20 1   
    20   11   29 1   
    21   11   30 1   
    22   12   13 1   
    23   12   31 1   
    24   13   14 ar  
    25   13   15 ar  
    26   14   16 ar  
    27   14   32 1   
    28   15   17 ar  
    29   15   33 1   
    30   16   18 ar  
    31   16   34 1   
    32   17   18 ar  
    33   17   35 1   
    34   18   19 1   
    35   19   36 1   
    36   20   21 1   
    37   20   22 1   
@<TRIPOS>SUBSTRUCTURE
     1 GYC         1 TEMP              0 ****  ****    0 ROOT
