@<TRIPOS>MOLECULE
GYM
   55    54     1     0     0
SMALL
bcc


@<TRIPOS>ATOM
      1 O21         0.3230   -1.4610    0.6150 oh        1 GYM     -0.611800
      2 C20         1.6770   -1.0850    0.4210 c3        1 GYM      0.092400
      3 C18         2.0520   -0.2220    1.6320 c3        1 GYM      0.140100
      4 O19         1.2180    0.9250    1.7000 oh        1 GYM     -0.599800
      5 C17         3.4860    0.2910    1.4940 c3        1 GYM      0.138400
      6 O2          4.1200    0.0220    2.7550 os        1 GYM     -0.444900
      7 C1          5.3990    0.4860    2.9090 c         1 GYM      0.634100
      8 O1          5.9320    1.0500    1.9520 o         1 GYM     -0.542000
      9 C2          5.9420    0.2240    4.2790 c3        1 GYM     -0.127400
     10 C3          7.4240   -0.0830    4.2270 c3        1 GYM     -0.079400
     11 C4          7.9950   -0.2070    5.6230 c3        1 GYM     -0.078400
     12 C5          9.4730   -0.5320    5.5790 c3        1 GYM     -0.079400
     13 C6         10.0490   -0.6530    6.9740 c3        1 GYM     -0.079400
     14 C7         11.5270   -0.9780    6.9310 c3        1 GYM     -0.079400
     15 C8         12.1030   -1.0980    8.3250 c3        1 GYM     -0.079400
     16 C9         13.5810   -1.4230    8.2820 c3        1 GYM     -0.079400
     17 C10        14.1580   -1.5420    9.6760 c3        1 GYM     -0.079400
     18 C11        15.6360   -1.8670    9.6330 c3        1 GYM     -0.079400
     19 C12        16.2130   -1.9860   11.0270 c3        1 GYM     -0.079400
     20 C13        17.6920   -2.3110   10.9850 c3        1 GYM     -0.080400
     21 C14        18.2710   -2.4300   12.3710 c3        1 GYM     -0.092100
     22 H21         0.0450   -1.9270   -0.1820 ho        1 GYM      0.410000
     23 H17         3.5060    1.3950    1.2950 h1        1 GYM      0.068200
     24 H71         4.0480   -0.2500    0.6900 h1        1 GYM      0.068200
     25 H18         1.9360   -0.8270    2.5750 h1        1 GYM      0.069700
     26 H19         0.3070    0.6020    1.7170 ho        1 GYM      0.421000
     27 H20         2.3280   -1.9970    0.3770 h1        1 GYM      0.037700
     28 H22         1.7840   -0.4960   -0.5270 h1        1 GYM      0.037700
     29 H23         5.7550    1.1460    4.8940 hc        1 GYM      0.079200
     30 H24         5.3790   -0.6230    4.7520 hc        1 GYM      0.079200
     31 H33         7.9550    0.7320    3.6650 hc        1 GYM      0.057200
     32 H34         7.5910   -1.0370    3.6620 hc        1 GYM      0.057200
     33 H43         7.4490   -1.0110    6.1840 hc        1 GYM      0.041200
     34 H44         7.8380    0.7530    6.1830 hc        1 GYM      0.041200
     35 H53        10.0170    0.2700    5.0150 hc        1 GYM      0.042700
     36 H54         9.6300   -1.4940    5.0230 hc        1 GYM      0.042700
     37 H63         9.8920    0.3090    7.5300 hc        1 GYM      0.040200
     38 H64         9.5040   -1.4540    7.5390 hc        1 GYM      0.040200
     39 H73        11.6840   -1.9400    6.3750 hc        1 GYM      0.040200
     40 H74        12.0720   -0.1760    6.3660 hc        1 GYM      0.040200
     41 H83        11.9460   -0.1360    8.8810 hc        1 GYM      0.039700
     42 H84        11.5580   -1.8990    8.8900 hc        1 GYM      0.039700
     43 H93        13.7390   -2.3840    7.7260 hc        1 GYM      0.039700
     44 H94        14.1260   -0.6210    7.7170 hc        1 GYM      0.039700
     45 HA1        14.0010   -0.5810   10.2320 hc        1 GYM      0.039700
     46 HA2        13.6140   -2.3440   10.2410 hc        1 GYM      0.039700
     47 HA3        15.7940   -2.8280    9.0770 hc        1 GYM      0.039700
     48 HA4        16.1810   -1.0650    9.0680 hc        1 GYM      0.039700
     49 HA5        16.0560   -1.0240   11.5830 hc        1 GYM      0.039700
     50 HA6        15.6690   -2.7880   11.5930 hc        1 GYM      0.039700
     51 HA7        17.8470   -3.2720   10.4280 hc        1 GYM      0.038700
     52 HA8        18.2340   -1.5090   10.4180 hc        1 GYM      0.038700
     53 H40        19.3600   -2.6690   12.3180 hc        1 GYM      0.032700
     54 H41        18.1480   -1.4730   12.9340 hc        1 GYM      0.032700
     55 H42        17.7600   -3.2410   12.9440 hc        1 GYM      0.032700
@<TRIPOS>BOND
     1    1    2 1   
     2    1   22 1   
     3    2    3 1   
     4    2   27 1   
     5    2   28 1   
     6    3    4 1   
     7    3    5 1   
     8    3   25 1   
     9    4   26 1   
    10    5    6 1   
    11    5   23 1   
    12    5   24 1   
    13    6    7 1   
    14    7    8 2   
    15    7    9 1   
    16    9   10 1   
    17    9   29 1   
    18    9   30 1   
    19   10   11 1   
    20   10   31 1   
    21   10   32 1   
    22   11   12 1   
    23   11   33 1   
    24   11   34 1   
    25   12   13 1   
    26   12   35 1   
    27   12   36 1   
    28   13   14 1   
    29   13   37 1   
    30   13   38 1   
    31   14   15 1   
    32   14   39 1   
    33   14   40 1   
    34   15   16 1   
    35   15   41 1   
    36   15   42 1   
    37   16   17 1   
    38   16   43 1   
    39   16   44 1   
    40   17   18 1   
    41   17   45 1   
    42   17   46 1   
    43   18   19 1   
    44   18   47 1   
    45   18   48 1   
    46   19   20 1   
    47   19   49 1   
    48   19   50 1   
    49   20   21 1   
    50   20   51 1   
    51   20   52 1   
    52   21   53 1   
    53   21   54 1   
    54   21   55 1   
@<TRIPOS>SUBSTRUCTURE
     1 GYM         1 TEMP              0 ****  ****    0 ROOT
