@<TRIPOS>MOLECULE
GYM
   55    54     1     0     0
SMALL
bcc


@<TRIPOS>ATOM
      1 O21         9.4790    0.3890    0.7660 oh        1 GYM     -0.602800
      2 C20         8.8100    0.3830   -0.4840 c3        1 GYM      0.097400
      3 C18         7.4510   -0.2950   -0.2680 c3        1 GYM      0.118100
      4 O19         6.8180   -0.4940   -1.5150 oh        1 GYM     -0.596800
      5 C17         6.6080    0.5390    0.6970 c3        1 GYM      0.104400
      6 O2          5.3410   -0.0800    0.9300 os        1 GYM     -0.432900
      7 C1          4.3240    0.1910    0.0540 c         1 GYM      0.645100
      8 O1          4.5400    0.9770   -0.8720 o         1 GYM     -0.561000
      9 C2          3.0690   -0.5540    0.3850 c3        1 GYM     -0.126400
     10 C3          1.8430    0.2870    0.0980 c3        1 GYM     -0.079400
     11 C4          0.5790   -0.5200    0.3010 c3        1 GYM     -0.078400
     12 C5         -0.6510    0.3200    0.0340 c3        1 GYM     -0.079400
     13 C6         -1.9180   -0.4860    0.2310 c3        1 GYM     -0.079400
     14 C7         -3.1490    0.3540   -0.0360 c3        1 GYM     -0.079400
     15 C8         -4.4150   -0.4510    0.1610 c3        1 GYM     -0.079400
     16 C9         -5.6460    0.3880   -0.1050 c3        1 GYM     -0.079400
     17 C10        -6.9130   -0.4170    0.0910 c3        1 GYM     -0.079400
     18 C11        -8.1440    0.4220   -0.1760 c3        1 GYM     -0.079400
     19 C12        -9.4110   -0.3820    0.0210 c3        1 GYM     -0.079400
     20 C13       -10.6430    0.4560   -0.2460 c3        1 GYM     -0.080400
     21 C14       -11.9070   -0.3410   -0.0520 c3        1 GYM     -0.092100
     22 H21        10.3820    0.6770    0.5940 ho        1 GYM      0.406000
     23 H17         7.0930    0.5530    1.7090 h1        1 GYM      0.078200
     24 H71         6.4690    1.5810    0.3090 h1        1 GYM      0.078200
     25 H18         7.5990   -1.3320    0.1450 h1        1 GYM      0.094700
     26 H19         6.4600    0.3560   -1.8070 ho        1 GYM      0.420000
     27 H20         8.6710    1.4360   -0.8480 h1        1 GYM      0.034200
     28 H22         9.3950   -0.1950   -1.2470 h1        1 GYM      0.034200
     29 H23         3.0610   -1.4850   -0.2440 hc        1 GYM      0.081200
     30 H24         3.0890   -0.8690    1.4620 hc        1 GYM      0.081200
     31 H33         1.8340    1.1820    0.7730 hc        1 GYM      0.057200
     32 H34         1.8910    0.6690   -0.9570 hc        1 GYM      0.057200
     33 H43         0.5850   -1.4090   -0.3850 hc        1 GYM      0.041700
     34 H44         0.5460   -0.9130    1.3510 hc        1 GYM      0.041700
     35 H53        -0.6580    1.2060    0.7210 hc        1 GYM      0.042700
     36 H54        -0.6160    0.7150   -1.0160 hc        1 GYM      0.042700
     37 H63        -1.9110   -1.3720   -0.4570 hc        1 GYM      0.040200
     38 H64        -1.9520   -0.8820    1.2800 hc        1 GYM      0.040200
     39 H73        -3.1560    1.2400    0.6520 hc        1 GYM      0.040200
     40 H74        -3.1140    0.7500   -1.0850 hc        1 GYM      0.040200
     41 H83        -4.4080   -1.3370   -0.5270 hc        1 GYM      0.039700
     42 H84        -4.4500   -0.8470    1.2100 hc        1 GYM      0.039700
     43 H93        -5.6540    1.2740    0.5820 hc        1 GYM      0.039700
     44 H94        -5.6120    0.7840   -1.1550 hc        1 GYM      0.039700
     45 HA1        -6.9060   -1.3030   -0.5970 hc        1 GYM      0.039700
     46 HA2        -6.9480   -0.8130    1.1400 hc        1 GYM      0.039700
     47 HA3        -8.1520    1.3090    0.5120 hc        1 GYM      0.039700
     48 HA4        -8.1090    0.8190   -1.2250 hc        1 GYM      0.039700
     49 HA5        -9.4040   -1.2690   -0.6670 hc        1 GYM      0.039700
     50 HA6        -9.4470   -0.7790    1.0700 hc        1 GYM      0.039700
     51 HA7       -10.6480    1.3430    0.4420 hc        1 GYM      0.038700
     52 HA8       -10.6060    0.8530   -1.2950 hc        1 GYM      0.038700
     53 H40       -11.9330   -1.2160   -0.7460 hc        1 GYM      0.032700
     54 H41       -11.9750   -0.7250    0.9950 hc        1 GYM      0.032700
     55 H42       -12.8030    0.2950   -0.2530 hc        1 GYM      0.032700
@<TRIPOS>BOND
     1    1    2 1   
     2    1   22 1   
     3    2    3 1   
     4    2   27 1   
     5    2   28 1   
     6    3    4 1   
     7    3    5 1   
     8    3   25 1   
     9    4   26 1   
    10    5    6 1   
    11    5   23 1   
    12    5   24 1   
    13    6    7 1   
    14    7    8 2   
    15    7    9 1   
    16    9   10 1   
    17    9   29 1   
    18    9   30 1   
    19   10   11 1   
    20   10   31 1   
    21   10   32 1   
    22   11   12 1   
    23   11   33 1   
    24   11   34 1   
    25   12   13 1   
    26   12   35 1   
    27   12   36 1   
    28   13   14 1   
    29   13   37 1   
    30   13   38 1   
    31   14   15 1   
    32   14   39 1   
    33   14   40 1   
    34   15   16 1   
    35   15   41 1   
    36   15   42 1   
    37   16   17 1   
    38   16   43 1   
    39   16   44 1   
    40   17   18 1   
    41   17   45 1   
    42   17   46 1   
    43   18   19 1   
    44   18   47 1   
    45   18   48 1   
    46   19   20 1   
    47   19   49 1   
    48   19   50 1   
    49   20   21 1   
    50   20   51 1   
    51   20   52 1   
    52   21   53 1   
    53   21   54 1   
    54   21   55 1   
@<TRIPOS>SUBSTRUCTURE
     1 GYM         1 TEMP              0 ****  ****    0 ROOT
