@<TRIPOS>MOLECULE
GYM
   55    54     1     0     0
SMALL
bcc


@<TRIPOS>ATOM
      1 O21        -9.9050    0.6360   -5.8750 oh        1 GYM     -0.611800
      2 C20        -8.5080    0.4410   -5.8500 c3        1 GYM      0.092400
      3 C18        -7.9940    0.6560   -4.4450 c3        1 GYM      0.140100
      4 O19        -8.3880    1.9290   -3.9910 oh        1 GYM     -0.599800
      5 C17        -6.4850    0.5650   -4.4410 c3        1 GYM      0.138400
      6 O2         -6.0280    0.4040   -3.1180 os        1 GYM     -0.444900
      7 C1         -4.6310    0.3170   -3.0060 c         1 GYM      0.634100
      8 O1         -3.9330    0.4420   -3.9920 o         1 GYM     -0.542000
      9 C2         -3.9940    0.0890   -1.6530 c3        1 GYM     -0.126400
     10 C3         -2.5020    0.3230   -1.7520 c3        1 GYM     -0.079400
     11 C4         -1.8550    0.0250   -0.4170 c3        1 GYM     -0.078400
     12 C5         -0.3550    0.1750   -0.5400 c3        1 GYM     -0.079400
     13 C6          0.2930   -0.1310    0.7930 c3        1 GYM     -0.079400
     14 C7          1.7920    0.0330    0.6740 c3        1 GYM     -0.079400
     15 C8          2.4400   -0.2770    2.0050 c3        1 GYM     -0.078400
     16 C9          3.9430   -0.1530    1.8760 c3        1 GYM     -0.079400
     17 C10         4.5910   -0.4730    3.2050 c3        1 GYM     -0.078400
     18 C11         6.0940   -0.3570    3.0730 c3        1 GYM     -0.079400
     19 C12         6.7430   -0.6860    4.3990 c3        1 GYM     -0.079400
     20 C13         8.2430   -0.5280    4.2800 c3        1 GYM     -0.080400
     21 C14         8.8920   -0.8450    5.6100 c3        1 GYM     -0.092100
     22 H21       -10.2230    0.3980   -6.6700 ho        1 GYM      0.410000
     23 H17        -6.2030   -0.2030   -4.9790 h1        1 GYM      0.067700
     24 H71        -6.1070    1.3860   -4.8190 h1        1 GYM      0.067700
     25 H18        -8.3640   -0.0290   -3.8540 h1        1 GYM      0.069700
     26 H19        -9.1320    1.8550   -3.5090 ho        1 GYM      0.421000
     27 H20        -8.0780    1.0800   -6.4560 h1        1 GYM      0.037700
     28 H22        -8.3000   -0.4720   -6.1380 h1        1 GYM      0.037700
     29 H23        -4.1610   -0.8300   -1.3640 hc        1 GYM      0.078200
     30 H24        -4.3790    0.7110   -1.0030 hc        1 GYM      0.078200
     31 H33        -2.1250   -0.2650   -2.4360 hc        1 GYM      0.058700
     32 H34        -2.3340    1.2560   -1.9950 hc        1 GYM      0.058700
     33 H43        -2.0700   -0.8910   -0.1480 hc        1 GYM      0.040700
     34 H44        -2.1920    0.6500    0.2550 hc        1 GYM      0.040700
     35 H53        -0.0190   -0.4470   -1.2160 hc        1 GYM      0.043200
     36 H54        -0.1400    1.0920   -0.8040 hc        1 GYM      0.043200
     37 H63        -0.0500    0.4860    1.4710 hc        1 GYM      0.039700
     38 H64         0.0850   -1.0500    1.0530 hc        1 GYM      0.039700
     39 H73         2.1340   -0.5820   -0.0060 hc        1 GYM      0.040700
     40 H74         2.0000    0.9530    0.4160 hc        1 GYM      0.040700
     41 H83         2.2100   -1.1890    2.2750 hc        1 GYM      0.039700
     42 H84         2.1180    0.3540    2.6790 hc        1 GYM      0.039700
     43 H93         4.2640   -0.7790    1.1970 hc        1 GYM      0.039700
     44 H94         4.1730    0.7600    1.6120 hc        1 GYM      0.039700
     45 HA1         4.2740    0.1570    3.8830 hc        1 GYM      0.039700
     46 HA2         4.3570   -1.3840    3.4710 hc        1 GYM      0.039700
     47 HA3         6.4110   -0.9820    2.3910 hc        1 GYM      0.039700
     48 HA4         6.3290    0.5560    2.8130 hc        1 GYM      0.039700
     49 HA5         6.5320   -1.6090    4.6460 hc        1 GYM      0.039700
     50 HA6         6.4050   -0.0790    5.0880 hc        1 GYM      0.039700
     51 HA7         8.5830   -1.1400    3.5970 hc        1 GYM      0.038700
     52 HA8         8.4540    0.3930    4.0260 hc        1 GYM      0.038700
     53 H40         9.8650   -0.8700    5.5010 hc        1 GYM      0.032700
     54 H41         8.6530   -0.1540    6.2630 hc        1 GYM      0.032700
     55 H42         8.5760   -1.7170    5.9270 hc        1 GYM      0.032700
@<TRIPOS>BOND
     1    1    2 1   
     2    1   22 1   
     3    2    3 1   
     4    2   27 1   
     5    2   28 1   
     6    3    4 1   
     7    3    5 1   
     8    3   25 1   
     9    4   26 1   
    10    5    6 1   
    11    5   23 1   
    12    5   24 1   
    13    6    7 1   
    14    7    8 2   
    15    7    9 1   
    16    9   10 1   
    17    9   29 1   
    18    9   30 1   
    19   10   11 1   
    20   10   31 1   
    21   10   32 1   
    22   11   12 1   
    23   11   33 1   
    24   11   34 1   
    25   12   13 1   
    26   12   35 1   
    27   12   36 1   
    28   13   14 1   
    29   13   37 1   
    30   13   38 1   
    31   14   15 1   
    32   14   39 1   
    33   14   40 1   
    34   15   16 1   
    35   15   41 1   
    36   15   42 1   
    37   16   17 1   
    38   16   43 1   
    39   16   44 1   
    40   17   18 1   
    41   17   45 1   
    42   17   46 1   
    43   18   19 1   
    44   18   47 1   
    45   18   48 1   
    46   19   20 1   
    47   19   49 1   
    48   19   50 1   
    49   20   21 1   
    50   20   51 1   
    51   20   52 1   
    52   21   53 1   
    53   21   54 1   
    54   21   55 1   
@<TRIPOS>SUBSTRUCTURE
     1 GYM         1 TEMP              0 ****  ****    0 ROOT
