@<TRIPOS>MOLECULE
GYM
   55    54     1     0     0
SMALL
bcc


@<TRIPOS>ATOM
      1 O21         0.3160   -1.4700    0.6360 oh        1 GYM     -0.611800
      2 C20         1.6720   -1.1060    0.4350 c3        1 GYM      0.092400
      3 C18         2.0520   -0.2210    1.6280 c3        1 GYM      0.140100
      4 O19         1.2260    0.9310    1.6730 oh        1 GYM     -0.599800
      5 C17         3.4900    0.2800    1.4800 c3        1 GYM      0.138400
      6 O2          4.1230    0.0300    2.7450 os        1 GYM     -0.444900
      7 C1          5.4060    0.4850    2.8890 c         1 GYM      0.634100
      8 O1          5.9420    1.0280    1.9220 o         1 GYM     -0.542000
      9 C2          5.9490    0.2440    4.2630 c3        1 GYM     -0.127400
     10 C3          7.4260   -0.0840    4.2140 c3        1 GYM     -0.079400
     11 C4          7.9990   -0.1880    5.6110 c3        1 GYM     -0.078400
     12 C5          9.4720   -0.5340    5.5710 c3        1 GYM     -0.079400
     13 C6         10.0500   -0.6350    6.9660 c3        1 GYM     -0.079400
     14 C7         11.5230   -0.9820    6.9260 c3        1 GYM     -0.079400
     15 C8         12.1010   -1.0820    8.3220 c3        1 GYM     -0.079400
     16 C9         13.5740   -1.4290    8.2820 c3        1 GYM     -0.079400
     17 C10        14.1520   -1.5300    9.6770 c3        1 GYM     -0.079400
     18 C11        15.6250   -1.8770    9.6370 c3        1 GYM     -0.079400
     19 C12        16.2040   -1.9780   11.0320 c3        1 GYM     -0.079400
     20 C13        17.6770   -2.3250   10.9940 c3        1 GYM     -0.080400
     21 C14        18.2570   -2.4270   12.3810 c3        1 GYM     -0.092100
     22 H21         0.0360   -1.9510   -0.1510 ho        1 GYM      0.410000
     23 H17         3.5160    1.3800    1.2630 h1        1 GYM      0.068200
     24 H71         4.0480   -0.2780    0.6850 h1        1 GYM      0.068200
     25 H18         1.9330   -0.8070    2.5830 h1        1 GYM      0.069700
     26 H19         0.3130    0.6140    1.6970 ho        1 GYM      0.421000
     27 H20         2.3180   -2.0220    0.4090 h1        1 GYM      0.037700
     28 H22         1.7830   -0.5360   -0.5250 h1        1 GYM      0.037700
     29 H23         5.3760   -0.5860    4.7550 hc        1 GYM      0.079200
     30 H24         5.7750    1.1800    4.8590 hc        1 GYM      0.079200
     31 H33         7.9670    0.7130    3.6350 hc        1 GYM      0.057200
     32 H34         7.5800   -1.0510    3.6680 hc        1 GYM      0.057200
     33 H43         7.4440   -0.9730    6.1900 hc        1 GYM      0.041200
     34 H44         7.8560    0.7850    6.1520 hc        1 GYM      0.041200
     35 H53         9.6150   -1.5080    5.0330 hc        1 GYM      0.042700
     36 H54        10.0270    0.2490    4.9890 hc        1 GYM      0.042700
     37 H63         9.9080    0.3400    7.5040 hc        1 GYM      0.040200
     38 H64         9.4950   -1.4170    7.5480 hc        1 GYM      0.040200
     39 H73        12.0780   -0.1990    6.3450 hc        1 GYM      0.040200
     40 H74        11.6650   -1.9560    6.3890 hc        1 GYM      0.040200
     41 H83        11.9590   -0.1080    8.8590 hc        1 GYM      0.039700
     42 H84        11.5460   -1.8650    8.9030 hc        1 GYM      0.039700
     43 H93        14.1290   -0.6470    7.7000 hc        1 GYM      0.039700
     44 H94        13.7160   -2.4040    7.7440 hc        1 GYM      0.039700
     45 HA1        14.0100   -0.5560   10.2140 hc        1 GYM      0.039700
     46 HA2        13.5970   -2.3130   10.2590 hc        1 GYM      0.039700
     47 HA3        15.7680   -2.8520    9.1000 hc        1 GYM      0.039700
     48 HA4        16.1800   -1.0950    9.0560 hc        1 GYM      0.039700
     49 HA5        15.6490   -2.7600   11.6140 hc        1 GYM      0.039700
     50 HA6        16.0620   -1.0040   11.5700 hc        1 GYM      0.039700
     51 HA7        18.2300   -1.5430   10.4110 hc        1 GYM      0.038700
     52 HA8        17.8170   -3.2990   10.4550 hc        1 GYM      0.038700
     53 H40        18.1490   -1.4580   12.9260 hc        1 GYM      0.032700
     54 H41        17.7350   -3.2190   12.9700 hc        1 GYM      0.032700
     55 H42        19.3430   -2.6830   12.3300 hc        1 GYM      0.032700
@<TRIPOS>BOND
     1    1    2 1   
     2    1   22 1   
     3    2    3 1   
     4    2   27 1   
     5    2   28 1   
     6    3    4 1   
     7    3    5 1   
     8    3   25 1   
     9    4   26 1   
    10    5    6 1   
    11    5   23 1   
    12    5   24 1   
    13    6    7 1   
    14    7    8 2   
    15    7    9 1   
    16    9   10 1   
    17    9   29 1   
    18    9   30 1   
    19   10   11 1   
    20   10   31 1   
    21   10   32 1   
    22   11   12 1   
    23   11   33 1   
    24   11   34 1   
    25   12   13 1   
    26   12   35 1   
    27   12   36 1   
    28   13   14 1   
    29   13   37 1   
    30   13   38 1   
    31   14   15 1   
    32   14   39 1   
    33   14   40 1   
    34   15   16 1   
    35   15   41 1   
    36   15   42 1   
    37   16   17 1   
    38   16   43 1   
    39   16   44 1   
    40   17   18 1   
    41   17   45 1   
    42   17   46 1   
    43   18   19 1   
    44   18   47 1   
    45   18   48 1   
    46   19   20 1   
    47   19   49 1   
    48   19   50 1   
    49   20   21 1   
    50   20   51 1   
    51   20   52 1   
    52   21   53 1   
    53   21   54 1   
    54   21   55 1   
@<TRIPOS>SUBSTRUCTURE
     1 GYM         1 TEMP              0 ****  ****    0 ROOT
