@<TRIPOS>MOLECULE
GYP
   27    27     1     0     0
SMALL
bcc


@<TRIPOS>ATOM
      1 C1          1.2850   -0.6520   -0.1940 c3        1 GYP      0.302900
      2 C2          0.4460   -0.7110   -1.4840 c3        1 GYP      0.096100
      3 C3         -0.7720    0.2180   -1.3820 c3        1 GYP      0.074100
      4 C4         -1.5440   -0.0670   -0.0830 c3        1 GYP      0.129100
      5 C5         -0.5900    0.0920    1.1090 c3        1 GYP      0.101100
      6 C6         -1.2760   -0.2880    2.4230 c3        1 GYP      0.140400
      7 O1          1.8820    0.6310   -0.1420 os        1 GYP     -0.460600
      8 O2          1.2210   -0.3830   -2.6170 oh        1 GYP     -0.592800
      9 O3         -1.6770   -0.0090   -2.4500 oh        1 GYP     -0.606800
     10 O4         -2.5930    0.8690    0.0930 oh        1 GYP     -0.594800
     11 O5          0.5190   -0.8070    0.9790 os        1 GYP     -0.446600
     12 O6         -0.4340   -0.0430    3.5280 oh        1 GYP     -0.595800
     13 H1          2.0500   -1.4780   -0.1540 h2        1 GYP      0.089700
     14 H2          0.1100   -1.7720   -1.6590 h1        1 GYP      0.100700
     15 H3         -0.4340    1.2920   -1.3990 h1        1 GYP      0.065700
     16 H4         -1.9670   -1.1090   -0.1160 h1        1 GYP      0.058700
     17 H5         -0.2030    1.1460    1.1570 h1        1 GYP      0.081700
     18 H6C1       -2.1720    0.3720    2.5720 h1        1 GYP      0.064200
     19 H6C2       -1.5850   -1.3670    2.3980 h1        1 GYP      0.064200
     20 H7C1        3.1990    1.8320    0.7930 h1        1 GYP      0.043033
     21 H7C2        2.4540    0.5340    1.8660 h1        1 GYP      0.043033
     22 H7C3        3.7400    0.0790    0.6390 h1        1 GYP      0.043033
     23 HA          1.6450    0.4690   -2.4430 ho        1 GYP      0.422000
     24 HB         -1.1520   -0.0050   -3.2620 ho        1 GYP      0.424000
     25 HC         -3.1130    0.8520   -0.7220 ho        1 GYP      0.426000
     26 H6          0.3650   -0.5680    3.3960 ho        1 GYP      0.407000
     27 C7          2.8820    0.7610    0.8590 c3        1 GYP      0.121700
@<TRIPOS>BOND
     1    1    2 1   
     2    1    7 1   
     3    1   11 1   
     4    1   13 1   
     5    2    3 1   
     6    2    8 1   
     7    2   14 1   
     8    3    4 1   
     9    3    9 1   
    10    3   15 1   
    11    4    5 1   
    12    4   10 1   
    13    4   16 1   
    14    5    6 1   
    15    5   11 1   
    16    5   17 1   
    17    6   12 1   
    18    6   18 1   
    19    6   19 1   
    20    7   27 1   
    21    8   23 1   
    22    9   24 1   
    23   10   25 1   
    24   12   26 1   
    25   20   27 1   
    26   21   27 1   
    27   22   27 1   
@<TRIPOS>SUBSTRUCTURE
     1 GYP         1 TEMP              0 ****  ****    0 ROOT
