@<TRIPOS>MOLECULE
GYP
   27    27     1     0     0
SMALL
bcc


@<TRIPOS>ATOM
      1 C1         -0.4360    0.1680   -1.0270 c3        1 GYP      0.296900
      2 C2          1.0660    0.1310   -1.0480 c3        1 GYP      0.108100
      3 C3          1.6540    0.1040    0.3270 c3        1 GYP      0.068100
      4 C4          1.0640   -0.9730    1.1740 c3        1 GYP      0.115100
      5 C5         -0.4450   -0.9320    1.1860 c3        1 GYP      0.154100
      6 C6         -0.8860    0.2870    1.9200 c3        1 GYP      0.094400
      7 C7         -1.9700    0.8710   -2.6550 c3        1 GYP      0.118700
      8 O1         -0.8980    0.0080   -2.3140 os        1 GYP     -0.396600
      9 O2          1.4910   -1.0500   -1.7600 oh        1 GYP     -0.576800
     10 O3          1.4200    1.3630    0.9530 oh        1 GYP     -0.597800
     11 O4          1.4890   -2.2450    0.6700 oh        1 GYP     -0.591800
     12 O5         -1.0200   -0.9030   -0.1730 os        1 GYP     -0.433600
     13 O6         -2.2420    0.1240    2.3480 oh        1 GYP     -0.598800
     14 H1         -0.7270    1.0330   -0.6920 h2        1 GYP      0.048700
     15 H2          1.4060    0.9440   -1.5320 h1        1 GYP      0.084700
     16 H3          2.5790   -0.0350    0.2600 h1        1 GYP      0.053700
     17 H4          1.3850   -0.8720    2.0740 h1        1 GYP      0.076700
     18 H5         -0.7780   -1.7240    1.6550 h1        1 GYP      0.114700
     19 H6C1       -0.3130    0.4230    2.6970 h1        1 GYP      0.043700
     20 H6C2       -0.8220    1.0820    1.3150 h1        1 GYP      0.043700
     21 H7C1       -2.1940    0.7550   -3.6090 h1        1 GYP      0.040367
     22 H7C2       -2.7550    0.6520   -2.1050 h1        1 GYP      0.040367
     23 H7C3       -1.7120    1.7820   -2.4960 h1        1 GYP      0.040367
     24 HA          2.0190   -0.8020   -2.4850 ho        1 GYP      0.432000
     25 HB          2.1580    1.7890    1.0190 ho        1 GYP      0.409000
     26 HC          1.8970   -2.7070    1.3280 ho        1 GYP      0.408000
     27 H6         -2.4280    0.7260    2.9730 ho        1 GYP      0.406000
@<TRIPOS>BOND
     1    1    2 1   
     2    1    8 1   
     3    1   12 1   
     4    1   14 1   
     5    2    3 1   
     6    2    9 1   
     7    2   15 1   
     8    3    4 1   
     9    3   10 1   
    10    3   16 1   
    11    4    5 1   
    12    4   11 1   
    13    4   17 1   
    14    5    6 1   
    15    5   12 1   
    16    5   18 1   
    17    6   13 1   
    18    6   19 1   
    19    6   20 1   
    20    7    8 1   
    21    7   21 1   
    22    7   22 1   
    23    7   23 1   
    24    9   24 1   
    25   10   25 1   
    26   11   26 1   
    27   13   27 1   
@<TRIPOS>SUBSTRUCTURE
     1 GYP         1 TEMP              0 ****  ****    0 ROOT
