@<TRIPOS>MOLECULE
GYR
   64    67     1     0     0
SMALL
bcc


@<TRIPOS>ATOM
      1 OBG         0.6250   -0.3000    0.7810 o         1 GYR     -0.649300
      2 SAJ         1.8650   -0.1130    0.1590 sy        1 GYR      1.380300
      3 OBF         3.0010    0.0210    0.9720 o         1 GYR     -0.649300
      4 CAK         2.1200   -1.3290   -0.9690 ca        1 GYR     -0.388500
      5 CAR         3.4180   -1.6980   -1.3450 ca        1 GYR     -0.019000
      6 CAQ         3.6330   -2.7230   -2.2630 ca        1 GYR     -0.155500
      7 CAP         2.5450   -3.3990   -2.8170 ca        1 GYR     -0.065000
      8 CAO         1.2460   -3.0500   -2.4450 ca        1 GYR     -0.155500
      9 CAN         1.0390   -2.0250   -1.5270 ca        1 GYR     -0.019000
     10 CAI         1.7930    1.2160   -0.9390 c3        1 GYR     -0.248300
     11 CAB         1.5480    2.5290   -0.2930 ca        1 GYR     -0.034300
     12 CAA         2.4810    3.0430    0.6200 ca        1 GYR     -0.165000
     13 CAF         2.2740    4.2870    1.2170 ca        1 GYR     -0.033300
     14 CAG         3.2490    4.8160    2.2000 c3        1 GYR     -0.057800
     15 CAE         1.1340    5.0370    0.8970 ca        1 GYR     -0.200000
     16 CAD         0.2100    4.5210   -0.0160 ca        1 GYR      0.132100
     17 CAC         0.4090    3.2640   -0.6170 ca        1 GYR     -0.142000
     18 OAH        -0.9370    5.1730   -0.4270 os        1 GYR     -0.328900
     19 CAL        -1.2620    6.3690    0.2960 c3        1 GYR      0.174700
     20 CAM        -2.5800    6.8630   -0.1990 ca        1 GYR     -0.090300
     21 CAS        -3.3870    7.6180    0.6610 ca        1 GYR     -0.115500
     22 CAT        -4.6060    8.1210    0.2150 ca        1 GYR     -0.117500
     23 CAU        -5.0360    7.8700   -1.0930 ca        1 GYR     -0.082300
     24 CAV        -4.2300    7.1150   -1.9500 ca        1 GYR     -0.117500
     25 CAW        -3.0080    6.6130   -1.5060 ca        1 GYR     -0.115500
     26 CAX        -6.3710    8.3740   -1.5580 c3        1 GYR      0.213100
     27 NAY        -6.4660    9.8260   -1.5890 n3        1 GYR     -0.730600
     28 CAZ        -7.8240   10.2990   -1.9190 c3        1 GYR      0.130500
     29 CBD        -8.5970   10.7410   -0.6650 c3        1 GYR      0.143400
     30 OBE        -8.0520   11.8800   -0.0370 oh        1 GYR     -0.601800
     31 CBA        -7.7020   11.4570   -2.9300 c3        1 GYR     -0.089400
     32 CBB        -6.2650   11.4340   -3.4280 c3        1 GYR     -0.094400
     33 CBC        -5.5130   10.4790   -2.4890 c3        1 GYR      0.158800
     34 HAI1        1.0000    1.0350   -1.7140 h1        1 GYR      0.114700
     35 HAI2        2.7580    1.2940   -1.5130 h1        1 GYR      0.114700
     36 HAR         4.2790   -1.1750   -0.8910 ha        1 GYR      0.155500
     37 HAN         0.0120   -1.7610   -1.2170 ha        1 GYR      0.155500
     38 HAQ         4.6590   -3.0010   -2.5460 ha        1 GYR      0.143000
     39 HAP         2.7120   -4.2100   -3.5430 ha        1 GYR      0.139000
     40 HAO         0.3860   -3.5880   -2.8730 ha        1 GYR      0.143000
     41 HAA         3.3730    2.4500    0.8800 ha        1 GYR      0.158000
     42 HAC        -0.3370    2.8840   -1.3280 ha        1 GYR      0.149000
     43 HAG1        2.9050    4.5790    3.2380 hc        1 GYR      0.048367
     44 HAG2        4.2570    4.3560    2.0530 hc        1 GYR      0.048367
     45 HAG3        3.3480    5.9250    2.1070 hc        1 GYR      0.048367
     46 HAE         0.9850    6.0180    1.3690 ha        1 GYR      0.138000
     47 HAL1       -0.4660    7.1400    0.1010 h1        1 GYR      0.049700
     48 HAL2       -1.3050    6.1410    1.3950 h1        1 GYR      0.049700
     49 HAS        -3.0580    7.8130    1.6920 ha        1 GYR      0.140000
     50 HAW        -2.3780    6.0110   -2.1790 ha        1 GYR      0.140000
     51 HAT        -5.2360    8.7200    0.8890 ha        1 GYR      0.137000
     52 HAV        -4.5600    6.9140   -2.9810 ha        1 GYR      0.137000
     53 HAX1       -6.6040    7.9160   -2.5660 h1        1 GYR      0.039200
     54 HAX2       -7.1570    8.0100   -0.8330 h1        1 GYR      0.039200
     55 HAZ        -8.4330    9.4700   -2.3910 h1        1 GYR      0.038700
     56 HBC1       -4.9160    9.7320   -3.0810 h1        1 GYR      0.047200
     57 HBC2       -4.7960   11.0540   -1.8420 h1        1 GYR      0.047200
     58 HBD1       -9.6340   11.0530   -0.9670 h1        1 GYR      0.043200
     59 HBD2       -8.6570    9.8910    0.0680 h1        1 GYR      0.043200
     60 HBA1       -7.9300   12.4290   -2.4230 hc        1 GYR      0.058200
     61 HBA2       -8.4290   11.3220   -3.7660 hc        1 GYR      0.058200
     62 HBE        -7.1280   11.6870    0.1660 ho        1 GYR      0.413000
     63 HBB1       -5.8080   12.4530   -3.3990 hc        1 GYR      0.047700
     64 HBB2       -6.2120   11.0660   -4.4820 hc        1 GYR      0.047700
@<TRIPOS>BOND
     1    1    2 2   
     2    2    3 2   
     3    2    4 1   
     4    2   10 1   
     5    4    5 ar  
     6    4    9 ar  
     7    5    6 ar  
     8    5   36 1   
     9    6    7 ar  
    10    6   38 1   
    11    7    8 ar  
    12    7   39 1   
    13    8    9 ar  
    14    8   40 1   
    15    9   37 1   
    16   10   11 1   
    17   10   34 1   
    18   10   35 1   
    19   11   12 ar  
    20   11   17 ar  
    21   12   13 ar  
    22   12   41 1   
    23   13   14 1   
    24   13   15 ar  
    25   14   43 1   
    26   14   44 1   
    27   14   45 1   
    28   15   16 ar  
    29   15   46 1   
    30   16   17 ar  
    31   16   18 1   
    32   17   42 1   
    33   18   19 1   
    34   19   20 1   
    35   19   47 1   
    36   19   48 1   
    37   20   21 ar  
    38   20   25 ar  
    39   21   22 ar  
    40   21   49 1   
    41   22   23 ar  
    42   22   51 1   
    43   23   24 ar  
    44   23   26 1   
    45   24   25 ar  
    46   24   52 1   
    47   25   50 1   
    48   26   27 1   
    49   26   53 1   
    50   26   54 1   
    51   27   28 1   
    52   27   33 1   
    53   28   29 1   
    54   28   31 1   
    55   28   55 1   
    56   29   30 1   
    57   29   58 1   
    58   29   59 1   
    59   30   62 1   
    60   31   32 1   
    61   31   60 1   
    62   31   61 1   
    63   32   33 1   
    64   32   63 1   
    65   32   64 1   
    66   33   56 1   
    67   33   57 1   
@<TRIPOS>SUBSTRUCTURE
     1 GYR         1 TEMP              0 ****  ****    0 ROOT
