@<TRIPOS>MOLECULE
GYR
   64    67     1     0     0
SMALL
bcc


@<TRIPOS>ATOM
      1 OBG         0.6090   -0.3090    0.7610 o         1 GYR     -0.649300
      2 SAJ         1.8530   -0.1220    0.1490 sy        1 GYR      1.380300
      3 OBF         2.9830    0.0060    0.9720 o         1 GYR     -0.649300
      4 CAK         2.1140   -1.3330   -0.9830 ca        1 GYR     -0.388500
      5 CAR         3.4150   -1.7030   -1.3510 ca        1 GYR     -0.019000
      6 CAQ         3.6340   -2.7240   -2.2720 ca        1 GYR     -0.155500
      7 CAP         2.5490   -3.3940   -2.8380 ca        1 GYR     -0.065000
      8 CAO         1.2480   -3.0440   -2.4750 ca        1 GYR     -0.155500
      9 CAN         1.0360   -2.0230   -1.5530 ca        1 GYR     -0.019000
     10 CAI         1.7920    1.2130   -0.9430 c3        1 GYR     -0.248300
     11 CAB         1.5450    2.5230   -0.2910 ca        1 GYR     -0.034300
     12 CAA         2.4710    3.0300    0.6310 ca        1 GYR     -0.164000
     13 CAF         2.2620    4.2720    1.2330 ca        1 GYR     -0.033300
     14 CAG         3.2310    4.7940    2.2260 c3        1 GYR     -0.057800
     15 CAE         1.1260    5.0250    0.9080 ca        1 GYR     -0.200000
     16 CAD         0.2080    4.5160   -0.0140 ca        1 GYR      0.132100
     17 CAC         0.4090    3.2620   -0.6200 ca        1 GYR     -0.142000
     18 OAH        -0.9350    5.1730   -0.4310 os        1 GYR     -0.328900
     19 CAL        -1.2650    6.3630    0.2990 c3        1 GYR      0.174700
     20 CAM        -2.5790    6.8600   -0.2030 ca        1 GYR     -0.090300
     21 CAS        -3.3970    7.6020    0.6580 ca        1 GYR     -0.115500
     22 CAT        -4.6120    8.1080    0.2060 ca        1 GYR     -0.117500
     23 CAU        -5.0280    7.8740   -1.1090 ca        1 GYR     -0.082300
     24 CAV        -4.2120    7.1320   -1.9680 ca        1 GYR     -0.117500
     25 CAW        -2.9930    6.6270   -1.5180 ca        1 GYR     -0.115500
     26 CAX        -6.3590    8.3800   -1.5820 c3        1 GYR      0.213100
     27 NAY        -6.4600    9.8320   -1.5870 n3        1 GYR     -0.730600
     28 CAZ        -7.8170   10.3050   -1.9250 c3        1 GYR      0.130500
     29 CBD        -8.6070   10.7190   -0.6710 c3        1 GYR      0.143400
     30 OBE        -8.0750   11.8480   -0.0140 oh        1 GYR     -0.601800
     31 CBA        -7.6880   11.4850   -2.9100 c3        1 GYR     -0.089400
     32 CBB        -6.2450   11.4760   -3.3920 c3        1 GYR     -0.094400
     33 CBC        -5.5000   10.5050   -2.4640 c3        1 GYR      0.158800
     34 HAI1        1.0050    1.0380   -1.7250 h1        1 GYR      0.114700
     35 HAI2        2.7620    1.2920   -1.5090 h1        1 GYR      0.114700
     36 HAR         4.2730   -1.1850   -0.8870 ha        1 GYR      0.155500
     37 HAN         0.0070   -1.7580   -1.2500 ha        1 GYR      0.155500
     38 HAQ         4.6620   -3.0030   -2.5490 ha        1 GYR      0.143000
     39 HAP         2.7200   -4.2020   -3.5670 ha        1 GYR      0.139000
     40 HAO         0.3900   -3.5770   -2.9120 ha        1 GYR      0.143000
     41 HAA         3.3610    2.4340    0.8950 ha        1 GYR      0.158000
     42 HAC        -0.3320    2.8860   -1.3390 ha        1 GYR      0.149000
     43 HAG1        3.3310    5.9040    2.1400 hc        1 GYR      0.048367
     44 HAG2        2.8790    4.5510    3.2600 hc        1 GYR      0.048367
     45 HAG3        4.2390    4.3340    2.0830 hc        1 GYR      0.048367
     46 HAE         0.9750    6.0040    1.3840 ha        1 GYR      0.138000
     47 HAL1       -1.3170    6.1260    1.3960 h1        1 GYR      0.049700
     48 HAL2       -0.4680    7.1350    0.1170 h1        1 GYR      0.049700
     49 HAS        -3.0790    7.7840    1.6960 ha        1 GYR      0.140000
     50 HAW        -2.3540    6.0340   -2.1910 ha        1 GYR      0.140000
     51 HAT        -5.2510    8.6970    0.8820 ha        1 GYR      0.137000
     52 HAV        -4.5300    6.9430   -3.0040 ha        1 GYR      0.137000
     53 HAX1       -6.5780    7.9400   -2.6010 h1        1 GYR      0.039200
     54 HAX2       -7.1520    8.0000   -0.8730 h1        1 GYR      0.039200
     55 HAZ        -8.4160    9.4830   -2.4200 h1        1 GYR      0.038700
     56 HBC1       -4.8940    9.7730   -3.0640 h1        1 GYR      0.047200
     57 HBC2       -4.7920   11.0700   -1.7980 h1        1 GYR      0.047200
     58 HBD1       -9.6410   11.0320   -0.9790 h1        1 GYR      0.043200
     59 HBD2       -8.6720    9.8550    0.0440 h1        1 GYR      0.043200
     60 HBA1       -7.9260   12.4450   -2.3870 hc        1 GYR      0.058200
     61 HBA2       -8.4050   11.3620   -3.7570 hc        1 GYR      0.058200
     62 HBE        -7.1530   11.6550    0.1960 ho        1 GYR      0.413000
     63 HBB1       -6.1780   11.1300   -4.4530 hc        1 GYR      0.047700
     64 HBB2       -5.7930   12.4960   -3.3370 hc        1 GYR      0.047700
@<TRIPOS>BOND
     1    1    2 2   
     2    2    3 2   
     3    2    4 1   
     4    2   10 1   
     5    4    5 ar  
     6    4    9 ar  
     7    5    6 ar  
     8    5   36 1   
     9    6    7 ar  
    10    6   38 1   
    11    7    8 ar  
    12    7   39 1   
    13    8    9 ar  
    14    8   40 1   
    15    9   37 1   
    16   10   11 1   
    17   10   34 1   
    18   10   35 1   
    19   11   12 ar  
    20   11   17 ar  
    21   12   13 ar  
    22   12   41 1   
    23   13   14 1   
    24   13   15 ar  
    25   14   43 1   
    26   14   44 1   
    27   14   45 1   
    28   15   16 ar  
    29   15   46 1   
    30   16   17 ar  
    31   16   18 1   
    32   17   42 1   
    33   18   19 1   
    34   19   20 1   
    35   19   47 1   
    36   19   48 1   
    37   20   21 ar  
    38   20   25 ar  
    39   21   22 ar  
    40   21   49 1   
    41   22   23 ar  
    42   22   51 1   
    43   23   24 ar  
    44   23   26 1   
    45   24   25 ar  
    46   24   52 1   
    47   25   50 1   
    48   26   27 1   
    49   26   53 1   
    50   26   54 1   
    51   27   28 1   
    52   27   33 1   
    53   28   29 1   
    54   28   31 1   
    55   28   55 1   
    56   29   30 1   
    57   29   58 1   
    58   29   59 1   
    59   30   62 1   
    60   31   32 1   
    61   31   60 1   
    62   31   61 1   
    63   32   33 1   
    64   32   63 1   
    65   32   64 1   
    66   33   56 1   
    67   33   57 1   
@<TRIPOS>SUBSTRUCTURE
     1 GYR         1 TEMP              0 ****  ****    0 ROOT
