@<TRIPOS>MOLECULE
GYR
   64    67     1     0     0
SMALL
bcc


@<TRIPOS>ATOM
      1 OBG         0.6340   -0.2870    0.7970 o         1 GYR     -0.649300
      2 SAJ         1.8690   -0.1080    0.1630 sy        1 GYR      1.380300
      3 OBF         3.0110    0.0300    0.9660 o         1 GYR     -0.649300
      4 CAK         2.1110   -1.3350   -0.9570 ca        1 GYR     -0.388500
      5 CAR         3.4050   -1.7100   -1.3410 ca        1 GYR     -0.019000
      6 CAQ         3.6100   -2.7430   -2.2520 ca        1 GYR     -0.155500
      7 CAP         2.5160   -3.4210   -2.7910 ca        1 GYR     -0.065000
      8 CAO         1.2200   -3.0660   -2.4110 ca        1 GYR     -0.155500
      9 CAN         1.0240   -2.0320   -1.5000 ca        1 GYR     -0.019000
     10 CAI         1.7900    1.2120   -0.9450 c3        1 GYR     -0.248300
     11 CAB         1.5540    2.5310   -0.3080 ca        1 GYR     -0.034300
     12 CAA         2.4940    3.0500    0.5940 ca        1 GYR     -0.164000
     13 CAF         2.2950    4.3000    1.1810 ca        1 GYR     -0.033300
     14 CAG         3.2790    4.8340    2.1520 c3        1 GYR     -0.057800
     15 CAE         1.1540    5.0490    0.8650 ca        1 GYR     -0.200000
     16 CAD         0.2220    4.5280   -0.0360 ca        1 GYR      0.132100
     17 CAC         0.4130    3.2650   -0.6280 ca        1 GYR     -0.142000
     18 OAH        -0.9270    5.1790   -0.4440 os        1 GYR     -0.328900
     19 CAL        -1.2460    6.3790    0.2760 c3        1 GYR      0.174700
     20 CAM        -2.5680    6.8700   -0.2120 ca        1 GYR     -0.090300
     21 CAS        -3.3700    7.6250    0.6520 ca        1 GYR     -0.115500
     22 CAT        -4.5930    8.1260    0.2130 ca        1 GYR     -0.117500
     23 CAU        -5.0320    7.8720   -1.0910 ca        1 GYR     -0.082300
     24 CAV        -4.2310    7.1170   -1.9520 ca        1 GYR     -0.117500
     25 CAW        -3.0050    6.6170   -1.5150 ca        1 GYR     -0.115500
     26 CAX        -6.3700    8.3720   -1.5480 c3        1 GYR      0.213100
     27 NAY        -6.4690    9.8240   -1.5770 n3        1 GYR     -0.730600
     28 CAZ        -7.8310   10.2930   -1.8990 c3        1 GYR      0.130500
     29 CBD        -8.5980   10.7320   -0.6390 c3        1 GYR      0.143400
     30 OBE        -8.0520   11.8720   -0.0140 oh        1 GYR     -0.601800
     31 CBA        -7.7180   11.4540   -2.9090 c3        1 GYR     -0.089400
     32 CBB        -6.2840   11.4340   -3.4160 c3        1 GYR     -0.094400
     33 CBC        -5.5240   10.4800   -2.4820 c3        1 GYR      0.158800
     34 HAI1        0.9910    1.0260   -1.7120 h1        1 GYR      0.114700
     35 HAI2        2.7510    1.2830   -1.5280 h1        1 GYR      0.114700
     36 HAR         4.2710   -1.1850   -0.8980 ha        1 GYR      0.155500
     37 HAN        -0.0000   -1.7630   -1.1830 ha        1 GYR      0.155500
     38 HAQ         4.6330   -3.0260   -2.5420 ha        1 GYR      0.143000
     39 HAP         2.6740   -4.2380   -3.5120 ha        1 GYR      0.139000
     40 HAO         0.3560   -3.6040   -2.8270 ha        1 GYR      0.143000
     41 HAA         3.3880    2.4570    0.8510 ha        1 GYR      0.158000
     42 HAC        -0.3400    2.8810   -1.3310 ha        1 GYR      0.149000
     43 HAG1        3.3830    5.9420    2.0460 hc        1 GYR      0.048367
     44 HAG2        4.2840    4.3670    2.0040 hc        1 GYR      0.048367
     45 HAG3        2.9400    4.6120    3.1950 hc        1 GYR      0.048367
     46 HAE         1.0110    6.0340    1.3300 ha        1 GYR      0.138000
     47 HAL1       -1.2790    6.1570    1.3760 h1        1 GYR      0.049700
     48 HAL2       -0.4520    7.1490    0.0700 h1        1 GYR      0.049700
     49 HAS        -3.0350    7.8230    1.6810 ha        1 GYR      0.140000
     50 HAW        -2.3780    6.0140   -2.1900 ha        1 GYR      0.140000
     51 HAT        -5.2190    8.7250    0.8910 ha        1 GYR      0.137000
     52 HAV        -4.5660    6.9120   -2.9800 ha        1 GYR      0.137000
     53 HAX1       -6.6080    7.9140   -2.5550 h1        1 GYR      0.039200
     54 HAX2       -7.1510    8.0050   -0.8190 h1        1 GYR      0.039200
     55 HAZ        -8.4400    9.4630   -2.3680 h1        1 GYR      0.038700
     56 HBC1       -4.9290    9.7360   -3.0790 h1        1 GYR      0.047200
     57 HBC2       -4.8040   11.0570   -1.8390 h1        1 GYR      0.047200
     58 HBD1       -9.6370   11.0410   -0.9350 h1        1 GYR      0.043200
     59 HBD2       -8.6510    9.8820    0.0930 h1        1 GYR      0.043200
     60 HBA1       -7.9460   12.4240   -2.3990 hc        1 GYR      0.058200
     61 HBA2       -8.4500   11.3160   -3.7410 hc        1 GYR      0.058200
     62 HBE        -7.1270   11.6810    0.1840 ho        1 GYR      0.413000
     63 HBB1       -5.8300   12.4540   -3.3880 hc        1 GYR      0.047700
     64 HBB2       -6.2360   11.0680   -4.4710 hc        1 GYR      0.047700
@<TRIPOS>BOND
     1    1    2 2   
     2    2    3 2   
     3    2    4 1   
     4    2   10 1   
     5    4    5 ar  
     6    4    9 ar  
     7    5    6 ar  
     8    5   36 1   
     9    6    7 ar  
    10    6   38 1   
    11    7    8 ar  
    12    7   39 1   
    13    8    9 ar  
    14    8   40 1   
    15    9   37 1   
    16   10   11 1   
    17   10   34 1   
    18   10   35 1   
    19   11   12 ar  
    20   11   17 ar  
    21   12   13 ar  
    22   12   41 1   
    23   13   14 1   
    24   13   15 ar  
    25   14   43 1   
    26   14   44 1   
    27   14   45 1   
    28   15   16 ar  
    29   15   46 1   
    30   16   17 ar  
    31   16   18 1   
    32   17   42 1   
    33   18   19 1   
    34   19   20 1   
    35   19   47 1   
    36   19   48 1   
    37   20   21 ar  
    38   20   25 ar  
    39   21   22 ar  
    40   21   49 1   
    41   22   23 ar  
    42   22   51 1   
    43   23   24 ar  
    44   23   26 1   
    45   24   25 ar  
    46   24   52 1   
    47   25   50 1   
    48   26   27 1   
    49   26   53 1   
    50   26   54 1   
    51   27   28 1   
    52   27   33 1   
    53   28   29 1   
    54   28   31 1   
    55   28   55 1   
    56   29   30 1   
    57   29   58 1   
    58   29   59 1   
    59   30   62 1   
    60   31   32 1   
    61   31   60 1   
    62   31   61 1   
    63   32   33 1   
    64   32   63 1   
    65   32   64 1   
    66   33   56 1   
    67   33   57 1   
@<TRIPOS>SUBSTRUCTURE
     1 GYR         1 TEMP              0 ****  ****    0 ROOT
