@<TRIPOS>MOLECULE
GYS
   36    37     1     0     0
SMALL
bcc


@<TRIPOS>ATOM
      1 N          -1.3560   -2.9780   -1.1650 n3        1 GYS     -0.891800
      2 OG1        -3.3940   -3.0980    1.1160 oh        1 GYS     -0.639800
      3 CB1        -2.3280   -2.1780    1.0330 c3        1 GYS      0.108400
      4 CA1        -2.0160   -1.8950   -0.4610 c3        1 GYS      0.082200
      5 C1         -1.2290   -0.5990   -0.5190 cc        1 GYS      0.507900
      6 N2          0.0940   -0.5030   -0.3370 nd        1 GYS     -0.658300
      7 N3         -1.8730    0.6420   -0.7690 n         1 GYS     -0.384300
      8 C2         -0.8760    1.6460   -0.7020 c         1 GYS      0.666700
      9 O2         -1.0260    2.8610   -0.8730 o         1 GYS     -0.603500
     10 CA2         0.4210    0.8800   -0.4330 cd        1 GYS      0.036400
     11 CA3        -3.2870    0.8800   -0.8470 c3        1 GYS     -0.035000
     12 CB2         1.6040    1.5100   -0.3160 ce        1 GYS     -0.065200
     13 CG2         2.9060    0.9230   -0.0730 ca        1 GYS     -0.070800
     14 CD1         3.9000    1.7300    0.5140 ca        1 GYS     -0.075500
     15 CD2         3.2220   -0.4000   -0.4130 ca        1 GYS     -0.075500
     16 CE1         5.1720    1.2340    0.7700 ca        1 GYS     -0.194500
     17 CE2         4.4940   -0.9110   -0.1670 ca        1 GYS     -0.194500
     18 CZ          5.4650   -0.0950    0.4260 ca        1 GYS      0.113100
     19 OH          6.7430   -0.5370    0.6970 oh        1 GYS     -0.508100
     20 C          -4.1290    0.2360    0.2950 c         1 GYS      0.897600
     21 O          -4.7950   -0.7990   -0.0030 o         1 GYS     -0.827300
     22 OXT        -4.1060    0.7710    1.4320 o         1 GYS     -0.827300
     23 HN1        -0.4450   -3.1480   -0.7810 hn        1 GYS      0.347800
     24 HN2        -1.9100   -3.8060   -1.0420 hn        1 GYS      0.347800
     25 HA1        -3.0190   -1.7330   -0.9790 h1        1 GYS      0.133700
     26 HB11       -2.5910   -1.2170    1.5530 h1        1 GYS      0.061200
     27 HB12       -1.4600   -2.6700    1.5440 h1        1 GYS      0.061200
     28 HG1        -4.2040   -2.6010    0.9000 ho        1 GYS      0.454000
     29 HB2         1.5900    2.6150   -0.3970 ha        1 GYS      0.140000
     30 HD2         2.4670   -1.0480   -0.8850 ha        1 GYS      0.150500
     31 HE2         4.7320   -1.9500   -0.4340 ha        1 GYS      0.134000
     32 HOH         6.7900   -1.4690    0.4410 ho        1 GYS      0.413000
     33 HE1         5.9460    1.8600    1.2340 ha        1 GYS      0.134000
     34 HD1         3.6620    2.7710    0.7830 ha        1 GYS      0.150500
     35 HA31       -3.4460    1.9930   -0.8170 h1        1 GYS      0.054700
     36 HA32       -3.6560    0.4780   -1.8330 h1        1 GYS      0.054700
@<TRIPOS>BOND
     1    1    4 1   
     2    1   23 1   
     3    1   24 1   
     4    2    3 1   
     5    2   28 1   
     6    3    4 1   
     7    3   26 1   
     8    3   27 1   
     9    4    5 1   
    10    4   25 1   
    11    5    6 2   
    12    5    7 1   
    13    6   10 1   
    14    7    8 1   
    15    7   11 1   
    16    8    9 2   
    17    8   10 1   
    18   10   12 2   
    19   11   20 1   
    20   11   35 1   
    21   11   36 1   
    22   12   13 1   
    23   12   29 1   
    24   13   14 ar  
    25   13   15 ar  
    26   14   16 ar  
    27   14   34 1   
    28   15   17 ar  
    29   15   30 1   
    30   16   18 ar  
    31   16   33 1   
    32   17   18 ar  
    33   17   31 1   
    34   18   19 1   
    35   19   32 1   
    36   20   21 1   
    37   20   22 1   
@<TRIPOS>SUBSTRUCTURE
     1 GYS         1 TEMP              0 ****  ****    0 ROOT
