@<TRIPOS>MOLECULE
GYS
   36    33     1     0     0
SMALL
bcc


@<TRIPOS>ATOM
      1 N          -0.8930   -0.9470   -2.4570 n3        1 GYS     -0.352000
      2 OG1         1.1140    0.4130   -4.4570 oh        1 GYS     -0.343000
      3 CB1         0.7610    0.6210   -3.1220 c3        1 GYS     -0.012000
      4 CA1         0.4730   -0.7180   -2.4550 c3        1 GYS      0.002000
      5 C1          0.9780   -0.6900   -1.0240 c2        1 GYS      0.097000
      6 N2          0.2550   -0.1270   -0.0890 n1        1 GYS     -0.231000
      7 N3          1.8190   -1.7150   -0.5590 n         1 GYS     -0.256000
      8 C2          1.5380   -1.7660    0.9290 c2        1 GYS      0.302000
      9 O2          2.2730   -2.2270    1.7820 o         1 GYS     -0.325000
     10 CA2         0.4610   -0.6320    1.1430 c1        1 GYS     -0.084000
     11 CA3         2.9610   -2.2130   -1.2140 c3        1 GYS     -0.120000
     12 CB2        -0.1140   -0.2580    2.2730 c1        1 GYS     -0.078000
     13 CG2        -1.1580    0.8890    2.2670 c1        1 GYS     -0.059000
     14 CD1        -2.5300    0.5850    2.1680 c2        1 GYS     -0.055000
     15 CD2        -0.7460    2.2230    2.5090 c1        1 GYS     -0.094000
     16 CE1        -3.4910    1.6120    2.3090 c1        1 GYS     -0.221000
     17 CE2        -1.7090    3.2410    2.6480 c1        1 GYS     -0.168000
     18 CZ         -3.0820    2.9330    2.5480 c1        1 GYS      0.068000
     19 OH         -4.0650    3.9860    2.6340 oh        1 GYS     -0.262000
     20 C           3.2880   -3.5940   -0.6870 c2        1 GYS      0.324000
     21 O           2.4080   -4.5380   -0.7600 o         1 GYS     -0.562500
     22 OXT         4.4660   -3.8580   -0.3140 o         1 GYS     -0.562500
     23 HN1        -1.2680   -0.4850   -3.1110 hn        1 GYS      0.177500
     24 HN2        -1.0460   -1.8110   -2.5800 hn        1 GYS      0.177500
     25 HA1         0.9310   -1.4440   -2.9530 h1        1 GYS      0.141000
     26 HB11       -0.0530    1.1920   -3.0800 h1        1 GYS      0.086000
     27 HB12        1.4930    1.0640   -2.6590 h1        1 GYS      0.086000
     28 HG1         1.2550    1.2300   -4.8690 ho        1 GYS      0.214000
     29 HB2         0.1310   -0.7240    3.1520 ha        1 GYS      0.140000
     30 HD2         0.2240    2.4410    2.5810 ha        1 GYS      0.132000
     31 HE2        -1.4080    4.2250    2.8260 ha        1 GYS      0.140000
     32 HOH        -4.5040    3.9220    3.4130 ho        1 GYS      0.212000
     33 HE1        -4.4830    1.3920    2.2370 ha        1 GYS      0.129000
     34 HD1        -2.8260   -0.3710    2.1610 ha        1 GYS      0.167000
     35 HA31        3.7550   -1.5870   -1.0440 h1        1 GYS      0.097500
     36 HA32        2.7910   -2.2620   -2.1460 h1        1 GYS      0.097500
@<TRIPOS>BOND
     1    1    4 1   
     2    1   23 1   
     3    1   24 1   
     4    2    3 1   
     5    2   28 1   
     6    3    4 1   
     7    3   26 1   
     8    3   27 1   
     9    4    5 1   
    10    4   25 1   
    11    5    6 1   
    12    5    7 1   
    13    7    8 1   
    14    7   11 1   
    15    8    9 1   
    16    8   10 1   
    17   10   12 1   
    18   11   20 1   
    19   11   35 1   
    20   11   36 1   
    21   12   29 1   
    22   13   14 1   
    23   13   15 1   
    24   14   16 1   
    25   14   34 1   
    26   15   30 1   
    27   16   33 1   
    28   17   18 1   
    29   17   31 1   
    30   18   19 1   
    31   19   32 1   
    32   20   21 1   
    33   20   22 1   
@<TRIPOS>SUBSTRUCTURE
     1 GYS         1 TEMP              0 ****  ****    0 ROOT
