@<TRIPOS>MOLECULE
GYU
   45    45     1     0     0
SMALL
bcc


@<TRIPOS>ATOM
      1 C1         -0.4860   -1.1060    0.1100 c         1 GYU      0.622100
      2 O1A        -0.5420   -2.2720   -0.2300 o         1 GYU     -0.323000
      3 O1B        -1.1310   -0.7380    1.2720 os        1 GYU     -0.483900
      4 C12         0.8280   -0.4950   -1.9220 c3        1 GYU      0.120800
      5 C13        -0.1190   -0.8380   -3.0600 c3        1 GYU     -0.118400
      6 C14        -0.9010    0.3460   -3.5610 c3        1 GYU     -0.121100
      7 C5         -1.2220   -0.2210    3.6360 c3        1 GYU      0.103500
      8 N5         -2.0220   -1.4530    3.9220 n4        1 GYU     -0.689800
      9 C10        -1.2070   -2.5990    4.5300 c         1 GYU      0.577100
     10 O10        -0.0500   -2.6710    4.1550 o         1 GYU     -0.417100
     11 C11        -1.9500   -3.4560    5.4920 c3        1 GYU     -0.193100
     12 C6         -2.1480    1.0180    3.5360 c3        1 GYU      0.124100
     13 O6         -2.7760    1.1240    4.7950 oh        1 GYU     -0.615800
     14 C7         -1.2930    2.2620    3.2060 c3        1 GYU      0.102100
     15 O7         -2.2180    3.3200    3.0830 oh        1 GYU     -0.576800
     16 C15        -0.3100   -0.3440    2.3900 c3        1 GYU      0.336900
     17 O8          0.2780    0.8560    2.0030 os        1 GYU     -0.425600
     18 NAC         0.1280   -0.0090   -0.6820 n4        1 GYU     -0.650800
     19 C8         -0.6110    1.9850    1.8610 c3        1 GYU      0.089100
     20 C9          0.2730    3.1130    1.3340 c3        1 GYU      0.137400
     21 O9          0.6100    2.7240    0.0070 oh        1 GYU     -0.670800
     22 HAC         0.7920    0.5200   -0.0800 hn        1 GYU      0.493800
     23 H15         0.5330   -1.0800    2.5590 h2        1 GYU      0.154700
     24 H121        1.4380   -1.4010   -1.6400 hx        1 GYU      0.118700
     25 H122        1.5200    0.3430   -2.2330 hx        1 GYU      0.118700
     26 H131       -0.8110   -1.6700   -2.7570 hc        1 GYU      0.099700
     27 H132        0.5270   -1.2400   -3.8930 hc        1 GYU      0.099700
     28 H141       -0.2300    1.2110   -3.7850 hc        1 GYU      0.059033
     29 H142       -1.4310    0.0700   -4.5090 hc        1 GYU      0.059033
     30 H143       -1.6790    0.6730   -2.8280 hc        1 GYU      0.059033
     31 H5         -0.5210   -0.0640    4.5180 hx        1 GYU      0.153700
     32 HA         -2.7710   -1.1870    4.5830 hn        1 GYU      0.481300
     33 H6         -2.9250    0.8790    2.7300 h1        1 GYU      0.086700
     34 H111       -1.3170   -4.3560    5.7280 hc        1 GYU      0.131033
     35 H112       -2.9280   -3.8050    5.0730 hc        1 GYU      0.131033
     36 H113       -2.1370   -2.8950    6.4470 hc        1 GYU      0.131033
     37 HB         -3.2370    1.9810    4.8250 ho        1 GYU      0.479000
     38 H7         -0.5350    2.4550    4.0130 h1        1 GYU      0.094700
     39 HC         -1.7780    4.1400    3.3500 ho        1 GYU      0.449000
     40 H8         -1.3950    1.7360    1.0910 h1        1 GYU      0.073700
     41 H9C1       -0.3160    4.0690    1.3320 h1        1 GYU      0.082700
     42 H9C2        1.2060    3.2220    1.9480 h1        1 GYU      0.082700
     43 H9          1.0830    3.4660   -0.3960 ho        1 GYU      0.459000
     44 H52        -2.4590   -1.7820    3.0520 hn        1 GYU      0.481300
     45 HAC2       -0.6160    0.6570   -0.9540 hn        1 GYU      0.493800
@<TRIPOS>BOND
     1    1    2 2   
     2    1    3 1   
     3    1   18 1   
     4    3   16 1   
     5    4    5 1   
     6    4   18 1   
     7    4   24 1   
     8    4   25 1   
     9    5    6 1   
    10    5   26 1   
    11    5   27 1   
    12    6   28 1   
    13    6   29 1   
    14    6   30 1   
    15    7    8 1   
    16    7   12 1   
    17    7   16 1   
    18    7   31 1   
    19    8    9 1   
    20    8   32 1   
    21    8   44 1   
    22    9   10 2   
    23    9   11 1   
    24   11   34 1   
    25   11   35 1   
    26   11   36 1   
    27   12   13 1   
    28   12   14 1   
    29   12   33 1   
    30   13   37 1   
    31   14   15 1   
    32   14   19 1   
    33   14   38 1   
    34   15   39 1   
    35   16   17 1   
    36   16   23 1   
    37   17   19 1   
    38   18   22 1   
    39   18   45 1   
    40   19   20 1   
    41   19   40 1   
    42   20   21 1   
    43   20   41 1   
    44   20   42 1   
    45   21   43 1   
@<TRIPOS>SUBSTRUCTURE
     1 GYU         1 TEMP              0 ****  ****    0 ROOT
