@<TRIPOS>MOLECULE
GYU
   43    42     1     0     0
SMALL
bcc


@<TRIPOS>ATOM
      1 C1          0.7780   -0.0280   -1.3990 c1        1 GYU      0.626500
      2 O1A         2.0050   -0.0210   -1.3430 o         1 GYU     -0.614500
      3 O1B         0.0250   -0.1960   -0.2270 o         1 GYU     -0.488500
      4 C12         0.8730    0.7660   -3.7850 c3        1 GYU      0.022300
      5 C13        -0.0450    0.8290   -5.0560 c3        1 GYU     -0.113400
      6 C14         0.6410    1.6680   -6.1360 c3        1 GYU     -0.092100
      7 C5          0.0000   -1.1640    1.9340 c3        1 GYU      0.091700
      8 N5         -0.5240   -2.3660    1.2890 n         1 GYU     -0.560900
      9 C10        -0.2240   -3.6510    1.8290 c         1 GYU      0.668100
     10 O10         0.4560   -3.7430    2.8100 o         1 GYU     -0.599100
     11 C11        -0.8050   -4.9190    1.1690 c3        1 GYU     -0.174100
     12 C6         -1.1250   -0.3860    2.4830 c3        1 GYU      0.089100
     13 O6         -1.7370   -1.1400    3.5770 oh        1 GYU     -0.589800
     14 C7         -0.6900    0.9490    2.9980 c3        1 GYU      0.084100
     15 O7         -1.8540    1.7120    3.3370 oh        1 GYU     -0.593800
     16 C15         0.8000   -0.3770    0.9200 c3        1 GYU      0.423600
     17 O8          1.2210    0.9600    1.4360 os        1 GYU     -0.427600
     18 NAC         0.1150    0.2130   -2.6530 n3        1 GYU     -0.356400
     19 C8          0.1280    1.7280    1.9700 c3        1 GYU      0.102100
     20 C9          0.7010    3.0020    2.6360 c3        1 GYU      0.140400
     21 O9          1.4950    3.6730    1.7330 oh        1 GYU     -0.594800
     22 HAC        -0.7830   -0.0640   -2.7740 hn        1 GYU      0.276700
     23 H15         1.5960   -0.8860    0.6850 h2        1 GYU      0.136700
     24 H121        1.6650    0.1790   -3.9750 h1        1 GYU      0.072200
     25 H122        1.1920    1.7000   -3.5530 h1        1 GYU      0.072200
     26 H131       -0.9320    1.2510   -4.8130 hc        1 GYU      0.044700
     27 H132       -0.1990   -0.1000   -5.4020 hc        1 GYU      0.044700
     28 H141        1.5450    1.4030   -6.2140 hc        1 GYU      0.039033
     29 H142        0.1950    1.5340   -6.9770 hc        1 GYU      0.039033
     30 H143        0.5980    2.6110   -5.8910 hc        1 GYU      0.039033
     31 H5          0.5870   -1.4300    2.6620 h1        1 GYU      0.119700
     32 HA         -1.0790   -2.2930    0.5970 hn        1 GYU      0.311500
     33 H6         -1.8010   -0.2490    1.7710 h1        1 GYU      0.060700
     34 H111       -1.7310   -4.8070    1.0360 hc        1 GYU      0.067700
     35 H112       -0.6460   -5.7050    1.7610 hc        1 GYU      0.067700
     36 H113       -0.3700   -5.0670    0.3110 hc        1 GYU      0.067700
     37 HB         -2.6190   -1.0480    3.5400 ho        1 GYU      0.406000
     38 H7         -0.1340    0.8150    3.8240 h1        1 GYU      0.065700
     39 HC         -1.8740    1.8450    4.1800 ho        1 GYU      0.409000
     40 H8         -0.4670    1.9960    1.2290 h1        1 GYU      0.079700
     41 H9C1       -0.0470    3.5950    2.9240 h1        1 GYU      0.060700
     42 H9C2        1.2510    2.7430    3.4340 h1        1 GYU      0.060700
     43 H9          1.8160    4.4660    2.1260 ho        1 GYU      0.414000
@<TRIPOS>BOND
     1    1    2 2   
     2    1   18 2   
     3    3   16 1   
     4    4    5 1   
     5    4   18 1   
     6    4   24 1   
     7    4   25 1   
     8    5    6 1   
     9    5   26 1   
    10    5   27 1   
    11    6   28 1   
    12    6   29 1   
    13    6   30 1   
    14    7    8 1   
    15    7   12 1   
    16    7   16 1   
    17    7   31 1   
    18    8    9 1   
    19    8   32 1   
    20    9   10 2   
    21    9   11 1   
    22   11   34 1   
    23   11   35 1   
    24   11   36 1   
    25   12   13 1   
    26   12   14 1   
    27   12   33 1   
    28   13   37 1   
    29   14   15 1   
    30   14   19 1   
    31   14   38 1   
    32   15   39 1   
    33   16   17 1   
    34   16   23 1   
    35   17   19 1   
    36   18   22 1   
    37   19   20 1   
    38   19   40 1   
    39   20   21 1   
    40   20   41 1   
    41   20   42 1   
    42   21   43 1   
@<TRIPOS>SUBSTRUCTURE
     1 GYU         1 TEMP              0 ****  ****    0 ROOT
