@<TRIPOS>MOLECULE
GYU
   45    45     1     0     0
SMALL
bcc


@<TRIPOS>ATOM
      1 C1         -0.4580   -1.0980    0.1090 c         1 GYU      0.622100
      2 O1A        -0.5060   -2.2620   -0.2390 o         1 GYU     -0.323000
      3 O1B        -1.1290   -0.7380    1.2590 os        1 GYU     -0.483900
      4 C12         0.8980   -0.4720   -1.8900 c3        1 GYU      0.120800
      5 C13        -0.0240   -0.8080   -3.0510 c3        1 GYU     -0.118400
      6 C14        -0.7970    0.3780   -3.5600 c3        1 GYU     -0.121100
      7 C5         -1.2700   -0.2360    3.6240 c3        1 GYU      0.103500
      8 N5         -2.0750   -1.4710    3.8840 ny        1 GYU     -0.689800
      9 C10        -1.2720   -2.6210    4.5020 c         1 GYU      0.577100
     10 O10        -0.1070   -2.6890    4.1520 o         1 GYU     -0.417100
     11 C11        -2.0350   -3.4840    5.4420 c3        1 GYU     -0.193100
     12 C6         -2.1950    1.0030    3.5130 c3        1 GYU      0.124100
     13 O6         -2.8490    1.1000    4.7590 oh        1 GYU     -0.615800
     14 C7         -1.3330    2.2490    3.2090 c3        1 GYU      0.102100
     15 O7         -2.2570    3.3070    3.0740 oh        1 GYU     -0.576800
     16 C15        -0.3320   -0.3510    2.3970 c3        1 GYU      0.336900
     17 O8          0.2640    0.8520    2.0310 os        1 GYU     -0.425600
     18 NAC         0.1720    0.0050   -0.6630 ny        1 GYU     -0.650800
     19 C8         -0.6230    1.9820    1.8780 c3        1 GYU      0.089100
     20 C9          0.2720    3.1140    1.3780 c3        1 GYU      0.137400
     21 O9          0.6360    2.7340    0.0550 oh        1 GYU     -0.670800
     22 HAC         0.8220    0.5300   -0.0430 hn        1 GYU      0.493800
     23 H15         0.5080   -1.0880    2.5790 h2        1 GYU      0.154700
     24 H121        1.5950    0.3690   -2.1810 hx        1 GYU      0.118700
     25 H122        1.5030   -1.3790   -1.6020 hx        1 GYU      0.118700
     26 H131       -0.7210   -1.6430   -2.7680 hc        1 GYU      0.099700
     27 H132        0.6400   -1.2040   -3.8720 hc        1 GYU      0.099700
     28 H141       -1.3060    0.1080   -4.5210 hc        1 GYU      0.059033
     29 H142       -0.1230    1.2450   -3.7640 hc        1 GYU      0.059033
     30 H143       -1.5910    0.6990   -2.8420 hc        1 GYU      0.059033
     31 H5         -0.5890   -0.0860    4.5220 hx        1 GYU      0.153700
     32 HA         -2.4940   -1.7940    3.0030 hn        1 GYU      0.481300
     33 H6         -2.9540    0.8690    2.6900 h1        1 GYU      0.086700
     34 H111       -1.4070   -4.3860    5.6850 hc        1 GYU      0.131033
     35 H112       -2.2440   -2.9310    6.3960 hc        1 GYU      0.131033
     36 H113       -3.0040   -3.8320    5.0000 hc        1 GYU      0.131033
     37 HB         -3.3110    1.9560    4.7850 ho        1 GYU      0.479000
     38 H7         -0.5940    2.4370    4.0340 h1        1 GYU      0.094700
     39 HC         -1.8230    4.1250    3.3560 ho        1 GYU      0.449000
     40 H8         -1.3910    1.7370    1.0890 h1        1 GYU      0.073700
     41 H9C1       -0.3180    4.0690    1.3690 h1        1 GYU      0.082700
     42 H9C2        1.1910    3.2190    2.0120 h1        1 GYU      0.082700
     43 H9          1.1180    3.4780   -0.3330 ho        1 GYU      0.459000
     44 H52        -2.8380   -1.2100    4.5320 hn        1 GYU      0.481300
     45 HAC2       -0.5670    0.6720   -0.9450 hn        1 GYU      0.493800
@<TRIPOS>BOND
     1    1    2 2   
     2    1    3 1   
     3    1   18 1   
     4    3   16 1   
     5    4    5 1   
     6    4   18 1   
     7    4   24 1   
     8    4   25 1   
     9    5    6 1   
    10    5   26 1   
    11    5   27 1   
    12    6   28 1   
    13    6   29 1   
    14    6   30 1   
    15    7    8 1   
    16    7   12 1   
    17    7   16 1   
    18    7   31 1   
    19    8    9 1   
    20    8   32 1   
    21    8   44 1   
    22    9   10 2   
    23    9   11 1   
    24   11   34 1   
    25   11   35 1   
    26   11   36 1   
    27   12   13 1   
    28   12   14 1   
    29   12   33 1   
    30   13   37 1   
    31   14   15 1   
    32   14   19 1   
    33   14   38 1   
    34   15   39 1   
    35   16   17 1   
    36   16   23 1   
    37   17   19 1   
    38   18   22 1   
    39   18   45 1   
    40   19   20 1   
    41   19   40 1   
    42   20   21 1   
    43   20   41 1   
    44   20   42 1   
    45   21   43 1   
@<TRIPOS>SUBSTRUCTURE
     1 GYU         1 TEMP              0 ****  ****    0 ROOT
