@<TRIPOS>MOLECULE
GYU
   43    43     1     0     0
SMALL
bcc


@<TRIPOS>ATOM
      1 C1          1.8820    2.1760    3.4050 c         1 GYU      0.739100
      2 O1A         3.0710    2.4690    3.5990 o         1 GYU     -0.574000
      3 O1B         1.5670    1.4060    2.2910 os        1 GYU     -0.491900
      4 C12         0.8330    3.5800    5.1050 c3        1 GYU      0.080000
      5 C13         0.2960    4.9170    4.5950 c3        1 GYU     -0.115400
      6 C14        -1.1750    4.8700    4.2780 c3        1 GYU     -0.099100
      7 C5          2.4290    0.5130    0.2230 c3        1 GYU      0.052700
      8 N5          2.6160    1.7990   -0.3930 n         1 GYU     -0.560900
      9 C10         3.0550    1.9040   -1.7040 c         1 GYU      0.668100
     10 O10         3.3860    0.8840   -2.3430 o         1 GYU     -0.620100
     11 C11         3.1530    3.2860   -2.2950 c3        1 GYU     -0.172100
     12 C6          1.0700   -0.1520   -0.0950 c3        1 GYU      0.082100
     13 O6          0.8330   -0.2960   -1.4790 oh        1 GYU     -0.602800
     14 C7          1.0300   -1.5300    0.5890 c3        1 GYU      0.093100
     15 O7         -0.2230   -2.1580    0.3830 oh        1 GYU     -0.594800
     16 C15         2.6060    0.5810    1.7640 c3        1 GYU      0.345900
     17 O8          2.4380   -0.6680    2.3820 os        1 GYU     -0.428600
     18 NAC         0.7750    2.4860    4.1680 n         1 GYU     -0.512900
     19 C8          1.2080   -1.3510    2.1020 c3        1 GYU      0.102100
     20 C9          1.3200   -2.7030    2.8120 c3        1 GYU      0.141400
     21 O9          1.3070   -2.5480    4.2130 oh        1 GYU     -0.595800
     22 HAC        -0.1140    2.2810    3.7690 hn        1 GYU      0.318500
     23 H15         3.6340    0.9330    2.0680 h2        1 GYU      0.132700
     24 H121        1.9050    3.7170    5.4290 h1        1 GYU      0.072200
     25 H122        0.2270    3.2630    6.0030 h1        1 GYU      0.072200
     26 H131        0.4820    5.6780    5.3990 hc        1 GYU      0.053700
     27 H132        0.8720    5.2440    3.6900 hc        1 GYU      0.053700
     28 H141       -1.7570    4.4870    5.1510 hc        1 GYU      0.037033
     29 H142       -1.5480    5.8940    4.0290 hc        1 GYU      0.037033
     30 H143       -1.3790    4.2070    3.4020 hc        1 GYU      0.037033
     31 H5          3.2470   -0.1740   -0.1610 h1        1 GYU      0.100700
     32 HA          2.1680    2.5730    0.0380 hn        1 GYU      0.318500
     33 H6          0.2150    0.4800    0.2800 h1        1 GYU      0.094700
     34 H111        3.8210    3.9330   -1.6770 hc        1 GYU      0.071033
     35 H112        3.5760    3.2050   -3.3260 hc        1 GYU      0.071033
     36 H113        2.1410    3.7550   -2.3530 hc        1 GYU      0.071033
     37 HB          1.6670   -0.5430   -1.9060 ho        1 GYU      0.429000
     38 H7          1.8440   -2.1880    0.1730 h1        1 GYU      0.050700
     39 HC         -0.4550   -2.0120   -0.5460 ho        1 GYU      0.425000
     40 H8          0.3530   -0.7560    2.5240 h1        1 GYU      0.078700
     41 H9C1        2.2530   -3.2320    2.4840 h1        1 GYU      0.063700
     42 H9C2        0.4130   -3.3180    2.5670 h1        1 GYU      0.063700
     43 H9          2.0590   -1.9860    4.4440 ho        1 GYU      0.411000
@<TRIPOS>BOND
     1    1    2 2   
     2    1    3 1   
     3    1   18 1   
     4    3   16 1   
     5    4    5 1   
     6    4   18 1   
     7    4   24 1   
     8    4   25 1   
     9    5    6 1   
    10    5   26 1   
    11    5   27 1   
    12    6   28 1   
    13    6   29 1   
    14    6   30 1   
    15    7    8 1   
    16    7   12 1   
    17    7   16 1   
    18    7   31 1   
    19    8    9 1   
    20    8   32 1   
    21    9   10 2   
    22    9   11 1   
    23   11   34 1   
    24   11   35 1   
    25   11   36 1   
    26   12   13 1   
    27   12   14 1   
    28   12   33 1   
    29   13   37 1   
    30   14   15 1   
    31   14   19 1   
    32   14   38 1   
    33   15   39 1   
    34   16   17 1   
    35   16   23 1   
    36   17   19 1   
    37   18   22 1   
    38   19   20 1   
    39   19   40 1   
    40   20   21 1   
    41   20   41 1   
    42   20   42 1   
    43   21   43 1   
@<TRIPOS>SUBSTRUCTURE
     1 GYU         1 TEMP              0 ****  ****    0 ROOT
