@<TRIPOS>MOLECULE
GYU
   45    45     1     0     0
SMALL
bcc


@<TRIPOS>ATOM
      1 C1         -0.4470   -1.0990    0.1140 c         1 GYU      0.622100
      2 O1A        -0.4890   -2.2640   -0.2330 o         1 GYU     -0.323000
      3 O1B        -1.1230   -0.7390    1.2600 os        1 GYU     -0.483900
      4 C12         0.9120   -0.4720   -1.8830 c3        1 GYU      0.120800
      5 C13        -0.0050   -0.8140   -3.0460 c3        1 GYU     -0.118400
      6 C14        -0.7810    0.3680   -3.5600 c3        1 GYU     -0.121100
      7 C5         -1.2750   -0.2330    3.6230 c3        1 GYU      0.103500
      8 N5         -2.0750   -1.4700    3.8840 n4        1 GYU     -0.689800
      9 C10        -1.2700   -2.6150    4.5070 c         1 GYU      0.577100
     10 O10        -0.1040   -2.6790    4.1600 o         1 GYU     -0.417100
     11 C11        -2.0330   -3.4800    5.4450 c3        1 GYU     -0.193100
     12 C6         -2.2040    1.0020    3.5070 c3        1 GYU      0.124100
     13 O6         -2.8630    1.1000    4.7510 oh        1 GYU     -0.615800
     14 C7         -1.3460    2.2520    3.2030 c3        1 GYU      0.102100
     15 O7         -2.2730    3.3060    3.0620 oh        1 GYU     -0.576800
     16 C15        -0.3320   -0.3460    2.4000 c3        1 GYU      0.336900
     17 O8          0.2600    0.8580    2.0330 os        1 GYU     -0.425600
     18 NAC         0.1800    0.0050   -0.6590 n4        1 GYU     -0.650800
     19 C8         -0.6300    1.9840    1.8750 c3        1 GYU      0.089100
     20 C9          0.2620    3.1190    1.3750 c3        1 GYU      0.137400
     21 O9          0.6320    2.7380    0.0540 oh        1 GYU     -0.670800
     22 HAC        -0.5600    0.6690   -0.9450 hn        1 GYU      0.493800
     23 H15         0.5100   -1.0790    2.5870 h2        1 GYU      0.154700
     24 H121        1.6070    0.3710   -2.1740 hx        1 GYU      0.118700
     25 H122        1.5200   -1.3760   -1.5910 hx        1 GYU      0.118700
     26 H131       -0.6990   -1.6510   -2.7630 hc        1 GYU      0.099700
     27 H132        0.6640   -1.2090   -3.8640 hc        1 GYU      0.099700
     28 H141       -0.1090    1.2370   -3.7640 hc        1 GYU      0.059033
     29 H142       -1.5780    0.6870   -2.8450 hc        1 GYU      0.059033
     30 H143       -1.2860    0.0930   -4.5220 hc        1 GYU      0.059033
     31 H5         -0.5970   -0.0770    4.5240 hx        1 GYU      0.153700
     32 HA         -2.4900   -1.7960    3.0020 hn        1 GYU      0.481300
     33 H6         -2.9600    0.8640    2.6810 h1        1 GYU      0.086700
     34 H111       -2.9990   -3.8330    5.0000 hc        1 GYU      0.131033
     35 H112       -2.2480   -2.9250    6.3980 hc        1 GYU      0.131033
     36 H113       -1.4010   -4.3780    5.6940 hc        1 GYU      0.131033
     37 HB         -3.3280    1.9540    4.7730 ho        1 GYU      0.479000
     38 H7         -0.6100    2.4440    4.0300 h1        1 GYU      0.094700
     39 HC         -1.8430    4.1270    3.3450 ho        1 GYU      0.449000
     40 H8         -1.3940    1.7350    1.0840 h1        1 GYU      0.073700
     41 H9C1        1.1790    3.2280    2.0120 h1        1 GYU      0.082700
     42 H9C2       -0.3320    4.0720    1.3630 h1        1 GYU      0.082700
     43 H9          1.1120    3.4830   -0.3340 ho        1 GYU      0.459000
     44 H52        -2.8420   -1.2100    4.5280 hn        1 GYU      0.481300
     45 HAC2        0.8270    0.5340   -0.0380 hn        1 GYU      0.493800
@<TRIPOS>BOND
     1    1    2 2   
     2    1    3 1   
     3    1   18 1   
     4    3   16 1   
     5    4    5 1   
     6    4   18 1   
     7    4   24 1   
     8    4   25 1   
     9    5    6 1   
    10    5   26 1   
    11    5   27 1   
    12    6   28 1   
    13    6   29 1   
    14    6   30 1   
    15    7    8 1   
    16    7   12 1   
    17    7   16 1   
    18    7   31 1   
    19    8    9 1   
    20    8   32 1   
    21    8   44 1   
    22    9   10 2   
    23    9   11 1   
    24   11   34 1   
    25   11   35 1   
    26   11   36 1   
    27   12   13 1   
    28   12   14 1   
    29   12   33 1   
    30   13   37 1   
    31   14   15 1   
    32   14   19 1   
    33   14   38 1   
    34   15   39 1   
    35   16   17 1   
    36   16   23 1   
    37   17   19 1   
    38   18   22 1   
    39   18   45 1   
    40   19   20 1   
    41   19   40 1   
    42   20   21 1   
    43   20   41 1   
    44   20   42 1   
    45   21   43 1   
@<TRIPOS>SUBSTRUCTURE
     1 GYU         1 TEMP              0 ****  ****    0 ROOT
