@<TRIPOS>MOLECULE
GYV
   34    34     1     0     0
SMALL
bcc


@<TRIPOS>ATOM
      1 ND3        -3.5320   -0.4900    1.9580 n         1 GYV     -0.641000
      2 C1         -2.1130   -0.4470    2.0030 c         1 GYV      0.747100
      3 O1A        -1.5340   -0.6370    3.0530 o         1 GYV     -0.578000
      4 O1B        -1.3860   -0.1400    0.8500 os        1 GYV     -0.482900
      5 C15        -0.0130   -0.1320    1.0370 c3        1 GYV      0.335900
      6 O8          0.4870   -1.5160    0.9560 os        1 GYV     -0.425600
      7 C8          0.3950   -2.0770   -0.3930 c3        1 GYV      0.069100
      8 C9          1.0890   -3.4180   -0.4130 c3        1 GYV      0.137400
      9 O9          0.5260   -4.2570    0.5830 oh        1 GYV     -0.593800
     10 C7          1.0280   -1.1810   -1.4390 c3        1 GYV      0.080100
     11 O7          0.7360   -1.7120   -2.7420 oh        1 GYV     -0.601800
     12 C6          0.5220    0.2180   -1.3670 c3        1 GYV      0.130100
     13 O6          1.3040    1.0480   -2.2700 oh        1 GYV     -0.593800
     14 C5          0.6180    0.7760   -0.0030 c3        1 GYV      0.087700
     15 N5         -0.0620    2.0760    0.0260 n         1 GYV     -0.555900
     16 C10         0.6230    3.2360    0.5320 c         1 GYV      0.666100
     17 O10         1.7630    3.1380    0.9350 o         1 GYV     -0.599100
     18 C11        -0.0420    4.6100    0.4500 c3        1 GYV     -0.174100
     19 HD31       -4.0080   -0.7250    2.7040 hn        1 GYV      0.327000
     20 HD32       -3.9720   -0.2560    1.1920 hn        1 GYV      0.327000
     21 H15         0.1820    0.2220    1.9230 h2        1 GYV      0.138700
     22 H5          1.5560    0.9060    0.2190 h1        1 GYV      0.118700
     23 H8         -0.5490   -2.2070   -0.6180 h1        1 GYV      0.076700
     24 H91C        0.9730   -3.8350   -1.2980 h1        1 GYV      0.052200
     25 H92C        2.0440   -3.2940   -0.2330 h1        1 GYV      0.052200
     26 H7          1.9970   -1.1750   -1.3090 h1        1 GYV      0.064700
     27 H9          0.8780   -5.0830    0.5150 ho        1 GYV      0.420000
     28 HA          1.4930   -1.8640   -3.1760 ho        1 GYV      0.413000
     29 H6         -0.4140    0.2330   -1.6510 h1        1 GYV      0.060700
     30 HB          0.8820    1.1170   -3.0500 ho        1 GYV      0.423000
     31 HC         -0.9190    2.1490   -0.2790 hn        1 GYV      0.313500
     32 H111       -0.8260    4.6320    1.0440 hc        1 GYV      0.068367
     33 H112       -0.3260    4.7810   -0.4720 hc        1 GYV      0.068367
     34 H113        0.6010    5.3030    0.7290 hc        1 GYV      0.068367
@<TRIPOS>BOND
     1    1    2 1   
     2    1   19 1   
     3    1   20 1   
     4    2    3 2   
     5    2    4 1   
     6    4    5 1   
     7    5    6 1   
     8    5   14 1   
     9    5   21 1   
    10    6    7 1   
    11    7    8 1   
    12    7   10 1   
    13    7   23 1   
    14    8    9 1   
    15    8   24 1   
    16    8   25 1   
    17    9   27 1   
    18   10   11 1   
    19   10   12 1   
    20   10   26 1   
    21   11   28 1   
    22   12   13 1   
    23   12   14 1   
    24   12   29 1   
    25   13   30 1   
    26   14   15 1   
    27   14   22 1   
    28   15   16 1   
    29   15   31 1   
    30   16   17 2   
    31   16   18 1   
    32   18   32 1   
    33   18   33 1   
    34   18   34 1   
@<TRIPOS>SUBSTRUCTURE
     1 GYV         1 TEMP              0 ****  ****    0 ROOT
