@<TRIPOS>MOLECULE
GYV
   34    34     1     0     0
SMALL
bcc


@<TRIPOS>ATOM
      1 ND3         0.6230    3.2930    1.9000 n         1 GYV     -0.641000
      2 C1          0.3610    2.7420    0.6730 c         1 GYV      0.747100
      3 O1A         0.1790    3.3360   -0.4010 o         1 GYV     -0.578000
      4 O1B         0.2410    1.3620    0.7190 os        1 GYV     -0.482900
      5 C15         0.0340    0.6880   -0.5220 c3        1 GYV      0.335900
      6 O8          1.3190    0.3030   -0.9430 os        1 GYV     -0.425600
      7 C8          2.0090   -0.6150   -0.0880 c3        1 GYV      0.069100
      8 C9          3.3150   -0.9330   -0.8250 c3        1 GYV      0.137400
      9 O9          4.1270    0.2130   -0.9400 oh        1 GYV     -0.593800
     10 C7          1.1670   -1.8720    0.1500 c3        1 GYV      0.080100
     11 O7          1.7610   -2.7090    1.1310 oh        1 GYV     -0.601800
     12 C6         -0.2050   -1.4790    0.7290 c3        1 GYV      0.130100
     13 O6         -1.0230   -2.6220    0.8910 oh        1 GYV     -0.593800
     14 C5         -0.9080   -0.5260   -0.2690 c3        1 GYV      0.087700
     15 N5         -2.2120   -0.1030    0.1570 n         1 GYV     -0.555900
     16 C10        -3.3460   -0.3400   -0.6080 c         1 GYV      0.666100
     17 O10        -3.2580   -0.7470   -1.7810 o         1 GYV     -0.599100
     18 C11        -4.6770   -0.0310    0.0310 c3        1 GYV     -0.174100
     19 HD31        0.8630    4.2530    1.9280 hn        1 GYV      0.327000
     20 HD32        0.8730    2.7050    2.6550 hn        1 GYV      0.327000
     21 H15        -0.3510    1.3720   -1.3320 h2        1 GYV      0.138700
     22 H5         -1.0080   -1.0600   -1.2640 h1        1 GYV      0.118700
     23 H8          2.2280   -0.1100    0.8920 h1        1 GYV      0.076700
     24 H91C        3.9210   -1.6610   -0.2240 h1        1 GYV      0.052200
     25 H92C        3.0900   -1.3580   -1.8390 h1        1 GYV      0.052200
     26 H7          1.0270   -2.4410   -0.8110 h1        1 GYV      0.064700
     27 H9          3.6130    0.8790   -1.4170 ho        1 GYV      0.420000
     28 HA          2.5680   -3.0700    0.7450 ho        1 GYV      0.413000
     29 H6         -0.0570   -0.9710    1.7230 h1        1 GYV      0.060700
     30 HB         -0.5100   -3.2530    1.4150 ho        1 GYV      0.423000
     31 HC         -2.3170    0.1000    1.1230 hn        1 GYV      0.313500
     32 H111       -4.7220    1.0370    0.3530 hc        1 GYV      0.068367
     33 H112       -5.4850   -0.2190   -0.7170 hc        1 GYV      0.068367
     34 H113       -4.8430   -0.6890    0.9180 hc        1 GYV      0.068367
@<TRIPOS>BOND
     1    1    2 1   
     2    1   19 1   
     3    1   20 1   
     4    2    3 2   
     5    2    4 1   
     6    4    5 1   
     7    5    6 1   
     8    5   14 1   
     9    5   21 1   
    10    6    7 1   
    11    7    8 1   
    12    7   10 1   
    13    7   23 1   
    14    8    9 1   
    15    8   24 1   
    16    8   25 1   
    17    9   27 1   
    18   10   11 1   
    19   10   12 1   
    20   10   26 1   
    21   11   28 1   
    22   12   13 1   
    23   12   14 1   
    24   12   29 1   
    25   13   30 1   
    26   14   15 1   
    27   14   22 1   
    28   15   16 1   
    29   15   31 1   
    30   16   17 2   
    31   16   18 1   
    32   18   32 1   
    33   18   33 1   
    34   18   34 1   
@<TRIPOS>SUBSTRUCTURE
     1 GYV         1 TEMP              0 ****  ****    0 ROOT
