@<TRIPOS>MOLECULE
GZ2
   22    23     1     0     0
SMALL
bcc


@<TRIPOS>ATOM
      1 O13        -0.0620   -0.3030   -0.0140 o         1 GZ2     -0.536100
      2 C11         1.1650   -0.1420   -0.0360 c         1 GZ2      0.582300
      3 C12         1.9530   -0.1220    1.2010 ce        1 GZ2     -0.327200
      4 C7          3.2970    0.0800    1.2130 c2        1 GZ2      0.177800
      5 C8          4.0650    0.2460   -0.0680 c3        1 GZ2     -0.056200
      6 C9          3.1820    0.8180   -1.1590 c3        1 GZ2     -0.072400
      7 C10         1.9150    0.0130   -1.3290 c3        1 GZ2     -0.183400
      8 N6          3.9790    0.2110    2.4400 nh        1 GZ2     -0.707700
      9 C5          5.2990   -0.2280    2.5780 cc        1 GZ2      0.594400
     10 N4          6.1080   -0.9950    1.7540 nd        1 GZ2     -0.396000
     11 N3          7.2960   -1.0540    2.3420 nd        1 GZ2     -0.036000
     12 N2          7.3420   -0.4240    3.4580 nc        1 GZ2     -0.188800
     13 N1          6.1390    0.1280    3.6740 na        1 GZ2     -0.201400
     14 H12         1.3660   -0.2690    2.1230 ha        1 GZ2      0.149000
     15 H8          4.9520    0.9190    0.0750 hc        1 GZ2      0.081700
     16 H8A         4.4510   -0.7630   -0.3820 hc        1 GZ2      0.081700
     17 H9          2.9230    1.8820   -0.9160 hc        1 GZ2      0.055200
     18 H9A         3.7540    0.8230   -2.1230 hc        1 GZ2      0.055200
     19 H10         1.2490    0.4980   -2.0910 hc        1 GZ2      0.077200
     20 H10A        2.1600   -1.0180   -1.7060 hc        1 GZ2      0.077200
     21 HN6         3.4160    0.0670    3.2570 hn        1 GZ2      0.435800
     22 HN1         5.9300    0.6680    4.4790 hn        1 GZ2      0.337700
@<TRIPOS>BOND
     1    1    2 2   
     2    2    3 1   
     3    2    7 1   
     4    3    4 2   
     5    3   14 1   
     6    4    5 1   
     7    4    8 1   
     8    5    6 1   
     9    5   15 1   
    10    5   16 1   
    11    6    7 1   
    12    6   17 1   
    13    6   18 1   
    14    7   19 1   
    15    7   20 1   
    16    8    9 1   
    17    8   21 1   
    18    9   10 2   
    19    9   13 1   
    20   10   11 1   
    21   11   12 2   
    22   12   13 1   
    23   13   22 1   
@<TRIPOS>SUBSTRUCTURE
     1 GZ2         1 TEMP              0 ****  ****    0 ROOT
