@<TRIPOS>MOLECULE
GZ2
   22    20     1     0     0
SMALL
bcc


@<TRIPOS>ATOM
      1 O13        -3.4380    0.9500   -1.1600 o         1 GZ2     -0.292000
      2 C11        -2.2210    0.5420   -1.1710 c1        1 GZ2      0.272000
      3 C12        -1.3870    0.5270    0.1460 c1        1 GZ2     -0.315000
      4 C7          0.1530    0.3250    0.0320 c1        1 GZ2      0.085000
      5 C8          0.7450    0.1270   -1.3390 c2        1 GZ2     -0.139000
      6 C9         -0.2190   -0.3990   -2.2940 c3        1 GZ2     -0.152000
      7 C10        -1.5050    0.3350   -2.4680 c3        1 GZ2     -0.212000
      8 N6          1.0140    0.6220    1.1680 nh        1 GZ2     -0.229000
      9 C5          1.0490   -0.2590    2.2710 c2        1 GZ2      0.040000
     10 N4          0.0490   -1.1120    2.6500 nc        1 GZ2     -0.171500
     11 N3          0.4560   -1.7670    3.7680 nc        1 GZ2     -0.028500
     12 N2          1.7110   -1.3210    4.0840 nc        1 GZ2     -0.028500
     13 N1          2.0730   -0.3900    3.1570 nc        1 GZ2     -0.171500
     14 H12        -1.8540    0.3560    1.0370 ha        1 GZ2      0.154000
     15 H8          1.5630   -0.3960   -1.4120 ha        1 GZ2      0.106000
     16 H8A         1.0760    1.0090   -1.6160 ha        1 GZ2      0.106000
     17 H9          0.2340   -0.4360   -3.1880 hc        1 GZ2      0.097000
     18 H9A        -0.4310   -1.3210   -2.0240 hc        1 GZ2      0.097000
     19 H10        -2.0840   -0.0080   -3.1680 hc        1 GZ2      0.116500
     20 H10A       -1.3040    1.1370   -2.8120 hc        1 GZ2      0.116500
     21 HN6         1.4560    1.4130    1.2060 hn        1 GZ2      0.254000
     22 HN1         2.8660    0.0660    3.1330 DU        1 GZ2      0.294000
@<TRIPOS>BOND
     1    1    2 1   
     2    2    7 1   
     3    3    4 1   
     4    3   14 1   
     5    4    8 1   
     6    5    6 1   
     7    5   15 1   
     8    5   16 1   
     9    6    7 1   
    10    6   17 1   
    11    6   18 1   
    12    7   19 1   
    13    7   20 1   
    14    8    9 1   
    15    8   21 1   
    16    9   10 1   
    17    9   13 1   
    18   10   11 1   
    19   11   12 1   
    20   12   13 1   
@<TRIPOS>SUBSTRUCTURE
     1 GZ2         1 TEMP              0 ****  ****    0 ROOT
