@<TRIPOS>MOLECULE
GZ2
   22    23     1     0     0
SMALL
bcc


@<TRIPOS>ATOM
      1 O13        -4.0690    1.0370    0.4020 o         1 GZ2     -0.536100
      2 C11        -3.0340    0.3820    0.2280 c         1 GZ2      0.582300
      3 C12        -1.7290    1.0390    0.1040 ce        1 GZ2     -0.327200
      4 C7         -0.5770    0.3510   -0.1150 c2        1 GZ2      0.177800
      5 C8         -0.5760   -1.1490   -0.1930 c3        1 GZ2     -0.056200
      6 C9         -1.9190   -1.6680   -0.6680 c3        1 GZ2     -0.072400
      7 C10        -3.0550   -1.1200    0.1640 c3        1 GZ2     -0.183400
      8 N6          0.6270    1.0480   -0.3480 nh        1 GZ2     -0.707700
      9 C5          1.8530    0.5180    0.0620 cc        1 GZ2      0.594400
     10 N4          2.1680   -0.5560    0.8800 nd        1 GZ2     -0.396000
     11 N3          3.4910   -0.6550    0.8780 nd        1 GZ2     -0.036000
     12 N2          4.0670    0.2400    0.1630 nc        1 GZ2     -0.188800
     13 N1          3.1150    1.0060   -0.3890 na        1 GZ2     -0.201400
     14 H12        -1.7580    2.1380    0.1880 ha        1 GZ2      0.149000
     15 H8          0.2260   -1.5200   -0.8850 hc        1 GZ2      0.081700
     16 H8A        -0.3540   -1.5560    0.8330 hc        1 GZ2      0.081700
     17 H9         -2.0710   -1.3910   -1.7440 hc        1 GZ2      0.055200
     18 H9A        -1.9170   -2.7880   -0.6070 hc        1 GZ2      0.055200
     19 H10        -2.9840   -1.5060    1.2170 hc        1 GZ2      0.077200
     20 H10A       -4.0380   -1.4610   -0.2540 hc        1 GZ2      0.077200
     21 HN6         0.5650    2.0440   -0.2600 hn        1 GZ2      0.435800
     22 HN1         3.3170    1.7710   -0.9880 hn        1 GZ2      0.337700
@<TRIPOS>BOND
     1    1    2 2   
     2    2    3 1   
     3    2    7 1   
     4    3    4 2   
     5    3   14 1   
     6    4    5 1   
     7    4    8 1   
     8    5    6 1   
     9    5   15 1   
    10    5   16 1   
    11    6    7 1   
    12    6   17 1   
    13    6   18 1   
    14    7   19 1   
    15    7   20 1   
    16    8    9 1   
    17    8   21 1   
    18    9   10 2   
    19    9   13 1   
    20   10   11 1   
    21   11   12 2   
    22   12   13 1   
    23   13   22 1   
@<TRIPOS>SUBSTRUCTURE
     1 GZ2         1 TEMP              0 ****  ****    0 ROOT
