@<TRIPOS>MOLECULE
GZ2
   23    24     1     0     0
SMALL
bcc


@<TRIPOS>ATOM
      1 O13         0.9730   -1.6550   -0.4780 o         1 GZ2     -0.428100
      2 C11         1.8420   -0.8040   -0.3070 c         1 GZ2      0.552300
      3 C12         2.4490   -0.6460    1.0500 ce        1 GZ2     -0.126200
      4 C7          3.3810    0.2950    1.2930 c2        1 GZ2     -0.062200
      5 C8          3.8930    1.2420    0.2500 c3        1 GZ2     -0.052200
      6 C9          2.8660    1.4120   -0.8560 c3        1 GZ2     -0.077400
      7 C10         2.3680    0.0890   -1.3870 c3        1 GZ2     -0.185400
      8 N6          3.9470    0.4540    2.6500 n4        1 GZ2     -0.594500
      9 C5          5.0130   -0.4910    2.9410 cc        1 GZ2      0.374400
     10 N4          5.2460   -1.1450    4.1430 nd        1 GZ2     -0.263000
     11 N3          6.3190   -1.8850    3.9460 nd        1 GZ2      0.009000
     12 N2          6.7960   -1.7770    2.7470 nc        1 GZ2     -0.095800
     13 N1          6.0370   -0.9270    2.0630 na        1 GZ2     -0.120400
     14 H12         2.0650   -1.3540    1.8100 ha        1 GZ2      0.187000
     15 H8          4.1240    2.2540    0.6820 hc        1 GZ2      0.074200
     16 H8A         4.8480    0.8280   -0.1780 hc        1 GZ2      0.074200
     17 H9          3.3380    1.9930   -1.6940 hc        1 GZ2      0.084700
     18 H9A         2.0020    2.0190   -0.4750 hc        1 GZ2      0.084700
     19 H10         3.1930   -0.4610   -1.9180 hc        1 GZ2      0.106700
     20 H10A        1.5540    0.2680   -2.1440 hc        1 GZ2      0.106700
     21 HN6         4.3260    1.4110    2.7540 hn        1 GZ2      0.490800
     22 HN1         6.2020   -0.6940    1.1050 hn        1 GZ2      0.367700
     23 H62         3.2010    0.3140    3.3560 hn        1 GZ2      0.490800
@<TRIPOS>BOND
     1    1    2 2   
     2    2    3 1   
     3    2    7 1   
     4    3    4 2   
     5    3   14 1   
     6    4    5 1   
     7    4    8 1   
     8    5    6 1   
     9    5   15 1   
    10    5   16 1   
    11    6    7 1   
    12    6   17 1   
    13    6   18 1   
    14    7   19 1   
    15    7   20 1   
    16    8    9 1   
    17    8   21 1   
    18    8   23 1   
    19    9   10 2   
    20    9   13 1   
    21   10   11 1   
    22   11   12 2   
    23   12   13 1   
    24   13   22 1   
@<TRIPOS>SUBSTRUCTURE
     1 GZ2         1 TEMP              0 ****  ****    0 ROOT
