@<TRIPOS>MOLECULE
GZ3
   14    12     1     0     0
SMALL
bcc


@<TRIPOS>ATOM
      1 CAI         9.4730   -6.7240   70.9320 c2        1 GZ3      0.391000
      2 OAB        10.6590   -6.7630   70.4510 o         1 GZ3     -0.669000
      3 OAD         9.3330   -6.6920   72.2030 o         1 GZ3     -0.669000
      4 CAH         8.2820   -6.6230   70.0180 c2        1 GZ3     -0.305000
      5 CAA         8.0420   -5.2060   69.6090 c3        1 GZ3     -0.128000
      6 CAG         7.5350   -7.6480   69.6080 c1        1 GZ3     -0.524000
      7 PAJ       -24.8470   15.3700 -182.0330 p3        1 GZ3      2.361000
      8 OAE       -24.6490   14.9480 -183.4320 o         1 GZ3     -1.120000
      9 OAF       -24.0230   14.7810 -180.9630 o         1 GZ3     -1.120000
     10 OAC       -25.8680   16.3810 -181.7060 o         1 GZ3     -1.120000
     11 HAG         6.6870   -7.4030   68.9230 ha        1 GZ3     -0.083000
     12 HAA1        7.7840   -4.5630   70.4910 hc        1 GZ3     -0.004667
     13 HAA2        8.9530   -4.7610   69.1320 hc        1 GZ3     -0.004667
     14 HAA3        7.1990   -5.1220   68.8750 hc        1 GZ3     -0.004667
@<TRIPOS>BOND
     1    1    2 1   
     2    1    3 1   
     3    1    4 1   
     4    4    5 1   
     5    4    6 1   
     6    5   12 1   
     7    5   13 1   
     8    5   14 1   
     9    6   11 1   
    10    7    8 1   
    11    7    9 1   
    12    7   10 1   
@<TRIPOS>SUBSTRUCTURE
     1 GZ3         1 TEMP              0 ****  ****    0 ROOT
