@<TRIPOS>MOLECULE
GZ3
   14    12     1     0     0
SMALL
bcc


@<TRIPOS>ATOM
      1 CAI       125.7690  -48.0570  507.7350 c2        1 GZ3      0.391000
      2 OAB       125.9820  -46.8110  507.9250 o         1 GZ3     -0.669000
      3 OAD       126.0530  -48.5540  506.5890 o         1 GZ3     -0.669000
      4 CAH       125.2870  -48.9520  508.8450 c2        1 GZ3     -0.305000
      5 CAA       126.4090  -49.7670  509.4000 c3        1 GZ3     -0.128000
      6 CAG       124.0280  -49.0410  509.2730 c1        1 GZ3     -0.524000
      7 PAJ      -318.2410  122.7240-1279.1040 p3        1 GZ3      2.361000
      8 OAE      -317.5250  123.0230-1280.3570 o         1 GZ3     -1.120000
      9 OAF      -318.1640  121.3740-1278.5160 o         1 GZ3     -1.120000
     10 OAC      -319.0340  123.7730-1278.4400 o         1 GZ3     -1.120000
     11 HAG       123.8350  -49.7730  510.0950 ha        1 GZ3     -0.083000
     12 HAA1      127.0450  -50.1930  508.5830 hc        1 GZ3     -0.005000
     13 HAA2      127.0800  -49.1520  510.0570 hc        1 GZ3     -0.005000
     14 HAA3      126.0340  -50.6210  510.0220 hc        1 GZ3     -0.005000
@<TRIPOS>BOND
     1    1    2 1   
     2    1    3 1   
     3    1    4 1   
     4    4    5 1   
     5    4    6 1   
     6    5   12 1   
     7    5   13 1   
     8    5   14 1   
     9    6   11 1   
    10    7    8 1   
    11    7    9 1   
    12    7   10 1   
@<TRIPOS>SUBSTRUCTURE
     1 GZ3         1 TEMP              0 ****  ****    0 ROOT
