@<TRIPOS>MOLECULE
GZC
   50    37     1     0     0
SMALL
bcc


@<TRIPOS>ATOM
      1 NAA        -3.4020   -7.3180   -2.1330 n3        1 GZC     -0.371000
      2 CAB        -2.4630   -6.2560   -1.9490 c1        1 GZC      0.152000
      3 NAC        -2.6550   -5.2880   -0.8670 n2        1 GZC     -0.236000
      4 CAD        -1.6440   -4.3250   -0.5830 c1        1 GZC      0.012000
      5 CAE        -0.6450   -4.0880   -1.4990 c1        1 GZC     -0.131000
      6 CAF         0.3890   -3.2080   -1.1900 c1        1 GZC     -0.131000
      7 CAG         3.1110    3.4830    1.0790 c1        1 GZC     -0.189000
      8 CAH         2.5900    4.2440    0.0180 c1        1 GZC     -0.126000
      9 CAI         1.2150    4.4590   -0.0760 c1        1 GZC     -0.004000
     10 NAJ         0.6610    5.1480   -1.2450 n2        1 GZC     -0.268000
     11 CAK         1.5390    5.7140   -2.2270 c1        1 GZC      0.143000
     12 NAL         1.8980    4.9630   -3.3770 n2        1 GZC     -0.344000
     13 NAM        -1.4210   -6.1490   -2.7560 n1        1 GZC     -0.323000
     14 CAN        -1.6200   -3.6860    0.6520 c1        1 GZC     -0.121000
     15 CAO        -0.5890   -2.8080    0.9600 c1        1 GZC     -0.013000
     16 CAP         0.4120   -2.5700    0.0410 c1        1 GZC     -0.013000
     17 OAQ         1.5020   -1.7540    0.3860 o         1 GZC     -0.249000
     18 OAR         2.7770    2.1680    3.1110 oh        1 GZC     -0.242000
     19 CAS         2.2520    2.9420    2.0370 c1        1 GZC      0.081000
     20 CAT         0.8730    3.1580    1.9400 c1        1 GZC     -0.092000
     21 CAU         0.3550    3.9160    0.8850 c2        1 GZC     -0.126000
     22 NAV         2.0060    6.9140   -2.0650 n1        1 GZC     -0.296000
     23 CAW        -0.5080   -2.1880    2.3480 c1        1 GZC     -0.015000
     24 NAX        -0.9890   -0.9640    2.5590 n1        1 GZC     -0.176000
     25 CAY        -1.5850   -0.2250    1.4710 c2        1 GZC     -0.097000
     26 CAZ        -1.0020    1.1950    1.4330 c3        1 GZC     -0.089000
     27 NBA        -0.9200    1.7040    2.7410 n2        1 GZC     -0.176000
     28 CBB        -0.0570    2.6250    3.0240 c1        1 GZC     -0.002000
     29 HNAA       -3.8630   -7.6490   -1.4170 hn        1 GZC      0.189000
     30 HNAB       -3.5720   -7.6390   -2.9760 hn        1 GZC      0.189000
     31 HNAC       -3.4150   -5.3030   -0.3760 hn        1 GZC      0.200000
     32 HAE        -0.6610   -4.5330   -2.3590 ha        1 GZC      0.143500
     33 HAF         1.0910   -3.0410   -1.8340 ha        1 GZC      0.143500
     34 HAG         4.0800    3.3320    1.1460 ha        1 GZC      0.138000
     35 HAH         3.1910    4.6240   -0.6530 ha        1 GZC      0.142000
     36 HNAJ       -0.2410    5.2660   -1.3190 hn        1 GZC      0.199000
     37 HNAL        2.2660    5.3870   -4.1070 hn        1 GZC      0.197000
     38 HNAD        1.7900    4.0600   -3.3820 hn        1 GZC      0.197000
     39 HNAM       -1.2990   -6.7640   -3.4430 DU        1 GZC      0.158500
     40 HAN        -2.3300   -3.8550    1.3040 ha        1 GZC      0.138000
     41 HOAQ        2.2550   -2.2340    0.3610 ho        1 GZC      0.221000
     42 HOAR        3.2120    2.7070    3.6840 ho        1 GZC      0.219000
     43 HAU        -0.6170    4.0680    0.8170 ha        1 GZC      0.141000
     44 HNAV        1.7750    7.3960   -1.3280 DU        1 GZC      0.158500
     45 HAW        -0.1040   -2.6900    3.0850 ha        1 GZC      0.159000
     46 HAY        -2.5580   -0.1770    1.6010 ha        1 GZC      0.090500
     47 HAYA       -1.3920   -0.6790    0.6260 ha        1 GZC      0.090500
     48 HAZ        -0.1050    1.1690    1.0350 h1        1 GZC      0.084000
     49 HAZA       -1.5840    1.7730    0.8930 h1        1 GZC      0.084000
     50 HBB        -0.0030    2.9760    3.9250 ha        1 GZC      0.158000
@<TRIPOS>BOND
     1    1    2 1   
     2    1   29 1   
     3    1   30 1   
     4    2   13 1   
     5    3    4 1   
     6    3   31 1   
     7    4   14 1   
     8    5    6 1   
     9    5   32 1   
    10    6   33 1   
    11    7   19 1   
    12    7   34 1   
    13    8    9 1   
    14    8   35 1   
    15    9   21 1   
    16   10   11 1   
    17   10   36 1   
    18   11   22 1   
    19   12   37 1   
    20   12   38 1   
    21   14   40 1   
    22   15   16 1   
    23   17   41 1   
    24   18   19 1   
    25   18   42 1   
    26   20   21 1   
    27   21   43 1   
    28   23   24 1   
    29   23   45 1   
    30   25   26 1   
    31   25   46 1   
    32   25   47 1   
    33   26   27 1   
    34   26   48 1   
    35   26   49 1   
    36   27   28 1   
    37   28   50 1   
@<TRIPOS>SUBSTRUCTURE
     1 GZC         1 TEMP              0 ****  ****    0 ROOT
