@<TRIPOS>MOLECULE
GZC
   50    51     1     0     0
SMALL
bcc


@<TRIPOS>ATOM
      1 NAA        -7.6400    3.7530   -0.7620 nh        1 GZC     -0.914800
      2 CAB        -6.7100    2.7760   -0.2700 c2        1 GZC      0.755100
      3 NAC        -7.0570    1.4120   -0.6070 nh        1 GZC     -0.701100
      4 CAD        -6.2530    0.3550   -0.1010 ca        1 GZC      0.067600
      5 CAE        -6.8390   -0.6860    0.6620 ca        1 GZC     -0.114500
      6 CAF        -6.0880   -1.7760    1.0550 ca        1 GZC     -0.161000
      7 CAG         6.1260   -1.7650   -0.9320 ca        1 GZC     -0.161000
      8 CAH         6.8710   -0.6830   -0.5060 ca        1 GZC     -0.114500
      9 CAI         6.2700    0.3520    0.2540 ca        1 GZC      0.067600
     10 NAJ         7.0490    1.4170    0.7620 nh        1 GZC     -0.701100
     11 CAK         6.7690    2.7870    0.4020 c2        1 GZC      0.755100
     12 NAL         5.5650    3.0370   -0.3200 nh        1 GZC     -0.914800
     13 NAM        -5.6460    3.0450    0.4430 n2        1 GZC     -0.868100
     14 CAN        -4.8930    0.2660   -0.4260 ca        1 GZC     -0.060000
     15 CAO        -4.1110   -0.8310   -0.0210 ca        1 GZC     -0.234900
     16 CAP        -4.7180   -1.8610    0.7200 ca        1 GZC      0.180100
     17 OAQ        -4.1000   -2.9920    1.1760 oh        1 GZC     -0.502600
     18 CAS         4.7490   -1.8510   -0.6270 ca        1 GZC      0.180100
     19 CAT         4.1310   -0.8370    0.1270 ca        1 GZC     -0.234900
     20 CAU         4.9060    0.2510    0.5660 ca        1 GZC     -0.060000
     21 NAV         7.5000    3.8020    0.7960 n2        1 GZC     -0.868100
     22 CAW        -2.6960   -0.7990   -0.4090 ce        1 GZC      0.503800
     23 NAX        -1.8530   -1.7360   -0.1430 n2        1 GZC     -0.651400
     24 CAY        -0.4870   -1.6420   -0.5830 c3        1 GZC      0.118300
     25 CAZ         0.5000   -1.6660    0.6100 c3        1 GZC      0.118300
     26 NBA         1.8660   -1.7290    0.1670 n2        1 GZC     -0.651400
     27 CBB         2.7140   -0.8230    0.5110 ce        1 GZC      0.503800
     28 HNAA       -7.2160    4.6330   -0.9670 hn        1 GZC      0.397800
     29 HNAB       -8.2320    3.4460   -1.5020 hn        1 GZC      0.397800
     30 HNAC       -8.0320    1.2370   -0.4420 hn        1 GZC      0.407300
     31 HAE        -7.9020   -0.6380    0.9440 ha        1 GZC      0.134500
     32 HAF        -6.5380   -2.5920    1.6410 ha        1 GZC      0.155000
     33 HAG         6.5870   -2.5750   -1.5160 ha        1 GZC      0.155000
     34 HAH         7.9440   -0.6380   -0.7540 ha        1 GZC      0.134500
     35 HNAJ        8.0270    1.2100    0.7840 hn        1 GZC      0.407300
     36 HNAL        5.3870    2.3810   -1.0490 hn        1 GZC      0.397800
     37 HNAD        5.4670    3.9870   -0.6130 hn        1 GZC      0.397800
     38 HNAM       -5.4440    4.0130    0.5660 hn        1 GZC      0.394900
     39 HAN        -4.4140    1.0730   -1.0050 ha        1 GZC      0.152500
     40 HOAQ       -3.1650   -2.9860    0.9130 ho        1 GZC      0.460000
     41 HOAR        3.2010   -2.9760   -0.8600 ho        1 GZC      0.460000
     42 HAU         4.4250    1.0390    1.1710 ha        1 GZC      0.152500
     43 HNAV        8.2670    3.5860    1.3920 hn        1 GZC      0.394900
     44 HAW        -2.4150    0.1250   -0.9700 h4        1 GZC     -0.021200
     45 HAY        -0.3000   -2.5460   -1.2330 h1        1 GZC      0.053700
     46 HAYA       -0.2790   -0.7230   -1.2050 h1        1 GZC      0.053700
     47 HAZ         0.2850   -0.7800    1.2760 h1        1 GZC      0.053700
     48 HAZA        0.3200   -2.6020    1.2160 h1        1 GZC      0.053700
     49 HBB         2.4380    0.0550    1.1440 h4        1 GZC     -0.021200
     50 OAR         4.1360   -2.9660   -1.1250 oh        1 GZC     -0.502600
@<TRIPOS>BOND
     1    1    2 1   
     2    1   28 1   
     3    1   29 1   
     4    2    3 1   
     5    2   13 2   
     6    3    4 1   
     7    3   30 1   
     8    4    5 ar  
     9    4   14 ar  
    10    5    6 ar  
    11    5   31 1   
    12    6   16 ar  
    13    6   32 1   
    14    7    8 ar  
    15    7   18 ar  
    16    7   33 1   
    17    8    9 ar  
    18    8   34 1   
    19    9   10 1   
    20    9   20 ar  
    21   10   11 1   
    22   10   35 1   
    23   11   12 1   
    24   11   21 2   
    25   12   36 1   
    26   12   37 1   
    27   13   38 1   
    28   14   15 ar  
    29   14   39 1   
    30   15   16 ar  
    31   15   22 1   
    32   16   17 1   
    33   17   40 1   
    34   18   19 ar  
    35   18   50 1   
    36   19   20 ar  
    37   19   27 1   
    38   20   42 1   
    39   21   43 1   
    40   22   23 2   
    41   22   44 1   
    42   23   24 1   
    43   24   25 1   
    44   24   45 1   
    45   24   46 1   
    46   25   26 1   
    47   25   47 1   
    48   25   48 1   
    49   26   27 2   
    50   27   49 1   
    51   41   50 1   
@<TRIPOS>SUBSTRUCTURE
     1 GZC         1 TEMP              0 ****  ****    0 ROOT
