@<TRIPOS>MOLECULE
GZC
   52    50     1     0     0
SMALL
bcc


@<TRIPOS>ATOM
      1 NAA      -160.6620   56.4370  243.8960 nz        1 GZC     -0.053000
      2 CAB      -159.9110   55.9610  242.6570 c2        1 GZC      0.077000
      3 NAC      -158.5030   55.8620  242.8940 nu        1 GZC     -0.236000
      4 CAD      -157.7890   55.1140  241.9060 ca        1 GZC     -0.135000
      5 CAE      -157.1800   55.7570  240.8000 ca        1 GZC     -0.095000
      6 CAF      -156.4340   55.0260  239.9010 ca        1 GZC     -0.159000
      7 CAG       184.8600  -64.8810 -265.3560 c1        1 GZC     -0.141000
      8 CAH       184.7840  -64.0430 -266.2070 c1        1 GZC     -0.154000
      9 CAI       184.6900  -63.0120 -267.1730 c2        1 GZC      0.138000
     10 NAJ       184.3580  -63.3940 -268.5170 n7        1 GZC     -0.172000
     11 CAK       184.9960  -64.4590 -269.0530 c1        1 GZC      0.096000
     12 NAL       186.3440  -67.9380 -270.5400 n+        1 GZC     -0.122000
     13 NAM      -160.6760   55.6260  241.6780 n2        1 GZC     -0.220000
     14 CAN      -157.6200   53.7330  242.0810 ca        1 GZC     -0.028000
     15 CAO      -156.8670   52.9760  241.1730 ca        1 GZC     -0.149000
     16 CAP      -156.2700   53.6270  240.0720 ca        1 GZC      0.185000
     17 OAQ      -155.5210   53.0380  239.1070 oh        1 GZC     -0.229000
     18 CAS       183.8000  -59.5940 -266.1560 c3        1 GZC      0.147000
     19 CAT       184.9610  -60.4920 -266.5130 c2        1 GZC     -0.059000
     20 CAU       184.8390  -61.7380 -266.8560 c1        1 GZC     -0.191000
     21 NAV       185.4500  -65.4340 -269.5150 n1        1 GZC     -0.273000
     22 CAW      -156.7450   51.5360  241.4500 c2        1 GZC     -0.030000
     23 NAX      -156.1160   50.7220  240.6790 n2        1 GZC     -0.210000
     24 CAY      -156.0070   49.3320  240.9690 c3        1 GZC     -0.150000
     25 CAZ       184.3350  -57.0500 -268.5550 c1        1 GZC     -0.218000
     26 NBA       183.7800  -57.9020 -267.9610 n2        1 GZC      0.135000
     27 CBB       183.2550  -58.9460 -267.3850 c2        1 GZC     -0.382000
     28 HNAA     -160.4110   55.8350  244.6890 hn        1 GZC      0.270000
     29 HNAB     -160.4000   57.4040  244.1030 hn        1 GZC      0.270000
     30 HNAC     -158.0710   56.7520  243.0750 hn        1 GZC      0.219000
     31 HAE      -157.2830   56.8440  240.6560 ha        1 GZC      0.143000
     32 HAF      -155.9470   55.5090  239.0380 ha        1 GZC      0.178000
     33 HAG       182.9710  -60.1990 -265.6870 h1        1 GZC      0.102000
     34 HAH       184.9240  -65.6160 -264.5920 ha        1 GZC      0.237000
     35 HNAJ      184.2310  -62.6240 -269.1520 hn        1 GZC      0.254000
     36 HNAL      187.2070  -68.2020 -270.0630 hn        1 GZC      0.270250
     37 HNAD      185.6270  -68.6420 -270.3660 hn        1 GZC      0.270250
     38 HNAM     -160.2510   55.3110  240.8280 hn        1 GZC      0.244000
     39 HAN      -158.0750   53.2240  242.9480 ha        1 GZC      0.146000
     40 HOAQ     -155.4270   52.0810  239.2770 ho        1 GZC      0.279000
     41 HOAR      184.3380  -59.0180 -264.3850 ho        1 GZC      0.208000
     42 HAU       185.9540  -60.0040 -266.4780 ha        1 GZC      0.168000
     43 HNAV      186.0150  -67.0090 -270.1730 hn        1 GZC      0.270250
     44 HAW      -157.2480   51.2200  242.3930 h4        1 GZC      0.111000
     45 HAY      -156.4450   48.7630  240.1030 h1        1 GZC      0.101000
     46 HAYA     -156.5170   49.0010  241.9140 h1        1 GZC      0.101000
     47 HAZ      -154.9140   49.0780  241.0400 h1        1 GZC      0.101000
     48 HAZA      184.6440  -56.0930 -268.9090 ha        1 GZC      0.293000
     49 HBB       182.3150  -59.3370 -267.7970 h4        1 GZC      0.171000
     50 HAA3     -161.6770   56.3850  243.7360 hn        1 GZC      0.270000
     51 HAL3      186.5160  -67.8640 -271.5430 hn        1 GZC      0.270250
     52 OAR       184.2540  -58.5970 -265.2490 oh        1 GZC     -0.318000
@<TRIPOS>BOND
     1    1    2 1   
     2    1   28 1   
     3    1   29 1   
     4    1   50 1   
     5    2    3 1   
     6    2   13 1   
     7    3    4 1   
     8    3   30 1   
     9    4    5 1   
    10    4   14 1   
    11    5    6 1   
    12    5   31 1   
    13    6   16 1   
    14    6   32 1   
    15    7    8 1   
    16    7   34 1   
    17    8    9 1   
    18    9   10 1   
    19    9   20 1   
    20   10   11 1   
    21   10   35 1   
    22   11   21 1   
    23   12   36 1   
    24   12   37 1   
    25   12   43 1   
    26   12   51 1   
    27   13   38 1   
    28   14   15 1   
    29   14   39 1   
    30   15   16 1   
    31   15   22 1   
    32   16   17 1   
    33   17   40 1   
    34   18   19 1   
    35   18   27 1   
    36   18   33 1   
    37   18   52 1   
    38   19   20 1   
    39   19   42 1   
    40   22   23 1   
    41   22   44 1   
    42   23   24 1   
    43   24   45 1   
    44   24   46 1   
    45   24   47 1   
    46   25   26 1   
    47   25   48 1   
    48   26   27 1   
    49   27   49 1   
    50   41   52 1   
@<TRIPOS>SUBSTRUCTURE
     1 GZC         1 TEMP              0 ****  ****    0 ROOT
