@<TRIPOS>MOLECULE
GZC
   54    51     1     0     0
SMALL
bcc


@<TRIPOS>ATOM
      1 NAA     -1848.9280  387.5620 -245.0770 n4        1 GZC     -0.126000
      2 CAB     -1848.5680  386.2970 -244.3320 c2        1 GZC     -0.006000
      3 NAC        26.6030  111.7720  945.7100 n2        1 GZC     -0.047000
      4 CAD        27.7620  111.4860  945.2140 ca        1 GZC     -0.056000
      5 CAE        29.0690  111.8510  945.7940 ca        1 GZC     -0.018000
      6 CAF        30.2330  111.5080  945.2030 ca        1 GZC     -0.199000
      7 CAG       560.2340 -205.2860 -658.6950 c1        1 GZC     -0.028000
      8 CAH       560.1300 -205.8700 -657.6540 c1        1 GZC     -0.260000
      9 CAI       560.0300 -206.5990 -656.4480 c2        1 GZC      0.135000
     10 NAJ       559.4520 -205.8990 -655.3300 n3        1 GZC     -0.173000
     11 CAK       559.0070 -204.6650 -655.4320 c1        1 GZC      0.329000
     12 NAL       561.9480 -211.2220 -659.7490 n4        1 GZC     -0.134000
     13 NAM     -1847.4450  385.7670 -244.1600 n2        1 GZC     -0.123000
     14 CAN        27.8110  110.7220  943.9490 ca        1 GZC      0.084000
     15 CAO        28.9870  110.3740  943.3510 ca        1 GZC     -0.194000
     16 CAP        30.2390  110.7590  943.9630 ca        1 GZC      0.358000
     17 OAQ        31.4370  110.4870  943.4900 oh        1 GZC     -0.144000
     18 CAS       562.5130 -208.9870 -657.0580 c2        1 GZC      0.212000
     19 CAT       561.0600 -208.6850 -657.3780 c3        1 GZC     -0.077000
     20 CAU       560.4460 -207.8790 -656.2840 c2        1 GZC     -0.133000
     21 NAV       558.4600 -203.6270 -655.5620 n2        1 GZC     -0.097000
     22 CAW        28.9400  109.6100  942.0860 c2        1 GZC     -0.035000
     23 NAX        30.0140  109.2550  941.4770 n2        1 GZC     -0.223000
     24 CAY        30.0120  108.5190  940.2590 c3        1 GZC     -0.153000
     25 CAZ       560.0310 -211.8070 -656.0420 c1        1 GZC     -0.057000
     26 NBA       560.1230 -210.8910 -656.7580 n2        1 GZC      0.092000
     27 CBB       560.2860 -209.9330 -657.6800 c2        1 GZC     -0.463000
     28 HNAA    -1849.5870  387.3320 -245.8290 hn        1 GZC      0.259000
     29 HNAB    -1849.3850  388.2140 -244.4280 hn        1 GZC      0.259000
     30 HNAC       26.5830  112.2900  946.5670 hn        1 GZC      0.197000
     31 HAE        29.0710  112.4240  946.7420 ha        1 GZC      0.187000
     32 HAF        31.2160  111.7790  945.6340 ha        1 GZC      0.207000
     33 HAG       562.9750 -208.4110 -656.2270 h4        1 GZC      0.137000
     34 HAH       560.3240 -204.7590 -659.6210 ha        1 GZC      0.266000
     35 HNAJ      559.2900 -206.3970 -654.4680 hn        1 GZC      0.315000
     36 HNAL      562.9400 -211.1160 -659.5080 hn        1 GZC      0.263500
     37 HNAD      561.7030 -212.2100 -659.7520 hn        1 GZC      0.263500
     38 HNAM    -1846.5690  386.1000 -244.4960 hn        1 GZC      0.233000
     39 HAN        26.8400  110.4360  943.4930 ha        1 GZC      0.201000
     40 HOAQ       31.4120  109.9700  942.6340 ho        1 GZC      0.334000
     41 HOAR      561.3780 -210.7030 -659.0150 hn        1 GZC      0.263500
     42 HAU       561.0630 -208.0850 -658.3400 hc        1 GZC      0.147000
     43 HNAV      558.4520 -202.6350 -655.5030 hn        1 GZC      0.395000
     44 HAW        27.9090  109.3840  941.7320 h4        1 GZC      0.148000
     45 HAY        30.5620  109.1260  939.4870 h1        1 GZC      0.118000
     46 HAYA       28.9910  108.2670  939.8630 h1        1 GZC      0.118000
     47 HAZ        30.5830  107.5650  940.4310 h1        1 GZC      0.118000
     48 HAZA      559.9370 -212.6540 -655.3850 ha        1 GZC      0.338000
     49 HBB       559.4160 -209.8120 -658.3530 h4        1 GZC      0.169000
     50 HAA3    -1848.1160  388.0310 -245.4890 hn        1 GZC      0.259000
     51 HAC2    -1849.4970  385.8360 -243.9080 hx        1 GZC      0.244000
     52 HAJ2      560.3450 -208.3990 -655.3150 ha        1 GZC      0.153000
     53 HAL3      561.7770 -210.8280 -660.6720 hn        1 GZC      0.263500
     54 OAR       563.1490 -209.8150 -657.7130 o         1 GZC     -0.321000
@<TRIPOS>BOND
     1    1    2 1   
     2    1   28 1   
     3    1   29 1   
     4    1   50 1   
     5    2   13 1   
     6    2   51 1   
     7    3    4 1   
     8    3   30 1   
     9    4    5 1   
    10    4   14 1   
    11    5    6 1   
    12    5   31 1   
    13    6   16 1   
    14    6   32 1   
    15    7    8 1   
    16    7   34 1   
    17    8    9 1   
    18    9   10 1   
    19    9   20 1   
    20   10   11 1   
    21   10   35 1   
    22   11   21 1   
    23   12   36 1   
    24   12   37 1   
    25   12   41 1   
    26   12   53 1   
    27   13   38 1   
    28   14   15 1   
    29   14   39 1   
    30   15   16 1   
    31   15   22 1   
    32   16   17 1   
    33   17   40 1   
    34   18   19 1   
    35   18   33 1   
    36   18   54 1   
    37   19   20 1   
    38   19   27 1   
    39   19   42 1   
    40   20   52 1   
    41   21   43 1   
    42   22   23 1   
    43   22   44 1   
    44   23   24 1   
    45   24   45 1   
    46   24   46 1   
    47   24   47 1   
    48   25   26 1   
    49   25   48 1   
    50   26   27 1   
    51   27   49 1   
@<TRIPOS>SUBSTRUCTURE
     1 GZC         1 TEMP              0 ****  ****    0 ROOT
