@<TRIPOS>MOLECULE
GZL
   24    24     1     0     0
SMALL
bcc


@<TRIPOS>ATOM
      1 C1         -2.2870   -0.5780   -1.2800 c3        1 GZL      0.097400
      2 C2         -0.7380   -0.4390   -1.3020 c3        1 GZL      0.151100
      3 C3         -0.2050   -0.5880    0.0900 c3        1 GZL      0.148100
      4 C4          1.0960   -0.4910    0.0960 c3        1 GZL      0.136100
      5 C5          1.4920    0.2380    1.5010 c3        1 GZL      0.078100
      6 O1         -2.8040   -0.2110   -2.5250 oh        1 GZL     -0.615800
      7 O2         -0.1970   -1.4220   -2.1160 oh        1 GZL     -0.605800
      8 O3         -0.7240    0.6360    1.0190 os        1 GZL     -0.452600
      9 O4          1.5340    0.3170   -1.0200 oh        1 GZL     -0.584800
     10 C6          0.5270    1.1710    1.7280 c3        1 GZL      0.303900
     11 O5          2.7480    0.8520    1.3910 oh        1 GZL     -0.594800
     12 O6          0.2850    1.3100    3.1260 oh        1 GZL     -0.626800
     13 H11        -2.6730    0.0270   -0.5610 h1        1 GZL      0.041700
     14 H12        -2.5390   -1.5500   -1.0800 h1        1 GZL      0.041700
     15 H1         -3.7130   -0.0650   -2.4510 ho        1 GZL      0.407000
     16 H21        -0.4880    0.4670   -1.6600 h1        1 GZL      0.083700
     17 H31        -0.4670   -1.3980    0.4490 h1        1 GZL      0.071700
     18 H2         -0.1270   -1.1110   -2.9500 ho        1 GZL      0.424000
     19 H41         1.5060   -1.3870    0.0500 h1        1 GZL      0.065700
     20 H4          2.3100    0.0580   -1.2750 ho        1 GZL      0.426000
     21 H51         1.5010   -0.4260    2.2380 h1        1 GZL      0.075700
     22 H61         0.7960    2.0440    1.3370 h2        1 GZL      0.078700
     23 H5          3.3210    0.4380    1.9090 ho        1 GZL      0.420000
     24 H6         -0.1510    2.1090    3.2860 ho        1 GZL      0.430000
@<TRIPOS>BOND
     1    1    2 1   
     2    1    6 1   
     3    1   13 1   
     4    1   14 1   
     5    2    3 1   
     6    2    7 1   
     7    2   16 1   
     8    3    4 1   
     9    3    8 1   
    10    3   17 1   
    11    4    5 1   
    12    4    9 1   
    13    4   19 1   
    14    5   10 1   
    15    5   11 1   
    16    5   21 1   
    17    6   15 1   
    18    7   18 1   
    19    8   10 1   
    20    9   20 1   
    21   10   12 1   
    22   10   22 1   
    23   11   23 1   
    24   12   24 1   
@<TRIPOS>SUBSTRUCTURE
     1 GZL         1 TEMP              0 ****  ****    0 ROOT
