@<TRIPOS>MOLECULE
GZL
   24    24     1     0     0
SMALL
bcc


@<TRIPOS>ATOM
      1 C1         -0.0420   -0.0960    0.1140 c3        1 GZL      0.093400
      2 C2          1.4860   -0.0600    0.0050 c3        1 GZL      0.136100
      3 C3          2.1130   -0.1170    1.4030 c3        1 GZL      0.145100
      4 C4          3.6400    0.0920    1.3670 c3        1 GZL      0.121100
      5 C5          3.9200    1.1950    2.4120 c3        1 GZL      0.053100
      6 O1         -0.5350   -0.0070   -1.2150 oh        1 GZL     -0.616800
      7 O2          1.9240    1.1230   -0.6400 oh        1 GZL     -0.601800
      8 O3          1.5370    0.8930    2.2410 os        1 GZL     -0.441600
      9 O4          4.2430   -1.1310    1.7420 oh        1 GZL     -0.596800
     10 C6          2.5290    1.7840    2.7420 c3        1 GZL      0.310900
     11 O5          4.7800    2.1450    1.8200 oh        1 GZL     -0.583800
     12 O6          2.2720    1.8520    4.1170 oh        1 GZL     -0.604800
     13 H11        -0.4020    0.7700    0.7300 h1        1 GZL      0.047700
     14 H12        -0.3750   -1.0590    0.5810 h1        1 GZL      0.047700
     15 H1         -1.4820    0.1550   -1.1500 ho        1 GZL      0.411000
     16 H21         1.8450   -0.9510   -0.5850 h1        1 GZL      0.055700
     17 H31         1.8550   -1.1070    1.8740 h1        1 GZL      0.082700
     18 H2          1.3750    1.2280   -1.4300 ho        1 GZL      0.424000
     19 H41         3.9870    0.4190    0.3490 h1        1 GZL      0.097700
     20 H4          5.1910   -1.0280    1.5950 ho        1 GZL      0.415000
     21 H51         4.3940    0.7650    3.3370 h1        1 GZL      0.065700
     22 H61         2.3690    2.8130    2.3240 h2        1 GZL      0.105700
     23 H5          4.8580    2.8770    2.4450 ho        1 GZL      0.413000
     24 H6          2.0720    0.9600    4.4340 ho        1 GZL      0.420000
@<TRIPOS>BOND
     1    1    2 1   
     2    1    6 1   
     3    1   13 1   
     4    1   14 1   
     5    2    3 1   
     6    2    7 1   
     7    2   16 1   
     8    3    4 1   
     9    3    8 1   
    10    3   17 1   
    11    4    5 1   
    12    4    9 1   
    13    4   19 1   
    14    5   10 1   
    15    5   11 1   
    16    5   21 1   
    17    6   15 1   
    18    7   18 1   
    19    8   10 1   
    20    9   20 1   
    21   10   12 1   
    22   10   22 1   
    23   11   23 1   
    24   12   24 1   
@<TRIPOS>SUBSTRUCTURE
     1 GZL         1 TEMP              0 ****  ****    0 ROOT
