@<TRIPOS>MOLECULE
GZL
   24    24     1     0     0
SMALL
bcc


@<TRIPOS>ATOM
      1 C1         -0.0480   -0.1420    0.1670 c3        1 GZL      0.094400
      2 C2          1.4740   -0.0760    0.0090 c3        1 GZL      0.139100
      3 C3          2.1470   -0.0870    1.3860 c3        1 GZL      0.151100
      4 C4          3.6700    0.1440    1.2970 c3        1 GZL      0.123100
      5 C5          3.9840    1.1780    2.4020 c3        1 GZL      0.079100
      6 O1         -0.5820   -0.1110   -1.1480 oh        1 GZL     -0.615800
      7 O2          1.8660    1.1000   -0.6790 oh        1 GZL     -0.599800
      8 O3          1.5870    0.9490    2.2050 os        1 GZL     -0.449600
      9 O4          4.3030   -1.0930    1.5560 oh        1 GZL     -0.593800
     10 C6          2.6040    1.7530    2.7920 c3        1 GZL      0.311900
     11 O5          4.8320    2.1620    1.8480 oh        1 GZL     -0.587800
     12 O6          2.4190    1.6170    4.1800 oh        1 GZL     -0.624800
     13 H11        -0.3440   -1.0950    0.6790 h1        1 GZL      0.045700
     14 H12        -0.4090    0.7380    0.7620 h1        1 GZL      0.045700
     15 H1         -1.5350    0.0050   -1.0590 ho        1 GZL      0.410000
     16 H21         1.8350   -0.9750   -0.5690 h1        1 GZL      0.057700
     17 H31         1.9230   -1.0660    1.8940 h1        1 GZL      0.080700
     18 H2          1.2960    1.1670   -1.4570 ho        1 GZL      0.423000
     19 H41         3.9660    0.5460    0.2890 h1        1 GZL      0.096700
     20 H4          5.2460   -0.9570    1.4040 ho        1 GZL      0.415000
     21 H51         4.4700    0.6900    3.2900 h1        1 GZL      0.079700
     22 H61         2.4530    2.8180    2.4700 h2        1 GZL      0.077700
     23 H5          4.9940    2.8120    2.5430 ho        1 GZL      0.412000
     24 H6          1.4880    1.4090    4.3390 ho        1 GZL      0.431000
@<TRIPOS>BOND
     1    1    2 1   
     2    1    6 1   
     3    1   13 1   
     4    1   14 1   
     5    2    3 1   
     6    2    7 1   
     7    2   16 1   
     8    3    4 1   
     9    3    8 1   
    10    3   17 1   
    11    4    5 1   
    12    4    9 1   
    13    4   19 1   
    14    5   10 1   
    15    5   11 1   
    16    5   21 1   
    17    6   15 1   
    18    7   18 1   
    19    8   10 1   
    20    9   20 1   
    21   10   12 1   
    22   10   22 1   
    23   11   23 1   
    24   12   24 1   
@<TRIPOS>SUBSTRUCTURE
     1 GZL         1 TEMP              0 ****  ****    0 ROOT
