@<TRIPOS>MOLECULE
GZL
   24    24     1     0     0
SMALL
bcc


@<TRIPOS>ATOM
      1 C1          2.7380    0.6540    0.2110 c3        1 GZL      0.096400
      2 C2          1.6640   -0.4040   -0.0740 c3        1 GZL      0.140100
      3 C3          0.3180    0.2680   -0.3670 c3        1 GZL      0.104100
      4 C4         -0.7540   -0.7350   -0.8350 c3        1 GZL      0.118100
      5 C5         -2.0170   -0.3860   -0.0140 c3        1 GZL      0.049100
      6 O1          3.0510    1.2690   -1.0270 oh        1 GZL     -0.600800
      7 O2          1.5810   -1.3060    1.0100 oh        1 GZL     -0.590800
      8 O3         -0.1480    0.8740    0.8520 os        1 GZL     -0.452600
      9 O4         -0.9720   -0.5170   -2.2140 oh        1 GZL     -0.587800
     10 C6         -1.5220    0.5860    1.0830 c3        1 GZL      0.306900
     11 O5         -2.5180   -1.5860    0.5350 oh        1 GZL     -0.585800
     12 O6         -2.1660    1.8290    1.0460 oh        1 GZL     -0.605800
     13 H11         2.3480    1.4130    0.9400 h1        1 GZL      0.039700
     14 H12         3.6480    0.1550    0.6400 h1        1 GZL      0.039700
     15 H1          3.7150    1.9420   -0.8370 ho        1 GZL      0.406000
     16 H21         1.9640   -1.0320   -0.9590 h1        1 GZL      0.099700
     17 H31         0.4660    1.0870   -1.1240 h1        1 GZL      0.098700
     18 H2          1.2200   -0.8150    1.7620 ho        1 GZL      0.412000
     19 H41        -0.4360   -1.7930   -0.6330 h1        1 GZL      0.089700
     20 H4         -1.5070   -1.2570   -2.5290 ho        1 GZL      0.414000
     21 H51        -2.7930    0.1110   -0.6570 h1        1 GZL      0.071700
     22 H61        -1.6410    0.1860    2.1250 h2        1 GZL      0.103700
     23 H5         -3.3090   -1.3540    1.0380 ho        1 GZL      0.412000
     24 H6         -1.8280    2.3250    0.2890 ho        1 GZL      0.421000
@<TRIPOS>BOND
     1    1    2 1   
     2    1    6 1   
     3    1   13 1   
     4    1   14 1   
     5    2    3 1   
     6    2    7 1   
     7    2   16 1   
     8    3    4 1   
     9    3    8 1   
    10    3   17 1   
    11    4    5 1   
    12    4    9 1   
    13    4   19 1   
    14    5   10 1   
    15    5   11 1   
    16    5   21 1   
    17    6   15 1   
    18    7   18 1   
    19    8   10 1   
    20    9   20 1   
    21   10   12 1   
    22   10   22 1   
    23   11   23 1   
    24   12   24 1   
@<TRIPOS>SUBSTRUCTURE
     1 GZL         1 TEMP              0 ****  ****    0 ROOT
