@<TRIPOS>MOLECULE
GZP
   33    35     1     0     0
SMALL
bcc


@<TRIPOS>ATOM
      1 C1          0.2860    0.2470   -0.1560 ca        1 GZP     -0.123000
      2 C2          1.6670    0.1460    0.0160 ca        1 GZP     -0.127000
      3 C6         -0.5570    0.1900    0.9530 ca        1 GZP     -0.127000
      4 C3          2.2060   -0.0130    1.2910 ca        1 GZP     -0.117000
      5 C5         -0.0260    0.0290    2.2300 ca        1 GZP     -0.117000
      6 C8          1.3470    0.1690    4.9830 cc        1 GZP     -0.269300
      7 C4          1.3620   -0.0750    2.4090 ca        1 GZP     -0.020000
      8 C7          1.8910   -0.2340    3.7490 cd        1 GZP     -0.058300
      9 C9          2.3100   -0.2560    5.9760 cc        1 GZP      0.270600
     10 C14         3.9210   -0.3390    9.1760 c3        1 GZP     -0.074900
     11 C15         3.1880   -1.6640    9.0280 c3        1 GZP     -0.074900
     12 C13         3.4140    0.5920    8.0860 c3        1 GZP     -0.082900
     13 C16         1.9520   -1.4100    8.1820 c3        1 GZP     -0.082900
     14 C12         2.1670   -0.0660    7.4560 c3        1 GZP      0.133500
     15 N11         3.1130   -0.8570    4.0580 na        1 GZP     -0.010600
     16 N10         3.3610   -0.8800    5.3620 nd        1 GZP     -0.496800
     17 O17         1.0060    0.7180    7.7250 oh        1 GZP     -0.593800
     18 H1         -0.1360    0.3730   -1.1640 ha        1 GZP      0.135000
     19 H2          2.3340    0.1950   -0.8570 ha        1 GZP      0.135500
     20 H6         -1.6470    0.2710    0.8210 ha        1 GZP      0.135500
     21 H3          3.2970   -0.0760    1.4100 ha        1 GZP      0.135000
     22 H5         -0.6920   -0.0210    3.1060 ha        1 GZP      0.135000
     23 H11         3.7380   -1.2850    3.4170 hn        1 GZP      0.321700
     24 H141        3.7190    0.1030   10.1840 hc        1 GZP      0.042950
     25 H142        5.0270   -0.4850    9.0910 hc        1 GZP      0.042950
     26 H151        2.9070   -2.0790   10.0270 hc        1 GZP      0.042950
     27 H152        3.8500   -2.4150    8.5260 hc        1 GZP      0.042950
     28 H131        3.1330    1.5860    8.5170 hc        1 GZP      0.056950
     29 H132        4.2070    0.7680    7.3190 hc        1 GZP      0.056950
     30 H161        1.0380   -1.3300    8.8250 hc        1 GZP      0.056950
     31 H162        1.7850   -2.2350    7.4490 hc        1 GZP      0.056950
     32 H17         1.1280    1.5660    7.2820 ho        1 GZP      0.401000
     33 H8          0.4080    0.6770    5.1690 ha        1 GZP      0.171000
@<TRIPOS>BOND
     1    1    2 ar  
     2    1    3 ar  
     3    1   18 1   
     4    2    4 ar  
     5    2   19 1   
     6    3    5 ar  
     7    3   20 1   
     8    4    7 ar  
     9    4   21 1   
    10    5    7 ar  
    11    5   22 1   
    12    6    8 2   
    13    6    9 1   
    14    6   33 1   
    15    7    8 1   
    16    8   15 1   
    17    9   14 1   
    18    9   16 2   
    19   10   11 1   
    20   10   12 1   
    21   10   24 1   
    22   10   25 1   
    23   11   13 1   
    24   11   26 1   
    25   11   27 1   
    26   12   14 1   
    27   12   28 1   
    28   12   29 1   
    29   13   14 1   
    30   13   30 1   
    31   13   31 1   
    32   14   17 1   
    33   15   16 1   
    34   15   23 1   
    35   17   32 1   
@<TRIPOS>SUBSTRUCTURE
     1 GZP         1 TEMP              0 ****  ****    0 ROOT
