@<TRIPOS>MOLECULE
GZZ
   66    63     1     0     0
SMALL
bcc


@<TRIPOS>ATOM
      1 NH1         4.3350    5.6990  -10.7710 n1        1 GZZ     -0.342000
      2 NH2         6.2860    5.3680   -9.4670 n3        1 GZZ     -0.346000
      3 CZ1         4.8790    5.5210   -9.5860 c2        1 GZZ      0.150500
      4 NE1         4.0410    5.4800   -8.4010 n3        1 GZZ     -0.303000
      5 C1          3.1200    4.3790   -8.2020 c3        1 GZZ     -0.057000
      6 C2          2.2480    4.6550   -6.9570 c3        1 GZZ     -0.167500
      7 C3          1.5750    3.3460   -6.5020 c3        1 GZZ     -0.157000
      8 C4          0.7860    3.5990   -5.1960 c3        1 GZZ     -0.157500
      9 C5          0.3670    2.2450   -4.5740 c3        1 GZZ     -0.158000
     10 C6         -0.1590    2.4760   -3.1370 c3        1 GZZ     -0.157000
     11 C7         -0.5410    1.1100   -2.5000 c3        1 GZZ     -0.162000
     12 C8         -0.6740    1.2750   -0.9690 c3        1 GZZ     -0.072000
     13 N9         -1.2320    0.0530   -0.3940 n3        1 GZZ     -0.304000
     14 C10        -0.8410   -0.0480    1.0070 c3        1 GZZ     -0.072000
     15 C11        -1.5660   -1.2500    1.6630 c3        1 GZZ     -0.162000
     16 C12        -0.9910   -1.4860    3.0850 c3        1 GZZ     -0.157000
     17 C13        -1.9350   -2.4220    3.8750 c3        1 GZZ     -0.158000
     18 C14        -1.2300   -2.8970    5.1640 c3        1 GZZ     -0.157500
     19 C15        -2.2470   -3.6380    6.0650 c3        1 GZZ     -0.157000
     20 C16        -1.4950   -4.3760    7.1920 c3        1 GZZ     -0.167500
     21 C17        -2.5130   -4.9580    8.1950 c3        1 GZZ     -0.057000
     22 NE2        -1.8150   -5.7270    9.2040 n3        1 GZZ     -0.303000
     23 CZ2        -2.5580   -6.5120   10.1540 c2        1 GZZ      0.150500
     24 NH3        -2.9180   -5.9510   11.4210 n3        1 GZZ     -0.346000
     25 NH4        -2.9070   -7.7460    9.8580 n1        1 GZZ     -0.342000
     26 HHN1        4.8580    5.7250  -11.5110 DU        1 GZZ      0.147000
     27 HH21        6.7910    5.1750  -10.2090 hn        1 GZZ      0.184750
     28 HH22        6.6940    5.5050   -8.6590 hn        1 GZZ      0.184750
     29 HN1E        4.0820    6.1510   -7.7940 hn        1 GZZ      0.188000
     30 HC11        2.5430    4.2880   -8.9930 h1        1 GZZ      0.086750
     31 HC12        3.6250    3.5520   -8.0700 h1        1 GZZ      0.086750
     32 HC21        2.8100    5.0000   -6.2350 hc        1 GZZ      0.085750
     33 HC22        1.5630    5.3120   -7.1780 hc        1 GZZ      0.085750
     34 HC31        2.2570    2.6680   -6.3430 hc        1 GZZ      0.083500
     35 HC32        0.9620    3.0350   -7.1980 hc        1 GZZ      0.083500
     36 HC41        1.3490    4.0860   -4.5650 hc        1 GZZ      0.080000
     37 HC42       -0.0130    4.1270   -5.3950 hc        1 GZZ      0.080000
     38 HC51        1.1380    1.6470   -4.5460 hc        1 GZZ      0.081000
     39 HC52       -0.3400    1.8400   -5.1190 hc        1 GZZ      0.081000
     40 HC61        0.5390    2.9050   -2.5990 hc        1 GZZ      0.080000
     41 HC62       -0.9500    3.0550   -3.1680 hc        1 GZZ      0.080000
     42 HC71       -1.3940    0.8040   -2.8710 hc        1 GZZ      0.086000
     43 HC72        0.1550    0.4520   -2.6980 hc        1 GZZ      0.086000
     44 HC81        0.2070    1.4440   -0.5820 h1        1 GZZ      0.067500
     45 HC82       -1.2680    2.0300   -0.7710 h1        1 GZZ      0.067500
     46 HN9        -2.1440    0.0760   -0.4540 hn        1 GZZ      0.150000
     47 H101        0.1270   -0.1790    1.0660 h1        1 GZZ      0.067500
     48 H102       -1.0870    0.7770    1.4740 h1        1 GZZ      0.067500
     49 H111       -1.4300   -2.0510    1.1180 hc        1 GZZ      0.086000
     50 H112       -2.5220   -1.0580    1.7260 hc        1 GZZ      0.086000
     51 H121       -0.1080   -1.8990    3.0140 hc        1 GZZ      0.080000
     52 H122       -0.9140   -0.6310    3.5520 hc        1 GZZ      0.080000
     53 H131       -2.1620   -3.1970    3.3230 hc        1 GZZ      0.081000
     54 H132       -2.7510   -1.9390    4.1090 hc        1 GZZ      0.081000
     55 H141       -0.5000   -3.5030    4.9320 hc        1 GZZ      0.080000
     56 H142       -0.8710   -2.1220    5.6460 hc        1 GZZ      0.080000
     57 H151       -2.7460   -4.2840    5.5300 hc        1 GZZ      0.083500
     58 H152       -2.8680   -2.9910    6.4570 hc        1 GZZ      0.083500
     59 H161       -0.9040   -3.7500    7.6540 hc        1 GZZ      0.085750
     60 H162       -0.9660   -5.1000    6.8090 hc        1 GZZ      0.085750
     61 H171       -3.0060   -4.2220    8.6250 h1        1 GZZ      0.086750
     62 H172       -3.1440   -5.5400    7.7200 h1        1 GZZ      0.086750
     63 HN2E       -0.9040   -5.7010    9.2480 hn        1 GZZ      0.188000
     64 HH31       -3.6920   -6.2110   11.8330 hn        1 GZZ      0.184750
     65 HH32       -2.3490   -5.3680   11.8420 hn        1 GZZ      0.184750
     66 HHN4       -2.6780   -8.1030    9.0510 DU        1 GZZ      0.147000
@<TRIPOS>BOND
     1    1    3 1   
     2    2    3 1   
     3    2   27 1   
     4    2   28 1   
     5    3    4 1   
     6    4    5 1   
     7    4   29 1   
     8    5    6 1   
     9    5   30 1   
    10    5   31 1   
    11    6    7 1   
    12    6   32 1   
    13    6   33 1   
    14    7    8 1   
    15    7   34 1   
    16    7   35 1   
    17    8    9 1   
    18    8   36 1   
    19    8   37 1   
    20    9   10 1   
    21    9   38 1   
    22    9   39 1   
    23   10   11 1   
    24   10   40 1   
    25   10   41 1   
    26   11   12 1   
    27   11   42 1   
    28   11   43 1   
    29   12   13 1   
    30   12   44 1   
    31   12   45 1   
    32   13   14 1   
    33   13   46 1   
    34   14   15 1   
    35   14   47 1   
    36   14   48 1   
    37   15   16 1   
    38   15   49 1   
    39   15   50 1   
    40   16   17 1   
    41   16   51 1   
    42   16   52 1   
    43   17   18 1   
    44   17   53 1   
    45   17   54 1   
    46   18   19 1   
    47   18   55 1   
    48   18   56 1   
    49   19   20 1   
    50   19   57 1   
    51   19   58 1   
    52   20   21 1   
    53   20   59 1   
    54   20   60 1   
    55   21   22 1   
    56   21   61 1   
    57   21   62 1   
    58   22   23 1   
    59   22   63 1   
    60   23   24 1   
    61   23   25 1   
    62   24   64 1   
    63   24   65 1   
@<TRIPOS>SUBSTRUCTURE
     1 GZZ         1 TEMP              0 ****  ****    0 ROOT
