@<TRIPOS>MOLECULE
GZZ
   66    65     1     0     0
SMALL
bcc


@<TRIPOS>ATOM
      1 NH1         1.4480    0.3100   12.6230 n2        1 GZZ     -0.873100
      2 NH2        -0.6910   -0.2590   13.4720 nh        1 GZZ     -0.912800
      3 CZ1         0.1670    0.1650   12.3960 c2        1 GZZ      0.747100
      4 NE1        -0.5120    0.4120   11.1510 nh        1 GZZ     -0.822200
      5 C1          0.2740    0.2700    9.9450 c3        1 GZZ      0.181800
      6 C2         -0.5800    0.2050    8.6790 c3        1 GZZ     -0.088400
      7 C3          0.3120    0.1120    7.4600 c3        1 GZZ     -0.078400
      8 C4         -0.5090    0.0450    6.1900 c3        1 GZZ     -0.078900
      9 C5          0.3800   -0.0470    4.9680 c3        1 GZZ     -0.079400
     10 C6         -0.4400   -0.1130    3.6970 c3        1 GZZ     -0.078400
     11 C7          0.4510   -0.2090    2.4780 c3        1 GZZ     -0.083400
     12 C8         -0.3990   -0.2720    1.2100 c3        1 GZZ      0.164800
     13 N9          0.3890   -0.4230    0.0040 n3        1 GZZ     -0.825200
     14 C10        -0.3990   -0.2980   -1.2070 c3        1 GZZ      0.164800
     15 C11         0.4520   -0.2480   -2.4740 c3        1 GZZ     -0.083400
     16 C12        -0.4380   -0.1820   -3.6960 c3        1 GZZ     -0.078400
     17 C13         0.3830   -0.1230   -4.9670 c3        1 GZZ     -0.079400
     18 C14        -0.5060   -0.0630   -6.1910 c3        1 GZZ     -0.078900
     19 C15         0.3160    0.0020   -7.4610 c3        1 GZZ     -0.078400
     20 C16        -0.5750    0.0580   -8.6840 c3        1 GZZ     -0.088400
     21 C17         0.2860    0.1290   -9.9460 c3        1 GZZ      0.181800
     22 NE2        -0.5170    0.2200  -11.1490 nh        1 GZZ     -0.822200
     23 CZ2         0.1790    0.2980  -12.4070 c2        1 GZZ      0.747100
     24 NH3        -0.6570    0.6030  -13.5320 nh        1 GZZ     -0.912800
     25 NH4         1.4850    0.2110  -12.4630 n2        1 GZZ     -0.873100
     26 HHN1        2.0150    0.5030   11.8270 hn        1 GZZ      0.393400
     27 HH21       -0.1980   -0.3330   14.3400 hn        1 GZZ      0.391550
     28 HH22       -1.4940    0.3280   13.5660 hn        1 GZZ      0.391550
     29 HN1E       -1.4060   -0.0300   11.0810 hn        1 GZZ      0.389800
     30 HC11        0.9550    1.1670    9.8750 h1        1 GZZ      0.046700
     31 HC12        0.9300   -0.6510    9.9780 h1        1 GZZ      0.046700
     32 HC21       -1.2580   -0.6880    8.7170 hc        1 GZZ      0.046450
     33 HC22       -1.2270    1.1170    8.6050 hc        1 GZZ      0.046450
     34 HC31        0.9930    1.0030    7.4210 hc        1 GZZ      0.043950
     35 HC32        0.9630   -0.7990    7.5350 hc        1 GZZ      0.043950
     36 HC41       -1.1900   -0.8460    6.2280 hc        1 GZZ      0.040700
     37 HC42       -1.1590    0.9560    6.1140 hc        1 GZZ      0.040700
     38 HC51        1.0620    0.8430    4.9300 hc        1 GZZ      0.041950
     39 HC52        1.0300   -0.9590    5.0430 hc        1 GZZ      0.041950
     40 HC61       -1.1220   -1.0030    3.7360 hc        1 GZZ      0.040950
     41 HC62       -1.0900    0.7980    3.6220 hc        1 GZZ      0.040950
     42 HC71        1.1330    0.6800    2.4400 hc        1 GZZ      0.046950
     43 HC72        1.0960   -1.1230    2.5510 hc        1 GZZ      0.046950
     44 HC81       -1.0860   -1.1630    1.2740 h1        1 GZZ      0.027700
     45 HC82       -1.0560    0.6490    1.1770 h1        1 GZZ      0.027700
     46 HN9         1.1550    0.2250   -0.0030 hn        1 GZZ      0.354800
     47 H101       -1.0780   -1.1960   -1.2560 h1        1 GZZ      0.027700
     48 H102       -1.0630    0.6180   -1.1890 h1        1 GZZ      0.027700
     49 H111        1.1260    0.6480   -2.4500 hc        1 GZZ      0.046950
     50 H112        1.1060   -1.1570   -2.5320 hc        1 GZZ      0.046950
     51 H121       -1.1090   -1.0810   -3.7230 hc        1 GZZ      0.040950
     52 H122       -1.1000    0.7230   -3.6340 hc        1 GZZ      0.040950
     53 H131        1.0500    0.7780   -4.9420 hc        1 GZZ      0.041950
     54 H132        1.0470   -1.0250   -5.0270 hc        1 GZZ      0.041950
     55 H141       -1.1700   -0.9670   -6.2180 hc        1 GZZ      0.040700
     56 H142       -1.1730    0.8370   -6.1280 hc        1 GZZ      0.040700
     57 H151        0.9780    0.9080   -7.4350 hc        1 GZZ      0.043950
     58 H152        0.9870   -0.8960   -7.5220 hc        1 GZZ      0.043950
     59 H161       -1.2320   -0.8500   -8.7110 hc        1 GZZ      0.046450
     60 H162       -1.2440    0.9560   -8.6220 hc        1 GZZ      0.046450
     61 H171        0.9360    1.0480   -9.8990 h1        1 GZZ      0.046700
     62 H172        0.9710   -0.7690   -9.9620 h1        1 GZZ      0.046700
     63 HN2E       -1.2420   -0.4710  -11.1720 hn        1 GZZ      0.389800
     64 HH31       -0.4090    0.1160  -14.3640 hn        1 GZZ      0.391550
     65 HH32       -1.6360    0.6120  -13.3620 hn        1 GZZ      0.391550
     66 HHN4        1.8910    0.3790  -13.3570 hn        1 GZZ      0.393400
@<TRIPOS>BOND
     1    1    3 2   
     2    1   26 1   
     3    2    3 1   
     4    2   27 1   
     5    2   28 1   
     6    3    4 1   
     7    4    5 1   
     8    4   29 1   
     9    5    6 1   
    10    5   30 1   
    11    5   31 1   
    12    6    7 1   
    13    6   32 1   
    14    6   33 1   
    15    7    8 1   
    16    7   34 1   
    17    7   35 1   
    18    8    9 1   
    19    8   36 1   
    20    8   37 1   
    21    9   10 1   
    22    9   38 1   
    23    9   39 1   
    24   10   11 1   
    25   10   40 1   
    26   10   41 1   
    27   11   12 1   
    28   11   42 1   
    29   11   43 1   
    30   12   13 1   
    31   12   44 1   
    32   12   45 1   
    33   13   14 1   
    34   13   46 1   
    35   14   15 1   
    36   14   47 1   
    37   14   48 1   
    38   15   16 1   
    39   15   49 1   
    40   15   50 1   
    41   16   17 1   
    42   16   51 1   
    43   16   52 1   
    44   17   18 1   
    45   17   53 1   
    46   17   54 1   
    47   18   19 1   
    48   18   55 1   
    49   18   56 1   
    50   19   20 1   
    51   19   57 1   
    52   19   58 1   
    53   20   21 1   
    54   20   59 1   
    55   20   60 1   
    56   21   22 1   
    57   21   61 1   
    58   21   62 1   
    59   22   23 1   
    60   22   63 1   
    61   23   24 1   
    62   23   25 2   
    63   24   64 1   
    64   24   65 1   
    65   25   66 1   
@<TRIPOS>SUBSTRUCTURE
     1 GZZ         1 TEMP              0 ****  ****    0 ROOT
