@<TRIPOS>MOLECULE
GZZ
   71    70     1     0     0
SMALL
bcc


@<TRIPOS>ATOM
      1 NH1        -0.1980    0.0530    0.0480 n2        1 GZZ     -0.583600
      2 NH2         1.7680   -0.0170   -1.4860 nz        1 GZZ     -0.848100
      3 CZ1         1.0580    0.0120   -0.1420 c2        1 GZZ      0.613100
      4 NE1         1.9970   -0.0130    1.0340 ny        1 GZZ     -0.765500
      5 C1          1.3030    0.0140    2.3930 c3        1 GZZ      0.116800
      6 C2          2.3230   -0.0140    3.5280 c3        1 GZZ     -0.114900
      7 C3          1.5710    0.0150    4.8540 c3        1 GZZ     -0.077400
      8 C4          2.5380   -0.0110    6.0250 c3        1 GZZ     -0.079400
      9 C5          1.7900    0.0170    7.3460 c3        1 GZZ     -0.079400
     10 C6          2.7470   -0.0080    8.5240 c3        1 GZZ     -0.077400
     11 C7          1.9850    0.0210    9.8390 c3        1 GZZ     -0.108900
     12 C8          2.9670   -0.0050   11.0080 c3        1 GZZ      0.103800
     13 N9          2.2830    0.0210   12.3410 ny        1 GZZ     -0.765000
     14 C10         3.2520   -0.0040   13.4820 c3        1 GZZ      0.103800
     15 C11         2.5630    0.0220   14.8440 c3        1 GZZ     -0.108900
     16 C12         3.6040   -0.0050   15.9510 c3        1 GZZ     -0.077400
     17 C13         2.9430    0.0190   17.3170 c3        1 GZZ     -0.079400
     18 C14         3.9770   -0.0070   18.4300 c3        1 GZZ     -0.079400
     19 C15         3.3090    0.0180   19.7940 c3        1 GZZ     -0.077400
     20 C16         4.3510   -0.0090   20.9050 c3        1 GZZ     -0.114900
     21 C17         3.6380    0.0170   22.2570 c3        1 GZZ      0.116800
     22 NE2         4.6230   -0.0070   23.4090 ny        1 GZZ     -0.765500
     23 CZ2         3.9520    0.0180   24.7610 c2        1 GZZ      0.613100
     24 NH3         4.9070   -0.0060   25.9270 nz        1 GZZ     -0.848100
     25 NH4         2.7120    0.0560   25.0420 n2        1 GZZ     -0.583600
     26 HHN1       -0.9070    0.0730   -0.6660 hn        1 GZZ      0.546900
     27 HH21        1.0680    0.0030   -2.2520 hn        1 GZZ      0.510133
     28 HH22        2.3820    0.8040   -1.6070 hn        1 GZZ      0.510133
     29 HN1E        2.6190    0.8090    0.9840 hn        1 GZZ      0.483800
     30 HC11        0.6250   -0.8870    2.4520 hx        1 GZZ      0.129200
     31 HC12        0.6830    0.9560    2.4450 hx        1 GZZ      0.129200
     32 HC21        2.9500   -0.9450    3.4810 hc        1 GZZ      0.082700
     33 HC22        3.0080    0.8740    3.4740 hc        1 GZZ      0.082700
     34 HC31        0.9410    0.9420    4.9100 hc        1 GZZ      0.067200
     35 HC32        0.8830   -0.8700    4.9170 hc        1 GZZ      0.067200
     36 HC41        3.2280    0.8720    5.9650 hc        1 GZZ      0.059200
     37 HC42        3.1710   -0.9370    5.9720 hc        1 GZZ      0.059200
     38 HC51        1.1560    0.9420    7.3970 hc        1 GZZ      0.057700
     39 HC52        1.0990   -0.8660    7.4040 hc        1 GZZ      0.057700
     40 HC61        3.4360    0.8760    8.4670 hc        1 GZZ      0.061700
     41 HC62        3.3790   -0.9330    8.4740 hc        1 GZZ      0.061700
     42 HC71        1.3540    0.9480    9.8820 hc        1 GZZ      0.071700
     43 HC72        1.2980   -0.8660    9.8890 hc        1 GZZ      0.071700
     44 HC81        3.5960   -0.9410   10.9640 hx        1 GZZ      0.111200
     45 HC82        3.6520    0.8900   10.9570 hx        1 GZZ      0.111200
     46 HN9         1.7050    0.8680   12.4060 hn        1 GZZ      0.453800
     47 H101        3.9300    0.8920   13.3760 hx        1 GZZ      0.111200
     48 H102        3.8750   -0.9400   13.3830 hx        1 GZZ      0.111200
     49 H111        1.9370    0.9490   14.9460 hc        1 GZZ      0.071700
     50 H112        1.8830   -0.8650   14.9530 hc        1 GZZ      0.071700
     51 H121        4.2330   -0.9300   15.8550 hc        1 GZZ      0.061700
     52 H122        4.2870    0.8790   15.8480 hc        1 GZZ      0.061700
     53 H131        2.3130    0.9440   17.4130 hc        1 GZZ      0.057700
     54 H132        2.2600   -0.8650   17.4190 hc        1 GZZ      0.057700
     55 H141        4.6600    0.8770   18.3280 hc        1 GZZ      0.059200
     56 H142        4.6060   -0.9310   18.3350 hc        1 GZZ      0.059200
     57 H151        2.6810    0.9440   19.8860 hc        1 GZZ      0.067200
     58 H152        2.6270   -0.8690   19.8920 hc        1 GZZ      0.067200
     59 H161        4.9730   -0.9380   20.8040 hc        1 GZZ      0.082700
     60 H162        5.0270    0.8810   20.7970 hc        1 GZZ      0.082700
     61 H171        2.9710   -0.8890   22.3500 hx        1 GZZ      0.129200
     62 H172        3.0260    0.9620   22.3430 hx        1 GZZ      0.129200
     63 HN2E        5.1940   -0.8630   23.3170 hn        1 GZZ      0.483800
     64 HH31        5.4720   -0.8710   25.9230 hn        1 GZZ      0.510133
     65 HH32        5.5220    0.8220   25.9170 hn        1 GZZ      0.510133
     66 HHN4        1.9590    0.0760   24.3780 hn        1 GZZ      0.546900
     67 HH23        2.3250   -0.8790   -1.6000 hn        1 GZZ      0.510133
     68 HE13        2.5660   -0.8740    0.9910 hn        1 GZZ      0.483800
     69 H92         1.6550   -0.7890   12.4130 hn        1 GZZ      0.453800
     70 HE23        5.2440    0.8120   23.3110 hn        1 GZZ      0.483800
     71 HH33        4.3610    0.0130   26.8210 hn        1 GZZ      0.510133
@<TRIPOS>BOND
     1    1    3 2   
     2    1   26 1   
     3    2    3 1   
     4    2   27 1   
     5    2   28 1   
     6    2   67 1   
     7    3    4 1   
     8    4    5 1   
     9    4   29 1   
    10    4   68 1   
    11    5    6 1   
    12    5   30 1   
    13    5   31 1   
    14    6    7 1   
    15    6   32 1   
    16    6   33 1   
    17    7    8 1   
    18    7   34 1   
    19    7   35 1   
    20    8    9 1   
    21    8   36 1   
    22    8   37 1   
    23    9   10 1   
    24    9   38 1   
    25    9   39 1   
    26   10   11 1   
    27   10   40 1   
    28   10   41 1   
    29   11   12 1   
    30   11   42 1   
    31   11   43 1   
    32   12   13 1   
    33   12   44 1   
    34   12   45 1   
    35   13   14 1   
    36   13   46 1   
    37   13   69 1   
    38   14   15 1   
    39   14   47 1   
    40   14   48 1   
    41   15   16 1   
    42   15   49 1   
    43   15   50 1   
    44   16   17 1   
    45   16   51 1   
    46   16   52 1   
    47   17   18 1   
    48   17   53 1   
    49   17   54 1   
    50   18   19 1   
    51   18   55 1   
    52   18   56 1   
    53   19   20 1   
    54   19   57 1   
    55   19   58 1   
    56   20   21 1   
    57   20   59 1   
    58   20   60 1   
    59   21   22 1   
    60   21   61 1   
    61   21   62 1   
    62   22   23 1   
    63   22   63 1   
    64   22   70 1   
    65   23   24 1   
    66   23   25 2   
    67   24   64 1   
    68   24   65 1   
    69   24   71 1   
    70   25   66 1   
@<TRIPOS>SUBSTRUCTURE
     1 GZZ         1 TEMP              0 ****  ****    0 ROOT
