@<TRIPOS>MOLECULE
Z
   30    31     1     0     0
SMALL
bcc


@<TRIPOS>ATOM
      1 P          -4.0150   -0.1660    3.8070 p5        1 Z        1.438800
      2 OP1        -4.7210   -0.1140    5.1050 o         1 Z       -0.849500
      3 OP2        -4.8890   -1.2640    2.9650 oh        1 Z       -0.785400
      4 O5'        -2.6350   -1.0390    3.9970 os        1 Z       -0.587200
      5 C5'        -1.9300   -1.3870    2.8400 c3        1 Z        0.190400
      6 C4'        -0.6870   -0.5030    2.6510 c3        1 Z        0.089100
      7 O4'         0.4510   -1.3500    2.4610 os        1 Z       -0.429600
      8 C3'        -0.7810    0.4490    1.4410 c3        1 Z        0.138100
      9 O3'        -0.9870    1.7910    1.8420 oh        1 Z       -0.647800
     10 C2'         0.5750    0.3480    0.7420 c3        1 Z       -0.103400
     11 C1'         1.3210   -0.8170    1.4280 c3        1 Z        0.316500
     12 N1          1.7580   -1.8730    0.5270 n         1 Z       -0.324400
     13 C2          3.0220   -2.5210    0.7890 c         1 Z        0.733500
     14 O2          3.7520   -2.0980    1.7310 o         1 Z       -0.704100
     15 N3          3.4380   -3.5830   -0.0270 ne        1 Z       -0.775100
     16 C4          2.6360   -3.9250   -1.0420 cf        1 Z        0.513500
     17 C5          1.4290   -3.2900   -1.3500 cf        1 Z       -0.583700
     18 C6          0.9750   -2.2330   -0.5250 c1        1 Z       -0.097900
     19 OP3        -3.6840    0.9840    2.9360 o         1 Z       -0.849500
     20 H5'        -1.5920   -2.4550    2.9610 h1        1 Z        0.038200
     21 H5''       -2.6110   -1.3100    1.9480 h1        1 Z        0.038200
     22 H4'        -0.4990    0.0910    3.5890 h1        1 Z        0.056700
     23 H3'        -1.6110    0.1340    0.7510 h1        1 Z        0.053700
     24 HO3'       -1.8870    1.8320    2.2080 ho        1 Z        0.456000
     25 H2'         0.4300    0.1580   -0.3500 hc        1 Z        0.061700
     26 H2''        1.1560    1.2930    0.8730 hc        1 Z        0.061700
     27 H1'         2.2330   -0.4400    1.9830 h2        1 Z        0.070700
     28 H4          3.0060   -4.7740   -1.6500 h4        1 Z       -0.044200
     29 H5          0.8180   -3.5960   -2.2000 ha        1 Z        0.105000
     30 H6         -5.4340   -1.7890    3.5380 ho        1 Z        0.420000
@<TRIPOS>BOND
     1    1    2 1   
     2    1    3 1   
     3    1    4 1   
     4    1   19 1   
     5    3   30 1   
     6    4    5 1   
     7    5    6 1   
     8    5   20 1   
     9    5   21 1   
    10    6    7 1   
    11    6    8 1   
    12    6   22 1   
    13    7   11 1   
    14    8    9 1   
    15    8   10 1   
    16    8   23 1   
    17    9   24 1   
    18   10   11 1   
    19   10   25 1   
    20   10   26 1   
    21   11   12 1   
    22   11   27 1   
    23   12   13 1   
    24   12   18 2   
    25   13   14 2   
    26   13   15 1   
    27   15   16 2   
    28   16   17 1   
    29   16   28 1   
    30   17   18 2   
    31   17   29 1   
@<TRIPOS>SUBSTRUCTURE
     1 Z           1 TEMP              0 ****  ****    0 ROOT
