@<TRIPOS>MOLECULE
Z00
   51    51     1     0     0
SMALL
bcc


@<TRIPOS>ATOM
      1 C1         -0.7690   -0.4480   -2.7320 c1        1 Z00     -0.923000
      2 S2         -2.0060   -0.8950   -3.6420 s6        1 Z00      2.934000
      3 O3         -3.1570   -0.1780   -3.3030 o         1 Z00     -0.917500
      4 O4         -1.6550   -0.8890   -5.0050 o         1 Z00     -0.917500
      5 N5         -2.2060   -2.5100   -3.2630 nh        1 Z00     -0.762000
      6 C6          2.2810    2.1980    5.1530 c3        1 Z00      0.003000
      7 C7          1.4410    1.2280    4.3880 c2        1 Z00     -0.192000
      8 C8          0.7010    1.6040    3.3340 c2        1 Z00     -0.010000
      9 C9          1.1920    0.3470   -1.1710 c3        1 Z00     -0.177000
     10 C10         0.1360   -0.0860   -2.0220 c1        1 Z00      0.166000
     11 C11        -0.7240   -0.0350    1.9010 c1        1 Z00     -0.144000
     12 C12        -0.0600    0.7110    2.5640 c1        1 Z00     -0.194000
     13 C13        -2.3930   -3.0420   -2.0080 c2        1 Z00     -0.130000
     14 S14        -2.9870   -4.6550   -1.7200 ss        1 Z00      0.418000
     15 C15        -2.8710   -4.3240   -0.0300 c2        1 Z00     -0.314000
     16 N16        -2.4230   -3.0790    0.2270 n2        1 Z00     -0.042000
     17 N17        -2.1550   -2.3720   -0.8320 n2        1 Z00     -0.139000
     18 C18        -3.2400   -5.3380    0.9970 c3        1 Z00     -0.032000
     19 C19        -2.0510   -5.6740    1.8770 c3        1 Z00     -0.206500
     20 C20        -4.4060   -4.8520    1.8370 c3        1 Z00     -0.206500
     21 C21         4.1410    4.4400    8.4320 c2        1 Z00     -0.132000
     22 C22         5.1610    5.2840    8.6340 c1        1 Z00     -0.200000
     23 C23         2.6310    3.0040    7.4490 c2        1 Z00      0.224000
     24 N24         3.7200    3.7950    7.2020 na        1 Z00     -0.216000
     25 C25         2.2980    3.1240    8.8830 c2        1 Z00     -0.251000
     26 C26         3.2150    3.9890    9.4590 c2        1 Z00      0.063000
     27 N27         1.9630    2.2160    6.5610 nh        1 Z00     -0.312000
     28 F29         6.0190    5.3340    6.3050 f         1 Z00     -0.186333
     29 F30         6.1420    7.1470    7.4660 f         1 Z00     -0.186333
     30 F31         7.4500    5.4710    7.9120 f         1 Z00     -0.186333
     31 CL          1.0230    2.3200    9.5980 cl        1 Z00      0.036000
     32 H10         1.5060    1.3910   -1.4340 hc        1 Z00      0.129333
     33 H11        -1.3240   -0.6970    1.3190 ha        1 Z00      0.255000
     34 H5         -2.1790   -3.1870   -3.9940 hn        1 Z00      0.258000
     35 H61C        0.6530    2.6630    3.0120 ha        1 Z00      0.141000
     36 H62C        2.1640    3.2410    4.7300 h1        1 Z00      0.095000
     37 H71C        3.3660    1.9000    5.0300 h1        1 Z00      0.095000
     38 H72C        1.4900    0.1780    4.7200 ha        1 Z00      0.146000
     39 H27         1.1400    1.7550    6.8780 hn        1 Z00      0.265000
     40 H9          2.0810   -0.3300   -1.2710 hc        1 Z00      0.129333
     41 H12         0.8480    0.3340   -0.0990 hc        1 Z00      0.129333
     42 H18        -1.1940   -6.0330    1.2590 hc        1 Z00      0.084167
     43 H191       -3.5570   -6.2750    0.4540 hc        1 Z00      0.093000
     44 H192       -2.3340   -6.4790    2.5980 hc        1 Z00      0.084167
     45 H193       -1.7230   -4.7770    2.4550 hc        1 Z00      0.084167
     46 H201       -4.7040   -5.6490    2.5600 hc        1 Z00      0.084167
     47 H202       -5.2830   -4.6110    1.1890 hc        1 Z00      0.084167
     48 H203       -4.1240   -3.9370    2.4100 hc        1 Z00      0.084167
     49 H21         4.1800    3.9090    6.3300 hn        1 Z00      0.265000
     50 H26         3.2790    4.3130   10.4990 ha        1 Z00      0.191000
     51 C28         6.1440    5.7800    7.6140 c3        1 Z00      0.434000
@<TRIPOS>BOND
     1    1    2 1   
     2    1   10 1   
     3    2    3 1   
     4    2    4 1   
     5    2    5 1   
     6    5   13 1   
     7    5   34 1   
     8    6    7 1   
     9    6   27 1   
    10    6   36 1   
    11    6   37 1   
    12    7    8 1   
    13    7   38 1   
    14    8   12 1   
    15    8   35 1   
    16    9   10 1   
    17    9   32 1   
    18    9   40 1   
    19    9   41 1   
    20   11   12 1   
    21   11   33 1   
    22   13   14 1   
    23   13   17 1   
    24   14   15 1   
    25   15   16 1   
    26   15   18 1   
    27   16   17 1   
    28   18   19 1   
    29   18   20 1   
    30   18   43 1   
    31   19   42 1   
    32   19   44 1   
    33   19   45 1   
    34   20   46 1   
    35   20   47 1   
    36   20   48 1   
    37   21   22 1   
    38   21   24 1   
    39   21   26 1   
    40   22   51 1   
    41   23   24 1   
    42   23   25 1   
    43   23   27 1   
    44   24   49 1   
    45   25   26 1   
    46   25   31 1   
    47   26   50 1   
    48   27   39 1   
    49   28   51 1   
    50   29   51 1   
    51   30   51 1   
@<TRIPOS>SUBSTRUCTURE
     1 Z00         1 TEMP              0 ****  ****    0 ROOT
