@<TRIPOS>MOLECULE
Z00
   51    53     1     0     0
SMALL
bcc


@<TRIPOS>ATOM
      1 C1         -2.6470   -1.6060    0.4050 ca        1 Z00     -0.403500
      2 S2         -3.9810   -2.5540    0.0760 sy        1 Z00      1.521200
      3 O3         -4.0770   -2.8040   -1.2970 o         1 Z00     -0.636800
      4 O4         -3.9810   -3.6790    0.9290 o         1 Z00     -0.636800
      5 N5         -5.2640   -1.6380    0.6030 nh        1 Z00     -0.826800
      6 C6          2.0800    0.1610    0.6020 c3        1 Z00      0.216800
      7 C7          0.8340    0.7810    1.2460 c3        1 Z00     -0.065100
      8 C8         -0.3610   -0.0560    0.9520 ca        1 Z00     -0.009300
      9 C9         -0.9180   -0.8710    1.9480 ca        1 Z00     -0.157500
     10 C10        -2.0460   -1.6330    1.6720 ca        1 Z00      0.007500
     11 C11        -2.0770   -0.7960   -0.5860 ca        1 Z00      0.007500
     12 C12        -0.9470   -0.0280   -0.3180 ca        1 Z00     -0.157500
     13 C13        -5.6850   -0.4350    0.0800 cc        1 Z00      0.630300
     14 S14        -7.1970    0.3250    0.4920 ss        1 Z00     -0.217800
     15 C15        -6.7730    1.5990   -0.5950 cc        1 Z00      0.356700
     16 N16        -5.5790    1.4000   -1.1910 nd        1 Z00     -0.287000
     17 N17        -4.9760    0.3050   -0.8340 nd        1 Z00     -0.389000
     18 C18        -7.6640    2.7700   -0.8200 c3        1 Z00     -0.086000
     19 C19        -6.9710    4.0600   -0.4250 c3        1 Z00     -0.088600
     20 C20        -8.1200    2.8290   -2.2660 c3        1 Z00     -0.088600
     21 C21         5.8800   -1.0340   -0.6320 ca        1 Z00      0.501200
     22 C22         7.0230   -0.2170   -0.5200 ca        1 Z00     -0.357600
     23 C23         4.5010    0.5710    0.3440 ca        1 Z00      0.706200
     24 N24         4.6600   -0.6740   -0.2290 nb        1 Z00     -0.725000
     25 C25         5.6250    1.4650    0.4740 ca        1 Z00     -0.190900
     26 C26         6.8810    1.0550    0.0410 ca        1 Z00      0.008000
     27 N27         3.2670    0.9460    0.8380 nh        1 Z00     -0.856900
     28 F29         8.3210   -1.6090   -2.0310 f         1 Z00     -0.236967
     29 F30         9.2230    0.2710   -1.4320 f         1 Z00     -0.236967
     30 F31         9.1020   -1.3710   -0.0250 f         1 Z00     -0.236967
     31 CL          5.4390    3.0100    1.1490 cl        1 Z00     -0.077400
     32 H10        -2.4700   -2.2880    2.4550 ha        1 Z00      0.163000
     33 H11        -2.5310   -0.7700   -1.5950 ha        1 Z00      0.163000
     34 H5         -5.8170   -1.9650    1.3650 hn        1 Z00      0.462800
     35 H61C        2.2410   -0.8710    1.0280 h1        1 Z00      0.064200
     36 H62C        1.8980    0.0480   -0.5080 h1        1 Z00      0.064200
     37 H71C        0.9820    0.8690    2.3560 hc        1 Z00      0.062200
     38 H72C        0.6650    1.8170    0.8440 hc        1 Z00      0.062200
     39 H27         3.1430    1.9090    1.0550 hn        1 Z00      0.441800
     40 H9         -0.4600   -0.9080    2.9480 ha        1 Z00      0.145000
     41 H12        -0.5160    0.6060   -1.1080 ha        1 Z00      0.145000
     42 H18        -8.5740    2.6390   -0.1640 hc        1 Z00      0.051700
     43 H191       -6.6400    4.0180    0.6400 hc        1 Z00      0.045033
     44 H192       -6.0770    4.2400   -1.0700 hc        1 Z00      0.045033
     45 H193       -7.6770    4.9170   -0.5470 hc        1 Z00      0.045033
     46 H201       -8.6360    1.8820   -2.5540 hc        1 Z00      0.045033
     47 H202       -8.8310    3.6800   -2.4000 hc        1 Z00      0.045033
     48 H203       -7.2480    2.9810   -2.9470 hc        1 Z00      0.045033
     49 H21         5.9530   -2.0430   -1.0850 h4        1 Z00      0.044100
     50 H26         7.7550    1.7220    0.1300 ha        1 Z00      0.168000
     51 C28         8.3740   -0.7150   -0.9890 c3        1 Z00      0.705200
@<TRIPOS>BOND
     1    1    2 1   
     2    1   10 ar  
     3    1   11 ar  
     4    2    3 2   
     5    2    4 2   
     6    2    5 1   
     7    5   13 1   
     8    5   34 1   
     9    6    7 1   
    10    6   27 1   
    11    6   35 1   
    12    6   36 1   
    13    7    8 1   
    14    7   37 1   
    15    7   38 1   
    16    8    9 ar  
    17    8   12 ar  
    18    9   10 ar  
    19    9   40 1   
    20   10   32 1   
    21   11   12 ar  
    22   11   33 1   
    23   12   41 1   
    24   13   14 1   
    25   13   17 2   
    26   14   15 1   
    27   15   16 2   
    28   15   18 1   
    29   16   17 1   
    30   18   19 1   
    31   18   20 1   
    32   18   42 1   
    33   19   43 1   
    34   19   44 1   
    35   19   45 1   
    36   20   46 1   
    37   20   47 1   
    38   20   48 1   
    39   21   22 ar  
    40   21   24 ar  
    41   21   49 1   
    42   22   26 ar  
    43   22   51 1   
    44   23   24 ar  
    45   23   25 ar  
    46   23   27 1   
    47   25   26 ar  
    48   25   31 1   
    49   26   50 1   
    50   27   39 1   
    51   28   51 1   
    52   29   51 1   
    53   30   51 1   
@<TRIPOS>SUBSTRUCTURE
     1 Z00         1 TEMP              0 ****  ****    0 ROOT
