@<TRIPOS>MOLECULE
Z00
   51    51     1     0     0
SMALL
bcc


@<TRIPOS>ATOM
      1 C1         -0.7650   -0.4230   -2.7280 c1        1 Z00     -0.923000
      2 S2         -2.0000   -0.8640   -3.6440 s6        1 Z00      2.934000
      3 O3         -3.1500   -0.1440   -3.3080 o         1 Z00     -0.917500
      4 O4         -1.6440   -0.8550   -5.0050 o         1 Z00     -0.917500
      5 N5         -2.2070   -2.4790   -3.2710 nu        1 Z00     -0.762000
      6 C6          2.2890    2.1870    5.1550 c3        1 Z00      0.003000
      7 C7          1.4490    1.2200    4.3850 c2        1 Z00     -0.192000
      8 C8          0.6920    1.6050    3.3480 c2        1 Z00     -0.010000
      9 C9          1.1920    0.3620   -1.1570 c3        1 Z00     -0.177000
     10 C10         0.1380   -0.0650   -2.0130 c1        1 Z00      0.166000
     11 C11        -0.7360   -0.0250    1.9070 c1        1 Z00     -0.144000
     12 C12        -0.0700    0.7170    2.5730 c1        1 Z00     -0.194000
     13 C13        -2.4010   -3.0140   -2.0180 c2        1 Z00     -0.130000
     14 S14        -3.0020   -4.6260   -1.7370 ss        1 Z00      0.418000
     15 C15        -2.8910   -4.3000   -0.0460 c2        1 Z00     -0.314000
     16 N16        -2.4400   -3.0570    0.2160 n2        1 Z00     -0.042000
     17 N17        -2.1650   -2.3490   -0.8390 n2        1 Z00     -0.138000
     18 C18        -3.2680   -5.3150    0.9770 c3        1 Z00     -0.032000
     19 C19        -2.0840   -5.6580    1.8610 c3        1 Z00     -0.206500
     20 C20        -4.4370   -4.8280    1.8120 c3        1 Z00     -0.206500
     21 C21         4.1700    4.3950    8.4450 c2        1 Z00     -0.132000
     22 C22         5.1830    5.2480    8.6470 c1        1 Z00     -0.200000
     23 C23         2.6630    2.9580    7.4600 c2        1 Z00      0.224000
     24 N24         3.7390    3.7660    7.2100 na        1 Z00     -0.216000
     25 C25         2.3490    3.0490    8.8990 c2        1 Z00     -0.251000
     26 C26         3.2640    3.9150    9.4770 c2        1 Z00      0.063000
     27 N27         1.9920    2.1770    6.5670 nu        1 Z00     -0.312000
     28 F29         6.0070    5.3470    6.3070 f         1 Z00     -0.186333
     29 F30         6.1240    7.1420    7.4970 f         1 Z00     -0.186333
     30 F31         7.4590    5.4750    7.8960 f         1 Z00     -0.186333
     31 Cl          1.0940    2.2180    9.6190 cl        1 Z00      0.036000
     32 H10         1.5090    1.4070   -1.4160 hc        1 Z00      0.129333
     33 H11        -1.3360   -0.6840    1.3220 ha        1 Z00      0.255000
     34 H5         -2.1780   -3.1540   -4.0030 hn        1 Z00      0.258000
     35 H61C        0.6270    2.6680    3.0440 ha        1 Z00      0.141000
     36 H62C        2.1540    3.2350    4.7520 h1        1 Z00      0.095000
     37 H71C        3.3760    1.9040    5.0110 h1        1 Z00      0.095000
     38 H72C        1.5140    0.1660    4.6990 ha        1 Z00      0.146000
     39 H27         1.1780    1.7010    6.8880 hn        1 Z00      0.265000
     40 H9          2.0790   -0.3170   -1.2560 hc        1 Z00      0.129333
     41 H12         0.8440    0.3460   -0.0860 hc        1 Z00      0.129333
     42 H18        -1.2250   -6.0180    1.2460 hc        1 Z00      0.084167
     43 H191       -3.5860   -6.2500    0.4300 hc        1 Z00      0.093000
     44 H192       -2.3730   -6.4640    2.5790 hc        1 Z00      0.084167
     45 H193       -1.7560   -4.7630    2.4440 hc        1 Z00      0.084167
     46 H201       -4.7400   -5.6260    2.5330 hc        1 Z00      0.084167
     47 H202       -5.3090   -4.5830    1.1620 hc        1 Z00      0.084167
     48 H203       -4.1540   -3.9150    2.3890 hc        1 Z00      0.084167
     49 H21         4.1840    3.9000    6.3340 hn        1 Z00      0.265000
     50 H26         3.3390    4.2220   10.5220 ha        1 Z00      0.191000
     51 C28         6.1450    5.7730    7.6220 c3        1 Z00      0.434000
@<TRIPOS>BOND
     1    1    2 1   
     2    1   10 1   
     3    2    3 1   
     4    2    4 1   
     5    2    5 1   
     6    5   13 1   
     7    5   34 1   
     8    6    7 1   
     9    6   27 1   
    10    6   36 1   
    11    6   37 1   
    12    7    8 1   
    13    7   38 1   
    14    8   12 1   
    15    8   35 1   
    16    9   10 1   
    17    9   32 1   
    18    9   40 1   
    19    9   41 1   
    20   11   12 1   
    21   11   33 1   
    22   13   14 1   
    23   13   17 1   
    24   14   15 1   
    25   15   16 1   
    26   15   18 1   
    27   16   17 1   
    28   18   19 1   
    29   18   20 1   
    30   18   43 1   
    31   19   42 1   
    32   19   44 1   
    33   19   45 1   
    34   20   46 1   
    35   20   47 1   
    36   20   48 1   
    37   21   22 1   
    38   21   24 1   
    39   21   26 1   
    40   22   51 1   
    41   23   24 1   
    42   23   25 1   
    43   23   27 1   
    44   24   49 1   
    45   25   26 1   
    46   25   31 1   
    47   26   50 1   
    48   27   39 1   
    49   28   51 1   
    50   29   51 1   
    51   30   51 1   
@<TRIPOS>SUBSTRUCTURE
     1 Z00         1 TEMP              0 ****  ****    0 ROOT
