@<TRIPOS>MOLECULE
Z01
   28    27     1     0     0
SMALL
bcc


@<TRIPOS>ATOM
      1 N           1.5710    1.6800   -0.6910 n3        1 Z01     -0.899800
      2 CA          1.8960    0.5910    0.2180 c3        1 Z01     -0.006500
      3 CB          0.8570   -0.5480    0.1830 c3        1 Z01      0.089000
      4 N1         -0.4800   -0.1160    0.5280 n         1 Z01     -0.531900
      5 C1         -1.5980   -0.5840   -0.1170 c         1 Z01      0.645100
      6 C           3.3080   -0.0540    0.0010 c         1 Z01      0.895600
      7 O           4.0400    0.4320   -0.9060 o         1 Z01     -0.834300
      8 O1         -1.5710   -1.5870   -0.8640 o         1 Z01     -0.634100
      9 C2         -2.9320    0.1380    0.1650 c3        1 Z01     -0.128000
     10 C23        -4.0510   -0.6190   -0.5350 c3        1 Z01     -0.081767
     11 C21        -3.2050    0.1680    1.6600 c3        1 Z01     -0.081767
     12 C22        -2.8610    1.5540   -0.3850 c3        1 Z01     -0.081767
     13 H           2.3900    2.2620   -0.7630 hn        1 Z01      0.335800
     14 HA          1.9140    1.0340    1.2570 h1        1 Z01      0.041700
     15 H25         0.8470   -1.0320   -0.8340 h1        1 Z01      0.069200
     16 H25A        1.1890   -1.3240    0.9330 h1        1 Z01      0.069200
     17 HN27       -0.5420    0.7780    0.9590 hn        1 Z01      0.300500
     18 H76        -4.1060   -1.6640   -0.1460 hc        1 Z01      0.037033
     19 H76A       -5.0280   -0.1100   -0.3610 hc        1 Z01      0.037033
     20 H76B       -3.8510   -0.6670   -1.6330 hc        1 Z01      0.037033
     21 H78        -2.4850    0.8360    2.1890 hc        1 Z01      0.037033
     22 H78A       -4.2390    0.5490    1.8480 hc        1 Z01      0.037033
     23 H78B       -3.1190   -0.8600    2.0870 hc        1 Z01      0.037033
     24 H80        -2.5750    1.5340   -1.4640 hc        1 Z01      0.037033
     25 H80A       -3.8580    2.0480   -0.2880 hc        1 Z01      0.037033
     26 H80B       -2.1110    2.1660    0.1700 hc        1 Z01      0.037033
     27 H2          1.4210    1.2960   -1.6080 hn        1 Z01      0.335800
     28 OXT         3.6340   -0.9990    0.7680 o         1 Z01     -0.834300
@<TRIPOS>BOND
     1    1    2 1   
     2    1   13 1   
     3    1   27 1   
     4    2    3 1   
     5    2    6 1   
     6    2   14 1   
     7    3    4 1   
     8    3   15 1   
     9    3   16 1   
    10    4    5 1   
    11    4   17 1   
    12    5    8 2   
    13    5    9 1   
    14    6    7 1   
    15    6   28 1   
    16    9   10 1   
    17    9   11 1   
    18    9   12 1   
    19   10   18 1   
    20   10   19 1   
    21   10   20 1   
    22   11   21 1   
    23   11   22 1   
    24   11   23 1   
    25   12   24 1   
    26   12   25 1   
    27   12   26 1   
@<TRIPOS>SUBSTRUCTURE
     1 Z01         1 TEMP              0 ****  ****    0 ROOT
