@<TRIPOS>MOLECULE
Z02
   32    33     1     0     0
SMALL
bcc


@<TRIPOS>ATOM
      1 N01        -0.0730    0.0410    0.0140 no        1 Z02      0.326200
      2 N02         4.9880    0.0610   -1.4050 n         1 Z02     -0.666000
      3 N03         4.9480    0.0350    2.6620 nh        1 Z02     -0.739600
      4 N04         7.2350   -0.9030    4.3460 nb        1 Z02     -0.655000
      5 C05         2.4050   -0.2360   -0.0160 ca        1 Z02      0.008000
      6 C06         3.6390   -0.2420    0.6220 ca        1 Z02     -0.240600
      7 C07         3.7310    0.0020    2.0310 ca        1 Z02      0.282600
      8 C08         2.5170    0.2720    2.7320 ca        1 Z02     -0.242000
      9 C09         1.2980    0.2870    2.0880 ca        1 Z02      0.002000
     10 C10         1.2320    0.0310    0.7050 ca        1 Z02     -0.261200
     11 C11         4.8650   -0.5330   -0.1740 c         1 Z02      0.681700
     12 C12         5.0400    0.2070    4.0900 c3        1 Z02      0.162500
     13 C13         6.4640    0.1810    4.6080 ca        1 Z02      0.379600
     14 C14         8.4800   -0.9150    4.8510 ca        1 Z02      0.403200
     15 C15         9.0160    0.1260    5.6350 ca        1 Z02     -0.237300
     16 C16         8.2130    1.2350    5.8970 ca        1 Z02     -0.092000
     17 C17         6.9170    1.2720    5.3770 ca        1 Z02     -0.230300
     18 O18         5.7770   -1.2820    0.2410 o         1 Z02     -0.624100
     19 O19        -0.1070   -0.1520   -1.1740 o         1 Z02     -0.221000
     20 O20        -1.0720    0.2480    0.6520 o         1 Z02     -0.221000
     21 HN02        4.2910    0.6650   -1.7560 hn        1 Z02      0.317500
     22 HN0A        5.7840   -0.1340   -1.9600 hn        1 Z02      0.317500
     23 HN03        5.7260   -0.3960    2.2000 hn        1 Z02      0.479800
     24 H05         2.3320   -0.4570   -1.0970 ha        1 Z02      0.168000
     25 H08         2.5400    0.4650    3.8160 ha        1 Z02      0.148000
     26 H09         0.3720    0.4930    2.6540 ha        1 Z02      0.169000
     27 H12         4.4560   -0.6010    4.6260 h1        1 Z02      0.057700
     28 H12A        4.5790    1.2030    4.3590 h1        1 Z02      0.057700
     29 H14         9.0800   -1.8130    4.6130 h4        1 Z02      0.030100
     30 H15        10.0410    0.0580    6.0220 ha        1 Z02      0.149000
     31 H16         8.5920    2.0710    6.5020 ha        1 Z02      0.143000
     32 H17         6.2650    2.1360    5.5610 ha        1 Z02      0.146000
@<TRIPOS>BOND
     1    1   10 1   
     2    1   19 1   
     3    1   20 1   
     4    2   11 1   
     5    2   21 1   
     6    2   22 1   
     7    3    7 1   
     8    3   12 1   
     9    3   23 1   
    10    4   13 ar  
    11    4   14 ar  
    12    5    6 ar  
    13    5   10 ar  
    14    5   24 1   
    15    6    7 ar  
    16    6   11 1   
    17    7    8 ar  
    18    8    9 ar  
    19    8   25 1   
    20    9   10 ar  
    21    9   26 1   
    22   11   18 2   
    23   12   13 1   
    24   12   27 1   
    25   12   28 1   
    26   13   17 ar  
    27   14   15 ar  
    28   14   29 1   
    29   15   16 ar  
    30   15   30 1   
    31   16   17 ar  
    32   16   31 1   
    33   17   32 1   
@<TRIPOS>SUBSTRUCTURE
     1 Z02         1 TEMP              0 ****  ****    0 ROOT
