@<TRIPOS>MOLECULE
Z02
   32    33     1     0     0
SMALL
bcc


@<TRIPOS>ATOM
      1 N01         4.7140   -0.7960   -0.0300 no        1 Z02      0.326200
      2 N02         1.4510    3.3240   -0.0830 n         1 Z02     -0.666000
      3 N03        -0.9050    0.0100   -0.0020 nh        1 Z02     -0.739600
      4 N04        -3.7400    0.0040    0.9530 nb        1 Z02     -0.655000
      5 C05         2.7280    0.6870    0.2400 ca        1 Z02      0.008000
      6 C06         1.3540    0.8960    0.2510 ca        1 Z02     -0.240600
      7 C07         0.4510   -0.1930    0.0260 ca        1 Z02      0.282600
      8 C08         1.0190   -1.4770   -0.2310 ca        1 Z02     -0.242000
      9 C09         2.3850   -1.6720   -0.2510 ca        1 Z02      0.002000
     10 C10         3.2520   -0.5890   -0.0140 ca        1 Z02     -0.261200
     11 C11         0.8310    2.2640    0.5280 c         1 Z02      0.681700
     12 C12        -1.8190   -1.0930   -0.1540 c3        1 Z02      0.162500
     13 C13        -3.2760   -0.6760   -0.1250 ca        1 Z02      0.379600
     14 C14        -5.0440    0.3260    0.9690 ca        1 Z02      0.403200
     15 C15        -5.9440   -0.0070   -0.0620 ca        1 Z02     -0.237300
     16 C16        -5.4550   -0.7050   -1.1650 ca        1 Z02     -0.092000
     17 C17        -4.1010   -1.0460   -1.2060 ca        1 Z02     -0.230300
     18 O18        -0.1460    2.4720    1.2810 o         1 Z02     -0.624100
     19 O19         5.4400    0.1480    0.1470 o         1 Z02     -0.221000
     20 O20         5.1460   -1.9010   -0.2260 o         1 Z02     -0.221000
     21 HN02        2.2180    3.1920   -0.6900 hn        1 Z02      0.317500
     22 HN0A        1.1350    4.2440    0.1030 hn        1 Z02      0.317500
     23 HN03       -1.2600    0.8470    0.4210 hn        1 Z02      0.479800
     24 H05         3.4230    1.5220    0.4460 ha        1 Z02      0.168000
     25 H08         0.3640   -2.3430   -0.4090 ha        1 Z02      0.148000
     26 H09         2.8010   -2.6760   -0.4480 ha        1 Z02      0.169000
     27 H12        -1.6100   -1.5940   -1.1450 h1        1 Z02      0.057700
     28 H12A       -1.6570   -1.8600    0.6630 h1        1 Z02      0.057700
     29 H14        -5.3840    0.8830    1.8610 h4        1 Z02      0.030100
     30 H15        -7.0000    0.2820    0.0080 ha        1 Z02      0.149000
     31 H16        -6.1220   -0.9830   -1.9940 ha        1 Z02      0.143000
     32 H17        -3.6860   -1.5900   -2.0660 ha        1 Z02      0.146000
@<TRIPOS>BOND
     1    1   10 1   
     2    1   19 1   
     3    1   20 1   
     4    2   11 1   
     5    2   21 1   
     6    2   22 1   
     7    3    7 1   
     8    3   12 1   
     9    3   23 1   
    10    4   13 ar  
    11    4   14 ar  
    12    5    6 ar  
    13    5   10 ar  
    14    5   24 1   
    15    6    7 ar  
    16    6   11 1   
    17    7    8 ar  
    18    8    9 ar  
    19    8   25 1   
    20    9   10 ar  
    21    9   26 1   
    22   11   18 2   
    23   12   13 1   
    24   12   27 1   
    25   12   28 1   
    26   13   17 ar  
    27   14   15 ar  
    28   14   29 1   
    29   15   16 ar  
    30   15   30 1   
    31   16   17 ar  
    32   16   31 1   
    33   17   32 1   
@<TRIPOS>SUBSTRUCTURE
     1 Z02         1 TEMP              0 ****  ****    0 ROOT
