@<TRIPOS>MOLECULE
Z02
   33    34     1     0     0
SMALL
bcc


@<TRIPOS>ATOM
      1 N01        -0.0220    0.0510   -0.0100 no        1 Z02      0.325200
      2 N02         4.7890   -0.6150   -1.6260 nz        1 Z02     -0.759400
      3 N03         4.9770    0.3080    2.6720 nu        1 Z02     -0.690600
      4 N04         7.3130   -0.6400    4.1050 nb        1 Z02     -0.681000
      5 C05         2.4600   -0.0090   -0.0460 ca        1 Z02      0.004000
      6 C06         3.7270    0.0320    0.5810 ca        1 Z02     -0.325600
      7 C07         3.8030    0.2250    2.0120 ca        1 Z02      0.325600
      8 C08         2.5510    0.3350    2.7270 ca        1 Z02     -0.219000
      9 C09         1.3420    0.2780    2.0950 ca        1 Z02      0.028000
     10 C10         1.2940    0.1050    0.6820 ca        1 Z02     -0.228200
     11 C11         4.9320   -0.0970   -0.1960 c         1 Z02      0.584700
     12 C12         5.0650    0.4040    4.1150 c3        1 Z02      0.152500
     13 C13         6.4740    0.2750    4.6530 ca        1 Z02      0.354600
     14 C14         8.5320   -0.7690    4.6530 ca        1 Z02      0.408200
     15 C15         8.9750   -0.0120    5.7570 ca        1 Z02     -0.217300
     16 C16         8.1050    0.9280    6.3070 ca        1 Z02     -0.080000
     17 C17         6.8320    1.0830    5.7490 ca        1 Z02     -0.218300
     18 O18         6.1070    0.1260    0.0850 o         1 Z02     -0.472100
     19 O19        -0.0240   -0.1210   -1.2000 o         1 Z02     -0.185000
     20 O20        -1.0200    0.1760    0.6380 o         1 Z02     -0.185000
     21 HN02        5.7250   -0.7990   -2.0110 hn        1 Z02      0.467467
     22 HN0A        4.2400   -1.4780   -1.6350 hn        1 Z02      0.467467
     23 HN03        5.8430    0.2170    2.1760 hn        1 Z02      0.482800
     24 H05         2.3670   -0.1150   -1.1430 ha        1 Z02      0.150000
     25 H08         2.5710    0.4790    3.8210 ha        1 Z02      0.174000
     26 H09         0.3960    0.3680    2.6640 ha        1 Z02      0.198000
     27 H12         4.6420    1.4030    4.4340 h1        1 Z02      0.078700
     28 H12A        4.4420   -0.4160    4.5840 h1        1 Z02      0.078700
     29 H14         9.1900   -1.5240    4.1830 h4        1 Z02      0.036100
     30 H15         9.9830   -0.1670    6.1670 ha        1 Z02      0.164000
     31 H16         8.4110    1.5420    7.1680 ha        1 Z02      0.159000
     32 H17         6.1270    1.8180    6.1620 ha        1 Z02      0.152000
     33 H023        4.3220    0.0850   -2.2090 hn        1 Z02      0.467467
@<TRIPOS>BOND
     1    1   10 1   
     2    1   19 1   
     3    1   20 1   
     4    2   11 1   
     5    2   21 1   
     6    2   22 1   
     7    2   33 1   
     8    3    7 1   
     9    3   12 1   
    10    3   23 1   
    11    4   13 ar  
    12    4   14 ar  
    13    5    6 ar  
    14    5   10 ar  
    15    5   24 1   
    16    6    7 ar  
    17    6   11 1   
    18    7    8 ar  
    19    8    9 ar  
    20    8   25 1   
    21    9   10 ar  
    22    9   26 1   
    23   11   18 2   
    24   12   13 1   
    25   12   27 1   
    26   12   28 1   
    27   13   17 ar  
    28   14   15 ar  
    29   14   29 1   
    30   15   16 ar  
    31   15   30 1   
    32   16   17 ar  
    33   16   31 1   
    34   17   32 1   
@<TRIPOS>SUBSTRUCTURE
     1 Z02         1 TEMP              0 ****  ****    0 ROOT
