@<TRIPOS>MOLECULE
Z04
   46    46     1     0     0
SMALL
bcc


@<TRIPOS>ATOM
      1 N01        -0.0360   -0.4510    0.1220 n3        1 Z04     -0.275000
      2 N02         3.5290   -0.0510    2.2960 n         1 Z04     -0.384000
      3 N03        -4.1530    1.4470    1.4330 n2        1 Z04     -0.252000
      4 N04        -5.3750   -0.6010    0.9790 n2        1 Z04     -0.369000
      5 N05         2.7290   -0.0620   -3.8070 n3        1 Z04     -0.233000
      6 N06        -6.2640    1.0810    2.4090 n3        1 Z04     -0.341000
      7 N07         5.1790   -0.2350   -2.0530 no        1 Z04      0.585000
      8 C08         3.6500   -0.8620   -0.2920 c1        1 Z04     -0.232000
      9 C09         2.3560   -1.0590    0.3450 c3        1 Z04     -0.092000
     10 C11         1.1850   -0.5070   -0.4570 c2        1 Z04      0.190000
     11 C12         1.3890   -0.1750   -1.8010 c2        1 Z04     -0.405000
     12 C13         2.6600   -0.2330   -2.4550 c2        1 Z04      0.300000
     13 C14         3.7930   -0.4970   -1.5870 c2        1 Z04     -0.276000
     14 C16        -1.2100    0.0570   -0.5510 c3        1 Z04      0.006000
     15 C17        -2.4180    0.0640    0.3260 c2        1 Z04     -0.260000
     16 C18        -3.0640    1.2130    0.6130 c2        1 Z04     -0.015000
     17 C19        -5.1860    0.6470    1.6110 c2        1 Z04      0.291000
     18 C20        -5.5310   -1.6340    0.4210 c1        1 Z04      0.196000
     19 C21         1.6120    0.5030   -4.5310 c3        1 Z04     -0.122000
     20 C22         3.5950    0.8840   -7.0740 c1        1 Z04     -0.094000
     21 C23         3.8220   -0.5360   -4.6310 c3        1 Z04     -0.053000
     22 C24         4.8130    0.5390   -5.0890 c3        1 Z04     -0.046000
     23 O25         1.3630   -0.7040    2.5330 o         1 Z04     -0.433000
     24 O26         4.7730    0.7430   -6.5270 os        1 Z04     -0.171000
     25 O27         5.4570    0.8670   -2.4600 o         1 Z04     -0.383500
     26 O28         5.9980   -1.1130   -2.0390 o         1 Z04     -0.383500
     27 HN01       -0.1180   -0.6550    1.1020 hn        1 Z04      0.281000
     28 HN02        3.5880    0.1750    3.2580 hn        1 Z04      0.247000
     29 HN0A        4.3560   -0.0690    1.7400 hn        1 Z04      0.247000
     30 HN06       -6.8300    0.3750    2.8210 hn        1 Z04      0.224500
     31 HN0B       -6.0790    1.8710    2.9860 hn        1 Z04      0.224500
     32 H08         2.2080   -2.1870    0.4050 hc        1 Z04      0.179000
     33 H12         0.5140    0.1340   -2.3960 ha        1 Z04      0.144000
     34 H16        -0.9930    1.0970   -0.9390 h1        1 Z04      0.095000
     35 H16A       -1.4240   -0.6010   -1.4470 h1        1 Z04      0.095000
     36 H18        -2.6750    2.1830    0.2290 h4        1 Z04      0.153000
     37 H20        -2.7300   -0.9190    0.7090 ha        1 Z04      0.140000
     38 H21         0.7880   -0.2530   -4.6300 h1        1 Z04      0.108333
     39 H21A        1.2220    1.4090   -3.9940 h1        1 Z04      0.108333
     40 H22         1.9570    0.8140   -5.5610 h1        1 Z04      0.108333
     41 H22A        3.7440    1.0660   -8.1680 ha        1 Z04      0.051000
     42 H23         4.6440    1.5340   -4.6020 h1        1 Z04      0.138500
     43 H23A        3.3620   -1.0080   -5.5530 h1        1 Z04      0.121000
     44 H24         4.3780   -1.3550   -4.0940 h1        1 Z04      0.121000
     45 H24A        5.8700    0.2050   -4.9120 h1        1 Z04      0.138500
     46 C15         2.3780   -0.5820    1.8040 c2        1 Z04      0.329000
@<TRIPOS>BOND
     1    1   10 1   
     2    1   14 1   
     3    1   27 1   
     4    2   28 1   
     5    2   29 1   
     6    2   46 1   
     7    3   16 1   
     8    3   17 1   
     9    4   17 1   
    10    4   18 1   
    11    5   12 1   
    12    5   19 1   
    13    5   21 1   
    14    6   17 1   
    15    6   30 1   
    16    6   31 1   
    17    7   13 1   
    18    7   25 1   
    19    7   26 1   
    20    8    9 1   
    21    8   13 1   
    22    9   10 1   
    23    9   32 1   
    24    9   46 1   
    25   10   11 1   
    26   11   12 1   
    27   11   33 1   
    28   12   13 1   
    29   14   15 1   
    30   14   34 1   
    31   14   35 1   
    32   15   16 1   
    33   15   37 1   
    34   16   36 1   
    35   19   38 1   
    36   19   39 1   
    37   19   40 1   
    38   20   24 1   
    39   20   41 1   
    40   21   22 1   
    41   21   43 1   
    42   21   44 1   
    43   22   24 1   
    44   22   42 1   
    45   22   45 1   
    46   23   46 1   
@<TRIPOS>SUBSTRUCTURE
     1 Z04         1 TEMP              0 ****  ****    0 ROOT
