@<TRIPOS>MOLECULE
Z04
   47    47     1     0     0
SMALL
bcc


@<TRIPOS>ATOM
      1 N01        -0.0980    0.1760    0.4150 nu        1 Z04     -0.265000
      2 N02         3.0800    0.0860    3.4670 nz        1 Z04     -0.145000
      3 N03        -4.4500    1.2400    0.8400 n2        1 Z04     -0.227000
      4 N04        -4.3680   -1.2330    0.9810 n2        1 Z04     -0.227000
      5 N05         3.2400   -0.0500   -3.0800 nh        1 Z04     -0.143000
      6 C08         3.6000    0.3540    0.6460 ca        1 Z04      0.004000
      7 C09         2.2590    0.2880    1.0820 ca        1 Z04     -0.312000
      8 C11         1.2120    0.1840    0.0910 ca        1 Z04      0.250000
      9 C12         1.6200    0.0790   -1.2820 ca        1 Z04     -0.222000
     10 C13         2.9420    0.1220   -1.6940 ca        1 Z04      0.227000
     11 C14         3.9610    0.2830   -0.6860 ca        1 Z04     -0.179000
     12 C16        -1.1670    0.0270   -0.5640 c3        1 Z04      0.035000
     13 C17        -2.5040    0.0190    0.0740 c2        1 Z04     -0.348000
     14 C18        -3.2300    1.2100    0.3040 c2        1 Z04      0.043500
     15 C19        -5.0110   -0.0020    1.1790 c2        1 Z04      0.198000
     16 C20        -3.1500   -1.1830    0.4400 c2        1 Z04      0.043500
     17 C21         3.8170    1.0810   -3.7890 c3        1 Z04     -0.165000
     18 C22         2.1590    0.8100   -6.6570 c1        1 Z04     -0.067000
     19 C23         2.8540   -1.1880   -3.6250 c1        1 Z04     -0.142000
     20 C24         2.5230   -0.9450   -8.2480 c3        1 Z04     -0.179000
     21 O25         0.8620    0.4450    3.0650 o         1 Z04     -0.246000
     22 O26         2.6000   -0.3570   -6.9230 os        1 Z04     -0.093000
     23 O27         6.1640   -0.0230   -0.1080 o         1 Z04     -0.469700
     24 O28         5.8140    0.6850   -2.0570 o         1 Z04     -0.469700
     25 HN01       -0.3860    0.2630    1.3700 hn        1 Z04      0.265000
     26 HN02        2.6920   -0.0320    4.4110 hn        1 Z04      0.262000
     27 HN0A        3.7080    0.8930    3.4650 hn        1 Z04      0.262000
     28 HN06       -6.7600    0.8380    1.8590 hn        1 Z04      0.257000
     29 HN0B       -6.7030   -0.8730    1.9550 hn        1 Z04      0.257000
     30 H08         4.4180    0.4730    1.3810 ha        1 Z04      0.146000
     31 H12         0.8420   -0.0770   -2.0540 ha        1 Z04      0.190000
     32 H16        -1.0040   -0.9390   -1.1290 h1        1 Z04      0.113000
     33 H16A       -1.0960    0.8830   -1.2990 h1        1 Z04      0.113000
     34 H18        -2.8070    2.1970    0.0330 h4        1 Z04      0.167500
     35 H20        -2.6620   -2.1650    0.2800 h4        1 Z04      0.167500
     36 H21         3.1620    1.3120   -4.6800 h1        1 Z04      0.118333
     37 H21A        3.8950    1.9810   -3.1280 h1        1 Z04      0.118333
     38 H22         1.6900    1.4240   -7.4570 ha        1 Z04      0.037000
     39 H22A        4.8450    0.8090   -4.1500 h1        1 Z04      0.118333
     40 H23         3.0680   -1.2900   -4.7100 ha        1 Z04      0.091000
     41 H23A        3.5750   -1.1550   -8.5550 h1        1 Z04      0.103333
     42 H24         2.0230   -0.2550   -8.9660 h1        1 Z04      0.103333
     43 H24A        1.9470   -1.8930   -8.1310 h1        1 Z04      0.103333
     44 H023        3.6100   -0.7510    3.2090 hn        1 Z04      0.262000
     45 C15         1.9350    0.3060    2.4800 c2        1 Z04      0.327000
     46 N06        -6.2570   -0.0110    1.7530 nv        1 Z04     -0.328000
     47 N07         5.4190    0.3130   -0.9930 no        1 Z04      0.845400
@<TRIPOS>BOND
     1    1    8 1   
     2    1   12 1   
     3    1   25 1   
     4    2   26 1   
     5    2   27 1   
     6    2   44 1   
     7    2   45 1   
     8    3   14 1   
     9    3   15 1   
    10    4   15 1   
    11    4   16 1   
    12    5   10 1   
    13    5   17 1   
    14    5   19 1   
    15    6    7 1   
    16    6   11 1   
    17    6   30 1   
    18    7    8 1   
    19    7   45 1   
    20    8    9 1   
    21    9   10 1   
    22    9   31 1   
    23   10   11 1   
    24   11   47 1   
    25   12   13 1   
    26   12   32 1   
    27   12   33 1   
    28   13   14 1   
    29   13   16 1   
    30   14   34 1   
    31   15   46 1   
    32   16   35 1   
    33   17   36 1   
    34   17   37 1   
    35   17   39 1   
    36   18   22 1   
    37   18   38 1   
    38   19   40 1   
    39   20   22 1   
    40   20   41 1   
    41   20   42 1   
    42   20   43 1   
    43   21   45 1   
    44   23   47 2   
    45   24   47 2   
    46   28   46 1   
    47   29   46 1   
@<TRIPOS>SUBSTRUCTURE
     1 Z04         1 TEMP              0 ****  ****    0 ROOT
