@<TRIPOS>MOLECULE
Z04
   46    48     1     0     0
SMALL
bcc


@<TRIPOS>ATOM
      1 N01         1.5640   -0.5240   -0.1410 nh        1 Z04     -0.752600
      2 N02         0.2620   -4.3680   -0.4480 n         1 Z04     -0.665000
      3 N03         5.7030    0.5910   -1.3000 nb        1 Z04     -0.756000
      4 N04         5.6830    1.0820    1.1230 nb        1 Z04     -0.756000
      5 N05        -3.0340    1.1970   -0.0680 nh        1 Z04     -0.638000
      6 N06         7.7260    0.9620   -0.0970 nh        1 Z04     -0.940500
      7 N07        -4.0120   -1.5090    0.4230 no        1 Z04      0.332200
      8 C08        -1.6670   -2.2640    0.3100 ca        1 Z04      0.001000
      9 C09        -0.2990   -2.0640    0.1790 ca        1 Z04     -0.242600
     10 C11         0.2160   -0.7400    0.0180 ca        1 Z04      0.283600
     11 C12        -0.7160    0.3300   -0.0380 ca        1 Z04     -0.274000
     12 C13        -2.0980    0.1360    0.0800 ca        1 Z04      0.240600
     13 C14        -2.5680   -1.1920    0.2830 ca        1 Z04     -0.237200
     14 C16         2.1230    0.8090   -0.1140 c3        1 Z04      0.281100
     15 C17         3.6110    0.8050   -0.0990 ca        1 Z04     -0.430900
     16 C18         4.3660    0.5740   -1.2680 ca        1 Z04      0.495200
     17 C19         6.3460    0.8620   -0.0880 ca        1 Z04      0.892900
     18 C20         4.3470    1.0480    1.0800 ca        1 Z04      0.495200
     19 C21        -2.7020    2.1740   -1.0990 c3        1 Z04      0.142300
     20 C22        -3.8350    3.1960   -1.2780 c3        1 Z04      0.126400
     21 C23        -3.4310    1.8370    1.1850 c3        1 Z04      0.142300
     22 C24        -4.5330    2.8800    0.9550 c3        1 Z04      0.126400
     23 O25         1.6980   -3.2130    0.8740 o         1 Z04     -0.632100
     24 O26        -4.1640    3.8230   -0.0450 os        1 Z04     -0.416600
     25 O27        -4.4440   -2.4490   -0.1940 o         1 Z04     -0.212500
     26 O28        -4.7050   -0.8720    1.1680 o         1 Z04     -0.212500
     27 HN01        2.1830   -1.2720    0.1020 hn        1 Z04      0.464800
     28 HN02       -0.5650   -4.4040   -0.9860 hn        1 Z04      0.319000
     29 HN0A        0.8530   -5.1610   -0.4170 hn        1 Z04      0.319000
     30 HN06        8.2200    0.6580   -0.9010 hn        1 Z04      0.444800
     31 HN0B        8.2060    0.9960    0.7690 hn        1 Z04      0.444800
     32 H08        -2.0610   -3.2880    0.4500 ha        1 Z04      0.162000
     33 H12        -0.3400    1.3560   -0.1800 ha        1 Z04      0.151000
     34 H16         1.7630    1.3580   -1.0340 h1        1 Z04      0.048700
     35 H16A        1.7430    1.3730    0.7900 h1        1 Z04      0.048700
     36 H18         3.8680    0.3610   -2.2330 h4        1 Z04      0.031100
     37 H20         3.8360    1.2230    2.0460 h4        1 Z04      0.031100
     38 H21        -1.7580    2.7420   -0.8540 h1        1 Z04      0.053200
     39 H21A       -2.5450    1.6260   -2.0670 h1        1 Z04      0.053200
     40 H22        -3.4910    4.0330   -1.9400 h1        1 Z04      0.061450
     41 H22A       -4.7460    2.7070   -1.7110 h1        1 Z04      0.061450
     42 H23        -3.8220    1.0450    1.8830 h1        1 Z04      0.053200
     43 H23A       -2.5490    2.3450    1.6720 h1        1 Z04      0.053200
     44 H24        -5.4960    2.3810    0.6680 h1        1 Z04      0.061450
     45 H24A       -4.6740    3.4950    1.8820 h1        1 Z04      0.061450
     46 C15         0.6200   -3.2340    0.2350 c         1 Z04      0.684700
@<TRIPOS>BOND
     1    1   10 1   
     2    1   14 1   
     3    1   27 1   
     4    2   28 1   
     5    2   29 1   
     6    2   46 1   
     7    3   16 ar  
     8    3   17 ar  
     9    4   17 ar  
    10    4   18 ar  
    11    5   12 1   
    12    5   19 1   
    13    5   21 1   
    14    6   17 1   
    15    6   30 1   
    16    6   31 1   
    17    7   13 1   
    18    7   25 1   
    19    7   26 1   
    20    8    9 ar  
    21    8   13 ar  
    22    8   32 1   
    23    9   10 ar  
    24    9   46 1   
    25   10   11 ar  
    26   11   12 ar  
    27   11   33 1   
    28   12   13 ar  
    29   14   15 1   
    30   14   34 1   
    31   14   35 1   
    32   15   16 ar  
    33   15   18 ar  
    34   16   36 1   
    35   18   37 1   
    36   19   20 1   
    37   19   38 1   
    38   19   39 1   
    39   20   24 1   
    40   20   40 1   
    41   20   41 1   
    42   21   22 1   
    43   21   42 1   
    44   21   43 1   
    45   22   24 1   
    46   22   44 1   
    47   22   45 1   
    48   23   46 2   
@<TRIPOS>SUBSTRUCTURE
     1 Z04         1 TEMP              0 ****  ****    0 ROOT
