@<TRIPOS>MOLECULE
Z0A
   33    33     1     0     0
SMALL
bcc


@<TRIPOS>ATOM
      1 N1         -0.1770    0.1990   -0.3610 n4        1 Z0A     -0.846600
      2 C1          1.2630   -0.1240   -0.0830 c3        1 Z0A      0.127500
      3 C2          1.5350   -0.2690    1.4190 c3        1 Z0A     -0.094400
      4 C3          1.3570    1.0110    2.2080 c3        1 Z0A     -0.163700
      5 C4          1.6920   -1.4040   -0.8030 c3        1 Z0A     -0.117400
      6 C5         -0.0890    1.2090    2.6980 c         1 Z0A      0.696500
      7 O1         -1.0950    1.2000    1.9530 o         1 Z0A     -0.717500
      8 N2         -0.1110    1.3970    4.0500 n         1 Z0A     -0.530900
      9 C6          1.2110    1.3540    4.6430 c3        1 Z0A      0.079000
     10 C7          2.1960    1.0230    3.4980 c3        1 Z0A     -0.093400
     11 C8          1.5850   -1.3060   -2.3080 c3        1 Z0A     -0.210400
     12 C9          2.4780   -2.3160   -2.9970 c         1 Z0A      0.572100
     13 C10         2.1830   -2.5350   -4.4410 c3        1 Z0A     -0.203100
     14 O2          3.3800   -2.8940   -2.3870 o         1 Z0A     -0.505100
     15 H1         -0.7850   -0.4960    0.0850 hn        1 Z0A      0.465800
     16 H2          1.8620    0.7480   -0.4880 hx        1 Z0A      0.104700
     17 H3          0.8970   -1.0850    1.8530 hc        1 Z0A      0.093700
     18 H4          2.6070   -0.6030    1.5130 hc        1 Z0A      0.093700
     19 H5          1.6270    1.8990    1.5740 hc        1 Z0A      0.085700
     20 H6          2.7690   -1.6010   -0.5280 hc        1 Z0A      0.101200
     21 H7          1.1010   -2.2820   -0.4300 hc        1 Z0A      0.101200
     22 H8         -0.9280    1.5880    4.5770 hn        1 Z0A      0.359500
     23 H9          1.2450    0.5670    5.4450 h1        1 Z0A      0.073700
     24 H10         1.4580    2.3480    5.1090 h1        1 Z0A      0.073700
     25 H11         3.0010    1.7950    3.4400 hc        1 Z0A      0.077700
     26 H12         2.6770    0.0310    3.6820 hc        1 Z0A      0.077700
     27 H13         0.5310   -1.4800   -2.6500 hc        1 Z0A      0.064700
     28 H14         1.9020   -0.2880   -2.6640 hc        1 Z0A      0.064700
     29 H15         3.0480   -3.0350   -4.9450 hc        1 Z0A      0.078700
     30 H16         1.2870   -3.1980   -4.5400 hc        1 Z0A      0.078700
     31 H17         1.9730   -1.5660   -4.9530 hc        1 Z0A      0.078700
     32 H18        -0.4180    1.1170    0.0530 hn        1 Z0A      0.465800
     33 H131       -0.3470    0.2070   -1.3680 hn        1 Z0A      0.465800
@<TRIPOS>BOND
     1    1    2 1   
     2    1   15 1   
     3    1   32 1   
     4    1   33 1   
     5    2    3 1   
     6    2    5 1   
     7    2   16 1   
     8    3    4 1   
     9    3   17 1   
    10    3   18 1   
    11    4    6 1   
    12    4   10 1   
    13    4   19 1   
    14    5   11 1   
    15    5   20 1   
    16    5   21 1   
    17    6    7 2   
    18    6    8 1   
    19    8    9 1   
    20    8   22 1   
    21    9   10 1   
    22    9   23 1   
    23    9   24 1   
    24   10   25 1   
    25   10   26 1   
    26   11   12 1   
    27   11   27 1   
    28   11   28 1   
    29   12   13 1   
    30   12   14 2   
    31   13   29 1   
    32   13   30 1   
    33   13   31 1   
@<TRIPOS>SUBSTRUCTURE
     1 Z0A         1 TEMP              0 ****  ****    0 ROOT
