@<TRIPOS>MOLECULE
Z0A
   33    33     1     0     0
SMALL
bcc


@<TRIPOS>ATOM
      1 N1         -0.1780    0.2080   -0.3560 nz        1 Z0A     -0.846600
      2 C1          1.2600   -0.1180   -0.0790 c3        1 Z0A      0.127500
      3 C2          1.5320   -0.2690    1.4230 c3        1 Z0A     -0.094400
      4 C3          1.3560    1.0080    2.2170 c3        1 Z0A     -0.163700
      5 C4          1.6880   -1.3960   -0.8030 c3        1 Z0A     -0.117400
      6 C5         -0.0910    1.2060    2.7070 c         1 Z0A      0.696500
      7 O1         -1.0970    1.2020    1.9610 o         1 Z0A     -0.717500
      8 N2         -0.1130    1.3890    4.0600 ns        1 Z0A     -0.530900
      9 C6          1.2080    1.3420    4.6530 c3        1 Z0A      0.079000
     10 C7          2.1930    1.0140    3.5070 c3        1 Z0A     -0.093400
     11 C8          1.5830   -1.2910   -2.3080 c3        1 Z0A     -0.210400
     12 C9          2.4740   -2.3010   -3.0000 c         1 Z0A      0.572100
     13 C10         2.1810   -2.5130   -4.4450 c3        1 Z0A     -0.203100
     14 O2          3.3730   -2.8840   -2.3920 o         1 Z0A     -0.505100
     15 H1         -0.3480    0.2210   -1.3630 hn        1 Z0A      0.465800
     16 H2          1.8610    0.7550   -0.4790 hx        1 Z0A      0.104700
     17 H3          2.6030   -0.6050    1.5160 hc        1 Z0A      0.093700
     18 H4          0.8920   -1.0860    1.8530 hc        1 Z0A      0.093700
     19 H5          1.6270    1.8990    1.5870 hc        1 Z0A      0.085700
     20 H6          1.0960   -2.2740   -0.4340 hc        1 Z0A      0.101200
     21 H7          2.7640   -1.5960   -0.5280 hc        1 Z0A      0.101200
     22 H8         -0.9300    1.5790    4.5870 hn        1 Z0A      0.359500
     23 H9          1.4560    2.3330    5.1230 h1        1 Z0A      0.073700
     24 H10         1.2410    0.5510    5.4520 h1        1 Z0A      0.073700
     25 H11         2.9990    1.7850    3.4530 hc        1 Z0A      0.077700
     26 H12         2.6730    0.0210    3.6880 hc        1 Z0A      0.077700
     27 H13         0.5290   -1.4610   -2.6520 hc        1 Z0A      0.064700
     28 H14         1.9030   -0.2730   -2.6590 hc        1 Z0A      0.064700
     29 H15         1.9750   -1.5400   -4.9540 hc        1 Z0A      0.078700
     30 H16         3.0450   -3.0130   -4.9510 hc        1 Z0A      0.078700
     31 H17         1.2820   -3.1710   -4.5490 hc        1 Z0A      0.078700
     32 H18        -0.7880   -0.4880    0.0870 hn        1 Z0A      0.465800
     33 H131       -0.4190    1.1250    0.0610 hn        1 Z0A      0.465800
@<TRIPOS>BOND
     1    1    2 1   
     2    1   15 1   
     3    1   32 1   
     4    1   33 1   
     5    2    3 1   
     6    2    5 1   
     7    2   16 1   
     8    3    4 1   
     9    3   17 1   
    10    3   18 1   
    11    4    6 1   
    12    4   10 1   
    13    4   19 1   
    14    5   11 1   
    15    5   20 1   
    16    5   21 1   
    17    6    7 2   
    18    6    8 1   
    19    8    9 1   
    20    8   22 1   
    21    9   10 1   
    22    9   23 1   
    23    9   24 1   
    24   10   25 1   
    25   10   26 1   
    26   11   12 1   
    27   11   27 1   
    28   11   28 1   
    29   12   13 1   
    30   12   14 2   
    31   13   29 1   
    32   13   30 1   
    33   13   31 1   
@<TRIPOS>SUBSTRUCTURE
     1 Z0A         1 TEMP              0 ****  ****    0 ROOT
