@<TRIPOS>MOLECULE
Z0A
   32    32     1     0     0
SMALL
bcc


@<TRIPOS>ATOM
      1 N1          0.3740    1.3220   -1.1010 n3        1 Z0A     -0.915800
      2 C1          0.3730    0.2520   -0.1140 c3        1 Z0A      0.177500
      3 C2         -0.7650   -0.7570   -0.3630 c3        1 Z0A     -0.069400
      4 C3         -1.9820   -0.4950    0.5010 c3        1 Z0A     -0.140700
      5 C4          1.7080   -0.5110   -0.1030 c3        1 Z0A     -0.075400
      6 C5         -2.7270    0.7910    0.1240 c         1 Z0A      0.701500
      7 O1         -2.2690    1.9460    0.1450 o         1 Z0A     -0.649500
      8 N2         -4.0310    0.4900   -0.2260 n         1 Z0A     -0.584900
      9 C6         -4.3330   -0.9160   -0.1050 c3        1 Z0A      0.091000
     10 C7         -3.0310   -1.6090    0.3550 c3        1 Z0A     -0.094400
     11 C8          2.8810    0.3920    0.2060 c3        1 Z0A     -0.183400
     12 C9          4.1060   -0.3720    0.6250 c         1 Z0A      0.565100
     13 C10         5.3950    0.3670    0.4590 c3        1 Z0A     -0.205100
     14 O2          4.0620   -1.5180    1.0850 o         1 Z0A     -0.536100
     15 H1         -0.5390    1.7320   -1.1670 hn        1 Z0A      0.358300
     16 H2          0.2290    0.6720    0.9330 h1        1 Z0A      0.015700
     17 H3         -1.0600   -0.7630   -1.4450 hc        1 Z0A      0.059700
     18 H4         -0.3930   -1.7880   -0.1200 hc        1 Z0A      0.059700
     19 H5         -1.6680   -0.3960    1.5750 hc        1 Z0A      0.083700
     20 H6          1.6480   -1.3150    0.6780 hc        1 Z0A      0.059200
     21 H7          1.8680   -1.0110   -1.0930 hc        1 Z0A      0.059200
     22 H8         -4.7150    1.1610   -0.4540 hn        1 Z0A      0.333500
     23 H9         -5.1570   -1.0790    0.6430 h1        1 Z0A      0.043200
     24 H10        -4.6750   -1.3250   -1.0950 h1        1 Z0A      0.043200
     25 H11        -2.7130   -2.3700   -0.3990 hc        1 Z0A      0.059700
     26 H12        -3.1920   -2.1310    1.3290 hc        1 Z0A      0.059700
     27 H13         3.1340    1.0200   -0.6890 hc        1 Z0A      0.066700
     28 H14         2.6180    1.0920    1.0460 hc        1 Z0A      0.066700
     29 H15         5.3010    1.4020    0.8690 hc        1 Z0A      0.063367
     30 H16         6.2270   -0.1610    0.9850 hc        1 Z0A      0.063367
     31 H17         5.6440    0.4350   -0.6280 hc        1 Z0A      0.063367
     32 H18         1.0280    2.0280   -0.8280 hn        1 Z0A      0.358300
@<TRIPOS>BOND
     1    1    2 1   
     2    1   15 1   
     3    1   32 1   
     4    2    3 1   
     5    2    5 1   
     6    2   16 1   
     7    3    4 1   
     8    3   17 1   
     9    3   18 1   
    10    4    6 1   
    11    4   10 1   
    12    4   19 1   
    13    5   11 1   
    14    5   20 1   
    15    5   21 1   
    16    6    7 2   
    17    6    8 1   
    18    8    9 1   
    19    8   22 1   
    20    9   10 1   
    21    9   23 1   
    22    9   24 1   
    23   10   25 1   
    24   10   26 1   
    25   11   12 1   
    26   11   27 1   
    27   11   28 1   
    28   12   13 1   
    29   12   14 2   
    30   13   29 1   
    31   13   30 1   
    32   13   31 1   
@<TRIPOS>SUBSTRUCTURE
     1 Z0A         1 TEMP              0 ****  ****    0 ROOT
