@<TRIPOS>MOLECULE
Z0B
   19    21     1     0     0
SMALL
bcc


@<TRIPOS>ATOM
      1 CAO         0.8570    0.4360   -0.0000 ca        1 Z0B     -0.096300
      2 CAN         1.4210   -0.8660    0.0000 ca        1 Z0B     -0.133300
      3 CAH         2.8270   -0.9930    0.0010 ca        1 Z0B     -0.211300
      4 CAD         3.5990    0.1640    0.0020 ca        1 Z0B      0.380200
      5 CAL         1.7540    1.5480    0.0010 ca        1 Z0B      0.414200
      6 CAC        -2.7290    1.3520   -0.0020 cc        1 Z0B     -0.187400
      7 CAG        -1.3990    1.7000   -0.0010 cd        1 Z0B     -0.119200
      8 CAM        -0.5600    0.5420   -0.0010 ca        1 Z0B     -0.165100
      9 CAJ        -1.3310   -0.6560   -0.0020 ca        1 Z0B      0.352600
     10 NAC        -0.7860   -1.9180   -0.0010 nb        1 Z0B     -0.611000
     11 SAK        -2.9820   -0.3000   -0.0030 ss        1 Z0B      0.045100
     12 CAK         0.5270   -2.0020   -0.0010 ca        1 Z0B      0.421200
     13 N           3.0770    1.4240    0.0010 nb        1 Z0B     -0.651000
     14 HAL         1.3510    2.5770    0.0000 h4        1 Z0B      0.027100
     15 HAH         3.2930   -1.9870    0.0010 ha        1 Z0B      0.147000
     16 HAK         0.9580   -3.0210   -0.0000 h4        1 Z0B      0.028100
     17 HAD         4.7030    0.1170    0.0020 h4        1 Z0B      0.026100
     18 HAC        -3.5590    2.0590   -0.0030 h4        1 Z0B      0.176000
     19 HAG        -1.0100    2.7200   -0.0010 ha        1 Z0B      0.159000
@<TRIPOS>BOND
     1    1    2 ar  
     2    1    5 ar  
     3    1    8 ar  
     4    2    3 ar  
     5    2   12 ar  
     6    3    4 ar  
     7    3   15 1   
     8    4   13 ar  
     9    4   17 1   
    10    5   13 ar  
    11    5   14 1   
    12    6    7 2   
    13    6   11 1   
    14    6   18 1   
    15    7    8 1   
    16    7   19 1   
    17    8    9 ar  
    18    9   10 ar  
    19    9   11 1   
    20   10   12 ar  
    21   12   16 1   
@<TRIPOS>SUBSTRUCTURE
     1 Z0B         1 TEMP              0 ****  ****    0 ROOT
