@<TRIPOS>MOLECULE
Z0M
   53    55     1     0     0
SMALL
bcc


@<TRIPOS>ATOM
      1 CAZ        -0.3840   -0.3510    0.9050 c3        1 Z0M     -0.027300
      2 CAN         1.0900   -0.6890    0.9650 c3        1 Z0M     -0.151400
      3 CAL         1.8100    0.2600    1.8770 c         1 Z0M      0.573100
      4 OAM         1.3530    1.0000    2.7310 o         1 Z0M     -0.414100
      5 NAK         3.3260    0.3110    1.7010 ny        1 Z0M     -0.673800
      6 CAB         5.5340    0.6190    2.8800 c3        1 Z0M      0.129100
      7 OAG         5.4930    1.9800    2.5000 oh        1 Z0M     -0.619800
      8 CAA         6.2270    0.4230    4.2440 c3        1 Z0M      0.108100
      9 OAH         7.5390    0.9110    4.0360 oh        1 Z0M     -0.589800
     10 CAF         6.2800   -1.0750    4.6510 c3        1 Z0M      0.006000
     11 CAI         6.5730   -1.1580    6.1680 c3        1 Z0M      0.122400
     12 OAJ         6.9180   -2.5030    6.4370 oh        1 Z0M     -0.601800
     13 NAE         5.0830   -1.7850    4.2660 na        1 Z0M     -0.150900
     14 CAQ         4.7320   -3.0970    4.5520 cc        1 Z0M     -0.177600
     15 CAD         4.0480   -1.2550    3.4770 cc        1 Z0M      0.272800
     16 NAO         3.0750   -2.1790    3.2470 nd        1 Z0M     -0.674000
     17 CAP         3.4850   -3.3320    3.9080 cd        1 Z0M      0.321600
     18 CAR         2.7500   -4.6170    3.9160 c3        1 Z0M     -0.104700
     19 CAS         1.2510   -4.4350    4.0810 c3        1 Z0M     -0.022100
     20 CAT         0.5520   -5.7490    4.1380 ca        1 Z0M     -0.100300
     21 CAU        -0.0220   -6.1960    5.3330 ca        1 Z0M     -0.127500
     22 CAV        -0.6870   -7.4200    5.3770 ca        1 Z0M     -0.122500
     23 CAW        -0.7840   -8.2070    4.2300 ca        1 Z0M     -0.120000
     24 CAC         4.0600    0.1620    3.0050 c3        1 Z0M      0.129200
     25 CAX        -0.2130   -7.7670    3.0350 ca        1 Z0M     -0.122500
     26 CAY         0.4510   -6.5430    2.9890 ca        1 Z0M     -0.127500
     27 SAZ        -1.1880   -1.3640   -0.2820 sh        1 Z0M     -0.294900
     28 HAZ1       -0.5290    0.7050    0.5570 h1        1 Z0M      0.101700
     29 HAZ2       -0.8430   -0.4320    1.9210 h1        1 Z0M      0.101700
     30 HAN1        1.5270   -0.6600   -0.0710 hc        1 Z0M      0.119200
     31 HAN2        1.2340   -1.7320    1.3730 hc        1 Z0M      0.119200
     32 HAZ        -1.5220   -2.3930    0.4810 hs        1 Z0M      0.212800
     33 HAK         3.5900    1.2270    1.3090 hn        1 Z0M      0.467300
     34 HAC         3.5240    0.8320    3.7510 hx        1 Z0M      0.143700
     35 HAB         6.0840    0.0240    2.0960 h1        1 Z0M      0.082700
     36 HAG         6.3850    2.3440    2.6180 ho        1 Z0M      0.465000
     37 HAA         5.6990    1.0260    5.0330 h1        1 Z0M      0.075700
     38 HAH         7.9640    0.9990    4.9000 ho        1 Z0M      0.436000
     39 HAF         7.1530   -1.5610    4.1100 h1        1 Z0M      0.114700
     40 HAI1        5.6830   -0.8490    6.7770 h1        1 Z0M      0.046700
     41 HAI2        7.4390   -0.4790    6.3970 h1        1 Z0M      0.046700
     42 HAJ         7.1650   -2.5520    7.3700 ho        1 Z0M      0.432000
     43 HAQ         5.3590   -3.7430    5.1730 h4        1 Z0M      0.222000
     44 HAR1        2.9560   -5.1640    2.9550 hc        1 Z0M      0.068200
     45 HAR2        3.1470   -5.2500    4.7550 hc        1 Z0M      0.068200
     46 HAS1        0.8470   -3.8420    3.2170 hc        1 Z0M      0.047200
     47 HAS2        1.0460   -3.8470    5.0140 hc        1 Z0M      0.047200
     48 HAU         0.0490   -5.5790    6.2410 ha        1 Z0M      0.128000
     49 HAY         0.9000   -6.1980    2.0460 ha        1 Z0M      0.128000
     50 HAV        -1.1370   -7.7650    6.3210 ha        1 Z0M      0.139000
     51 HAW        -1.3090   -9.1740    4.2670 ha        1 Z0M      0.141000
     52 HAX        -0.2880   -8.3860    2.1290 ha        1 Z0M      0.139000
     53 HAK2        3.6190   -0.4300    1.0570 hn        1 Z0M      0.467300
@<TRIPOS>BOND
     1    1    2 1   
     2    1   27 1   
     3    1   28 1   
     4    1   29 1   
     5    2    3 1   
     6    2   30 1   
     7    2   31 1   
     8    3    4 2   
     9    3    5 1   
    10    5   24 1   
    11    5   33 1   
    12    5   53 1   
    13    6    7 1   
    14    6    8 1   
    15    6   24 1   
    16    6   35 1   
    17    7   36 1   
    18    8    9 1   
    19    8   10 1   
    20    8   37 1   
    21    9   38 1   
    22   10   11 1   
    23   10   13 1   
    24   10   39 1   
    25   11   12 1   
    26   11   40 1   
    27   11   41 1   
    28   12   42 1   
    29   13   14 1   
    30   13   15 1   
    31   14   17 2   
    32   14   43 1   
    33   15   16 2   
    34   15   24 1   
    35   16   17 1   
    36   17   18 1   
    37   18   19 1   
    38   18   44 1   
    39   18   45 1   
    40   19   20 1   
    41   19   46 1   
    42   19   47 1   
    43   20   21 ar  
    44   20   26 ar  
    45   21   22 ar  
    46   21   48 1   
    47   22   23 ar  
    48   22   50 1   
    49   23   25 ar  
    50   23   51 1   
    51   24   34 1   
    52   25   26 ar  
    53   25   52 1   
    54   26   49 1   
    55   27   32 1   
@<TRIPOS>SUBSTRUCTURE
     1 Z0M         1 TEMP              0 ****  ****    0 ROOT
