@<TRIPOS>MOLECULE
Z0M
   53    55     1     0     0
SMALL
bcc


@<TRIPOS>ATOM
      1 CAZ        -0.3600   -0.3700    0.8630 c3        1 Z0M     -0.027300
      2 CAN         1.1130   -0.7110    0.9380 c3        1 Z0M     -0.151400
      3 CAL         1.8290    0.2460    1.8450 c         1 Z0M      0.573100
      4 OAM         1.3670    0.9960    2.6880 o         1 Z0M     -0.414100
      5 NAK         3.3460    0.2920    1.6800 n4        1 Z0M     -0.673800
      6 CAB         5.5460    0.6070    2.8720 c3        1 Z0M      0.129100
      7 OAG         5.5110    1.9640    2.4790 oh        1 Z0M     -0.619800
      8 CAA         6.2280    0.4230    4.2430 c3        1 Z0M      0.108100
      9 OAH         7.5430    0.9060    4.0400 oh        1 Z0M     -0.589800
     10 CAF         6.2750   -1.0710    4.6660 c3        1 Z0M      0.006000
     11 CAI         6.5570   -1.1390    6.1850 c3        1 Z0M      0.122400
     12 OAJ         6.8960   -2.4820    6.4710 oh        1 Z0M     -0.601800
     13 NAE         5.0790   -1.7820    4.2790 na        1 Z0M     -0.150900
     14 CAQ         4.7220   -3.0900    4.5750 cc        1 Z0M     -0.178600
     15 CAD         4.0510   -1.2570    3.4770 cc        1 Z0M      0.272800
     16 NAO         3.0780   -2.1810    3.2490 nd        1 Z0M     -0.674000
     17 CAP         3.4800   -3.3290    3.9250 cd        1 Z0M      0.321600
     18 CAR         2.7420   -4.6120    3.9410 c3        1 Z0M     -0.104700
     19 CAS         1.2400   -4.4260    4.0790 c3        1 Z0M     -0.022100
     20 CAT         0.5390   -5.7370    4.1440 ca        1 Z0M     -0.100300
     21 CAU        -0.0540   -6.1650    5.3370 ca        1 Z0M     -0.127500
     22 CAV        -0.7230   -7.3880    5.3890 ca        1 Z0M     -0.122500
     23 CAW        -0.8030   -8.1920    4.2530 ca        1 Z0M     -0.120000
     24 CAC         4.0690    0.1540    2.9910 c3        1 Z0M      0.129200
     25 CAX        -0.2130   -7.7700    3.0610 ca        1 Z0M     -0.122500
     26 CAY         0.4540   -6.5480    3.0060 ca        1 Z0M     -0.127500
     27 SAZ        -1.1570   -1.3930   -0.3190 sh        1 Z0M     -0.294900
     28 HAZ1       -0.4990    0.6820    0.5020 h1        1 Z0M      0.101700
     29 HAZ2       -0.8270   -0.4390    1.8760 h1        1 Z0M      0.101700
     30 HAN1        1.5580   -0.6940   -0.0950 hc        1 Z0M      0.119200
     31 HAN2        1.2520   -1.7490    1.3580 hc        1 Z0M      0.119200
     32 HAZ        -1.4990   -2.4130    0.4520 hs        1 Z0M      0.212800
     33 HAK         3.6150    1.2040    1.2810 hn        1 Z0M      0.467300
     34 HAC         3.5300    0.8330    3.7260 hx        1 Z0M      0.143700
     35 HAB         6.1000    0.0030    2.0980 h1        1 Z0M      0.082700
     36 HAG         6.4030    2.3270    2.5990 ho        1 Z0M      0.465000
     37 HAA         5.6950    1.0360    5.0230 h1        1 Z0M      0.075700
     38 HAH         7.9620    1.0020    4.9060 ho        1 Z0M      0.436000
     39 HAF         7.1500   -1.5640    4.1360 h1        1 Z0M      0.114700
     40 HAI1        7.4220   -0.4600    6.4150 h1        1 Z0M      0.046700
     41 HAI2        5.6620   -0.8220    6.7850 h1        1 Z0M      0.046700
     42 HAJ         7.1360   -2.5230    7.4060 ho        1 Z0M      0.432000
     43 HAQ         5.3440   -3.7310    5.2080 h4        1 Z0M      0.222000
     44 HAR1        3.1250   -5.2340    4.7940 hc        1 Z0M      0.068200
     45 HAR2        2.9620   -5.1730    2.9910 hc        1 Z0M      0.068200
     46 HAS1        0.8510   -3.8440    3.2000 hc        1 Z0M      0.047200
     47 HAS2        1.0220   -3.8230    5.0000 hc        1 Z0M      0.047200
     48 HAU         0.0040   -5.5350    6.2370 ha        1 Z0M      0.128000
     49 HAY         0.9180   -6.2180    2.0650 ha        1 Z0M      0.128000
     50 HAV        -1.1880   -7.7180    6.3310 ha        1 Z0M      0.139000
     51 HAW        -1.3300   -9.1570    4.2960 ha        1 Z0M      0.141000
     52 HAX        -0.2750   -8.4030    2.1630 ha        1 Z0M      0.139000
     53 HAK2        3.6420   -0.4560    1.0460 hn        1 Z0M      0.467300
@<TRIPOS>BOND
     1    1    2 1   
     2    1   27 1   
     3    1   28 1   
     4    1   29 1   
     5    2    3 1   
     6    2   30 1   
     7    2   31 1   
     8    3    4 2   
     9    3    5 1   
    10    5   24 1   
    11    5   33 1   
    12    5   53 1   
    13    6    7 1   
    14    6    8 1   
    15    6   24 1   
    16    6   35 1   
    17    7   36 1   
    18    8    9 1   
    19    8   10 1   
    20    8   37 1   
    21    9   38 1   
    22   10   11 1   
    23   10   13 1   
    24   10   39 1   
    25   11   12 1   
    26   11   40 1   
    27   11   41 1   
    28   12   42 1   
    29   13   14 1   
    30   13   15 1   
    31   14   17 2   
    32   14   43 1   
    33   15   16 2   
    34   15   24 1   
    35   16   17 1   
    36   17   18 1   
    37   18   19 1   
    38   18   44 1   
    39   18   45 1   
    40   19   20 1   
    41   19   46 1   
    42   19   47 1   
    43   20   21 ar  
    44   20   26 ar  
    45   21   22 ar  
    46   21   48 1   
    47   22   23 ar  
    48   22   50 1   
    49   23   25 ar  
    50   23   51 1   
    51   24   34 1   
    52   25   26 ar  
    53   25   52 1   
    54   26   49 1   
    55   27   32 1   
@<TRIPOS>SUBSTRUCTURE
     1 Z0M         1 TEMP              0 ****  ****    0 ROOT
