@<TRIPOS>MOLECULE
Z0M
   52    54     1     0     0
SMALL
bcc


@<TRIPOS>ATOM
      1 CAZ         3.0230    4.9540    0.7620 c3        1 Z0M      0.015700
      2 CAN         2.2770    3.9450   -0.0720 c3        1 Z0M     -0.139400
      3 CAL         2.5420    2.5390    0.4300 c         1 Z0M      0.669100
      4 OAM         3.2690    2.3030    1.4190 o         1 Z0M     -0.633100
      5 NAK         1.9660    1.5000   -0.2780 n         1 Z0M     -0.553900
      6 CAB         3.2800   -0.6220   -0.2810 c3        1 Z0M      0.093100
      7 OAG         4.4970   -0.0030    0.0800 oh        1 Z0M     -0.602800
      8 CAA         3.2570   -2.0470    0.3050 c3        1 Z0M      0.108100
      9 OAH         4.4200   -2.7680   -0.0620 oh        1 Z0M     -0.601800
     10 CAF         2.0590   -2.8590   -0.2520 c3        1 Z0M      0.048000
     11 CAI         1.9240   -4.1420    0.5960 c3        1 Z0M      0.118400
     12 OAJ         1.0420   -5.0120   -0.0950 oh        1 Z0M     -0.608800
     13 NAE         0.8610   -2.0580   -0.2960 na        1 Z0M     -0.184900
     14 CAQ        -0.4330   -2.4840   -0.5760 cc        1 Z0M     -0.211600
     15 CAD         0.8050   -0.6590   -0.1330 cc        1 Z0M      0.350800
     16 NAO        -0.4600   -0.2000   -0.2990 nd        1 Z0M     -0.655000
     17 CAP        -1.2430   -1.3250   -0.5750 cd        1 Z0M      0.288600
     18 CAR        -2.6970   -1.2860   -0.8410 c3        1 Z0M     -0.089700
     19 CAS        -3.4770   -0.7510    0.3490 c3        1 Z0M     -0.035100
     20 CAT        -4.9390   -0.7260    0.0700 ca        1 Z0M     -0.078300
     21 CAU        -5.7960   -1.6520    0.6750 ca        1 Z0M     -0.128000
     22 CAV        -7.1660   -1.6160    0.4170 ca        1 Z0M     -0.128500
     23 CAW        -7.6920   -0.6550   -0.4470 ca        1 Z0M     -0.134000
     24 CAC         2.0290    0.1490    0.2200 c3        1 Z0M      0.071400
     25 CAX        -6.8430    0.2710   -1.0520 ca        1 Z0M     -0.128500
     26 CAY        -5.4730    0.2370   -0.7960 ca        1 Z0M     -0.128000
     27 SAZ         2.6500    6.5510    0.0910 sh        1 Z0M     -0.384900
     28 HAZ1        2.7060    4.8850    1.8310 h1        1 Z0M      0.078700
     29 HAZ2        4.1220    4.7520    0.7260 h1        1 Z0M      0.078700
     30 HAN1        1.1730    4.1480   -0.0260 hc        1 Z0M      0.085200
     31 HAN2        2.5990    4.0230   -1.1470 hc        1 Z0M      0.085200
     32 HAZ         3.3620    7.2930    0.9210 hs        1 Z0M      0.210800
     33 HAK         1.3320    1.6970   -1.0160 hn        1 Z0M      0.334500
     34 HAC         2.0960    0.1960    1.3560 h1        1 Z0M      0.089700
     35 HAB         3.3060   -0.6750   -1.4060 h1        1 Z0M      0.094700
     36 HAG         4.3730    0.4530    0.9260 ho        1 Z0M      0.435000
     37 HAA         3.2060   -1.9970    1.4290 h1        1 Z0M      0.052700
     38 HAH         5.1550   -2.1360   -0.0740 ho        1 Z0M      0.434000
     39 HAF         2.3040   -3.1790   -1.3120 h1        1 Z0M      0.095700
     40 HAI1        2.9460   -4.6000    0.6850 h1        1 Z0M      0.050700
     41 HAI2        1.5170   -3.9180    1.6170 h1        1 Z0M      0.050700
     42 HAJ         1.1060   -5.8710    0.3390 ho        1 Z0M      0.411000
     43 HAQ        -0.6680   -3.5370   -0.7410 h4        1 Z0M      0.202000
     44 HAR1       -2.9000   -0.6390   -1.7380 hc        1 Z0M      0.053200
     45 HAR2       -3.0470   -2.3240   -1.0870 hc        1 Z0M      0.053200
     46 HAS1       -3.2660   -1.3870    1.2490 hc        1 Z0M      0.057200
     47 HAS2       -3.1260    0.2890    0.5870 hc        1 Z0M      0.057200
     48 HAU        -5.3880   -2.4100    1.3590 ha        1 Z0M      0.131500
     49 HAY        -4.8040    0.9690   -1.2720 ha        1 Z0M      0.131500
     50 HAV        -7.8330   -2.3460    0.8980 ha        1 Z0M      0.129500
     51 HAW        -8.7720   -0.6270   -0.6490 ha        1 Z0M      0.129000
     52 HAX        -7.2540    1.0310   -1.7330 ha        1 Z0M      0.129500
@<TRIPOS>BOND
     1    1    2 1   
     2    1   27 1   
     3    1   28 1   
     4    1   29 1   
     5    2    3 1   
     6    2   30 1   
     7    2   31 1   
     8    3    4 2   
     9    3    5 1   
    10    5   24 1   
    11    5   33 1   
    12    6    7 1   
    13    6    8 1   
    14    6   24 1   
    15    6   35 1   
    16    7   36 1   
    17    8    9 1   
    18    8   10 1   
    19    8   37 1   
    20    9   38 1   
    21   10   11 1   
    22   10   13 1   
    23   10   39 1   
    24   11   12 1   
    25   11   40 1   
    26   11   41 1   
    27   12   42 1   
    28   13   14 1   
    29   13   15 1   
    30   14   17 2   
    31   14   43 1   
    32   15   16 2   
    33   15   24 1   
    34   16   17 1   
    35   17   18 1   
    36   18   19 1   
    37   18   44 1   
    38   18   45 1   
    39   19   20 1   
    40   19   46 1   
    41   19   47 1   
    42   20   21 ar  
    43   20   26 ar  
    44   21   22 ar  
    45   21   48 1   
    46   22   23 ar  
    47   22   50 1   
    48   23   25 ar  
    49   23   51 1   
    50   24   34 1   
    51   25   26 ar  
    52   25   52 1   
    53   26   49 1   
    54   27   32 1   
@<TRIPOS>SUBSTRUCTURE
     1 Z0M         1 TEMP              0 ****  ****    0 ROOT
