@<TRIPOS>MOLECULE
Z0O
   36    37     1     0     0
SMALL
bcc


@<TRIPOS>ATOM
      1 O           1.0890   -1.9080   -0.3340 o         1 Z0O     -0.278100
      2 C           1.7100   -0.9030   -0.0340 c         1 Z0O      0.467100
      3 N3          2.2150   -0.7250    1.3550 n4        1 Z0O     -0.681800
      4 C9          1.1610   -0.0810    2.3250 c3        1 Z0O      0.186200
      5 C12         0.0390   -1.0840    2.5660 c3        1 Z0O     -0.153433
      6 C11         1.8970    0.2190    3.6310 c3        1 Z0O     -0.153433
      7 C10         0.6250    1.2020    1.7100 c3        1 Z0O     -0.153433
      8 N           1.9970    0.1830   -1.0410 n4        1 Z0O     -0.488200
      9 C1          1.2000    0.0360   -2.2660 ca        1 Z0O     -0.102400
     10 C8         -0.0620    0.6940   -2.3370 ca        1 Z0O     -0.139000
     11 C7         -0.7960    0.6250   -3.4940 ca        1 Z0O     -0.089300
     12 C6         -0.3150   -0.1100   -4.6210 ca        1 Z0O      0.345300
     13 C3          0.9550   -0.7810   -4.5310 ca        1 Z0O      0.276300
     14 C2          1.7040   -0.7090   -3.3280 ca        1 Z0O     -0.070300
     15 N2         -1.0690   -0.1720   -5.7860 nb        1 Z0O     -0.608000
     16 C5         -0.5650   -0.8650   -6.7880 ca        1 Z0O      0.372900
     17 C4          0.7250   -1.5440   -6.6960 ca        1 Z0O      0.345900
     18 N1          1.4620   -1.5070   -5.6070 nb        1 Z0O     -0.607000
     19 H3          3.0720   -0.1620    1.3920 hn        1 Z0O      0.487800
     20 H           2.9990    0.1410   -1.2960 hn        1 Z0O      0.490800
     21 H121       -0.7290   -0.5960    3.2230 hc        1 Z0O      0.096478
     22 H122        0.4080   -1.9960    3.1000 hc        1 Z0O      0.096478
     23 H123       -0.4650   -1.3880    1.6160 hc        1 Z0O      0.096478
     24 H111        2.3330   -0.7040    4.0880 hc        1 Z0O      0.096478
     25 H112        1.1470    0.6310    4.3590 hc        1 Z0O      0.096478
     26 H113        2.6960    0.9880    3.4940 hc        1 Z0O      0.096478
     27 H101        1.4370    1.9310    1.4680 hc        1 Z0O      0.096478
     28 H102       -0.0110    1.0000    0.8130 hc        1 Z0O      0.096478
     29 H103       -0.0380    1.6980    2.4730 hc        1 Z0O      0.096478
     30 H8         -0.4520    1.2720   -1.4830 ha        1 Z0O      0.152000
     31 H2          2.6730   -1.2410   -3.2780 ha        1 Z0O      0.179000
     32 H7         -1.7730    1.1430   -3.5680 ha        1 Z0O      0.206000
     33 H5         -1.1580   -0.9180   -7.7240 h4        1 Z0O      0.084100
     34 H4          1.1150   -2.1170   -7.5630 h4        1 Z0O      0.082100
     35 H32         2.4220   -1.6690    1.7330 hn        1 Z0O      0.487800
     36 HN3         1.7820    1.1070   -0.6270 hn        1 Z0O      0.490800
@<TRIPOS>BOND
     1    1    2 2   
     2    2    3 1   
     3    2    8 1   
     4    3    4 1   
     5    3   19 1   
     6    3   35 1   
     7    4    5 1   
     8    4    6 1   
     9    4    7 1   
    10    5   21 1   
    11    5   22 1   
    12    5   23 1   
    13    6   24 1   
    14    6   25 1   
    15    6   26 1   
    16    7   27 1   
    17    7   28 1   
    18    7   29 1   
    19    8    9 1   
    20    8   20 1   
    21    8   36 1   
    22    9   10 ar  
    23    9   14 ar  
    24   10   11 ar  
    25   10   30 1   
    26   11   12 ar  
    27   11   32 1   
    28   12   13 ar  
    29   12   15 ar  
    30   13   14 ar  
    31   13   18 ar  
    32   14   31 1   
    33   15   16 ar  
    34   16   17 ar  
    35   16   33 1   
    36   17   18 ar  
    37   17   34 1   
@<TRIPOS>SUBSTRUCTURE
     1 Z0O         1 TEMP              0 ****  ****    0 ROOT
