@<TRIPOS>MOLECULE
Z0O
   35    36     1     0     0
SMALL
bcc


@<TRIPOS>ATOM
      1 O           0.1900    1.9260   -0.0570 o         1 Z0O     -0.486100
      2 C           1.1010    1.0940    0.0040 c         1 Z0O      0.643100
      3 N3          1.7960    1.0640    1.3720 ny        1 Z0O     -0.677800
      4 C9          1.3580   -0.0910    2.2720 c3        1 Z0O      0.155200
      5 C12         1.7760   -1.4330    1.6720 c3        1 Z0O     -0.131767
      6 C11         2.0410    0.0840    3.6340 c3        1 Z0O     -0.131767
      7 C10        -0.1590   -0.0580    2.4600 c3        1 Z0O     -0.131767
      8 N           1.6210    0.3000   -0.9830 ns        1 Z0O     -0.411100
      9 C1          0.9990    0.1780   -2.2620 ca        1 Z0O      0.006600
     10 C8          0.3750    1.2980   -2.8830 ca        1 Z0O     -0.130000
     11 C7         -0.1640    1.1810   -4.1390 ca        1 Z0O     -0.117300
     12 C6         -0.1100   -0.0560   -4.8450 ca        1 Z0O      0.294300
     13 C3          0.5150   -1.1870   -4.2170 ca        1 Z0O      0.293300
     14 C2          1.0620   -1.0500   -2.9110 ca        1 Z0O     -0.165300
     15 N2         -0.6560   -0.1610   -6.1190 nb        1 Z0O     -0.609000
     16 C5         -0.5690   -1.3360   -6.7080 ca        1 Z0O      0.319900
     17 C4          0.0630   -2.4800   -6.0720 ca        1 Z0O      0.319900
     18 N1          0.5900   -2.4160   -4.8660 nb        1 Z0O     -0.622000
     19 H3          1.5300    1.9420    1.8430 hn        1 Z0O      0.460800
     20 H           2.2760   -0.4190   -0.7510 hn        1 Z0O      0.343500
     21 H121        1.1230   -1.7160    0.8110 hc        1 Z0O      0.078589
     22 H122        1.6520   -2.2210    2.4590 hc        1 Z0O      0.078589
     23 H123        2.8470   -1.4360    1.3550 hc        1 Z0O      0.078589
     24 H111        1.6820   -0.7290    4.3140 hc        1 Z0O      0.078589
     25 H112        1.7780    1.0640    4.1020 hc        1 Z0O      0.078589
     26 H113        3.1510   -0.0000    3.5460 hc        1 Z0O      0.078589
     27 H101       -0.6960   -0.1100    1.4810 hc        1 Z0O      0.078589
     28 H102       -0.4790    0.8680    2.9980 hc        1 Z0O      0.078589
     29 H103       -0.4570   -0.9440    3.0740 hc        1 Z0O      0.078589
     30 H8          0.3160    2.2640   -2.3530 ha        1 Z0O      0.165000
     31 H2          1.5400   -1.9310   -2.4500 ha        1 Z0O      0.157000
     32 H7         -0.6460    2.0520   -4.6190 ha        1 Z0O      0.178000
     33 H5         -0.9990   -1.4330   -7.7220 h4        1 Z0O      0.055100
     34 H4          0.1140   -3.4500   -6.6010 h4        1 Z0O      0.053100
     35 H32         2.8130    1.0360    1.2720 hn        1 Z0O      0.460800
@<TRIPOS>BOND
     1    1    2 2   
     2    2    3 1   
     3    2    8 1   
     4    3    4 1   
     5    3   19 1   
     6    3   35 1   
     7    4    5 1   
     8    4    6 1   
     9    4    7 1   
    10    5   21 1   
    11    5   22 1   
    12    5   23 1   
    13    6   24 1   
    14    6   25 1   
    15    6   26 1   
    16    7   27 1   
    17    7   28 1   
    18    7   29 1   
    19    8    9 1   
    20    8   20 1   
    21    9   10 ar  
    22    9   14 ar  
    23   10   11 ar  
    24   10   30 1   
    25   11   12 ar  
    26   11   32 1   
    27   12   13 ar  
    28   12   15 ar  
    29   13   14 ar  
    30   13   18 ar  
    31   14   31 1   
    32   15   16 ar  
    33   16   17 ar  
    34   16   33 1   
    35   17   18 ar  
    36   17   34 1   
@<TRIPOS>SUBSTRUCTURE
     1 Z0O         1 TEMP              0 ****  ****    0 ROOT
