@<TRIPOS>MOLECULE
Z0O
   34    35     1     0     0
SMALL
bcc


@<TRIPOS>ATOM
      1 O           1.8650   -1.1040   -0.5300 o         1 Z0O     -0.620100
      2 C           1.9230    0.0350   -0.0150 c         1 Z0O      0.761100
      3 N3          3.1240    0.7650    0.0480 n         1 Z0O     -0.540900
      4 C9          4.4120    0.1000   -0.1850 c3        1 Z0O      0.116400
      5 C12         4.5340   -0.3820   -1.6390 c3        1 Z0O     -0.109100
      6 C11         5.5510    1.1030    0.0740 c3        1 Z0O     -0.109100
      7 C10         4.6340   -1.1070    0.7410 c3        1 Z0O     -0.109100
      8 N           0.7640    0.6640    0.5130 n         1 Z0O     -0.467100
      9 C1         -0.5420    0.1900    0.2950 ca        1 Z0O      0.085600
     10 C8         -0.8290   -1.2100    0.2100 ca        1 Z0O     -0.125000
     11 C7         -2.1170   -1.6570    0.0750 ca        1 Z0O     -0.141300
     12 C6         -3.2120   -0.7450    0.0210 ca        1 Z0O      0.263300
     13 C3         -2.9360    0.6640    0.1060 ca        1 Z0O      0.309300
     14 C2         -1.5920    1.1070    0.2360 ca        1 Z0O     -0.232300
     15 N2         -4.5110   -1.2120   -0.1110 nb        1 Z0O     -0.613000
     16 C5         -5.4670   -0.3040   -0.1540 ca        1 Z0O      0.282900
     17 C4         -5.1910    1.1160   -0.0680 ca        1 Z0O      0.298900
     18 N1         -3.9690    1.5930    0.0590 nb        1 Z0O     -0.630000
     19 H3          3.1740    1.5000    0.7190 hn        1 Z0O      0.293500
     20 H           0.8180    1.6470    0.6780 hn        1 Z0O      0.308500
     21 H121        4.4240    0.4730   -2.3480 hc        1 Z0O      0.047700
     22 H122        5.5410   -0.8410   -1.7830 hc        1 Z0O      0.047700
     23 H123        3.7510   -1.1460   -1.8660 hc        1 Z0O      0.047700
     24 H111        5.5520    1.4450    1.1370 hc        1 Z0O      0.047700
     25 H112        6.5250    0.5990   -0.1360 hc        1 Z0O      0.047700
     26 H113        5.4600    1.9920   -0.5950 hc        1 Z0O      0.047700
     27 H101        3.8470   -1.8810    0.5640 hc        1 Z0O      0.047700
     28 H102        5.6320   -1.5560    0.5250 hc        1 Z0O      0.047700
     29 H103        4.6070   -0.7970    1.8120 hc        1 Z0O      0.047700
     30 H8          0.0010   -1.9370    0.2430 ha        1 Z0O      0.177000
     31 H2         -1.4060    2.1920    0.2930 ha        1 Z0O      0.149000
     32 H7         -2.3200   -2.7390    0.0060 ha        1 Z0O      0.156000
     33 H5         -6.5060   -0.6600   -0.2590 h4        1 Z0O      0.033100
     34 H4         -6.0200    1.8430   -0.1080 h4        1 Z0O      0.032100
@<TRIPOS>BOND
     1    1    2 2   
     2    2    3 1   
     3    2    8 1   
     4    3    4 1   
     5    3   19 1   
     6    4    5 1   
     7    4    6 1   
     8    4    7 1   
     9    5   21 1   
    10    5   22 1   
    11    5   23 1   
    12    6   24 1   
    13    6   25 1   
    14    6   26 1   
    15    7   27 1   
    16    7   28 1   
    17    7   29 1   
    18    8    9 1   
    19    8   20 1   
    20    9   10 ar  
    21    9   14 ar  
    22   10   11 ar  
    23   10   30 1   
    24   11   12 ar  
    25   11   32 1   
    26   12   13 ar  
    27   12   15 ar  
    28   13   14 ar  
    29   13   18 ar  
    30   14   31 1   
    31   15   16 ar  
    32   16   17 ar  
    33   16   33 1   
    34   17   18 ar  
    35   17   34 1   
@<TRIPOS>SUBSTRUCTURE
     1 Z0O         1 TEMP              0 ****  ****    0 ROOT
