@<TRIPOS>MOLECULE
Z0P
  112   111     1     0     0
SMALL
bcc


@<TRIPOS>ATOM
      1 O1         -0.7680   -0.8020   -0.1570 oh        1 Z0P     -0.595800
      2 C1          0.3890   -0.0820   -0.5190 c3        1 Z0P      0.122400
      3 O2         -0.2370    1.1810    1.8850 os        1 Z0P     -0.455900
      4 C2          1.4150    0.0090    0.6120 c3        1 Z0P      0.102100
      5 O3          1.3600   -1.1820    1.4130 os        1 Z0P     -0.435900
      6 C3          1.1620    1.1720    1.5710 c3        1 Z0P      0.136400
      7 O4          2.7390   -2.1660   -0.0490 o         1 Z0P     -0.543000
      8 C4         -0.6400    2.0230    2.8890 c         1 Z0P      0.637100
      9 O5          0.2110    2.7320    3.4250 o         1 Z0P     -0.536000
     10 C5         -2.1060    1.9140    3.1720 c3        1 Z0P     -0.127400
     11 C6         -2.7150    3.2790    3.4120 c3        1 Z0P     -0.079400
     12 C7         -4.1630    3.1530    3.8330 c3        1 Z0P     -0.079400
     13 C8         -4.7850    4.5150    4.0570 c3        1 Z0P     -0.079400
     14 C9         -6.2320    4.3930    4.4820 c3        1 Z0P     -0.079400
     15 C10        -6.8550    5.7540    4.7050 c3        1 Z0P     -0.079400
     16 C11        -8.3030    5.6330    5.1300 c3        1 Z0P     -0.079400
     17 C12        -8.9260    6.9940    5.3520 c3        1 Z0P     -0.079400
     18 C13       -10.3740    6.8720    5.7770 c3        1 Z0P     -0.079400
     19 C14       -10.9980    8.2340    5.9990 c3        1 Z0P     -0.079400
     20 C15       -12.4460    8.1120    6.4230 c3        1 Z0P     -0.079400
     21 C16       -13.0690    9.4730    6.6450 c3        1 Z0P     -0.079400
     22 C17       -14.5170    9.3520    7.0680 c3        1 Z0P     -0.079400
     23 C18       -15.1430   10.7130    7.2900 c3        1 Z0P     -0.080400
     24 C19       -16.5840   10.5970    7.7120 c3        1 Z0P     -0.092100
     25 C20         2.0540   -2.2780    0.9680 c         1 Z0P      0.642100
     26 C21         1.8360   -3.4750    1.8400 c3        1 Z0P     -0.126400
     27 C22         3.0850   -4.3290    1.9150 c3        1 Z0P     -0.079400
     28 C23         2.8170   -5.6040    2.6830 c3        1 Z0P     -0.078400
     29 C24         4.0650   -6.4560    2.7770 c3        1 Z0P     -0.079400
     30 C25         3.8000   -7.7330    3.5450 c3        1 Z0P     -0.079400
     31 C26         5.0480   -8.5850    3.6380 c3        1 Z0P     -0.079400
     32 C27         4.7850   -9.8610    4.4090 c3        1 Z0P     -0.079400
     33 C28         6.0320  -10.7140    4.4990 c3        1 Z0P     -0.077400
     34 C29         5.7670  -11.9890    5.2740 c3        1 Z0P     -0.049200
     35 C30         6.9730  -12.8440    5.3790 c2        1 Z0P     -0.174200
     36 C31         7.0080  -13.9970    6.0560 c2        1 Z0P     -0.173200
     37 C32         5.8480  -14.5580    6.7870 c3        1 Z0P     -0.049200
     38 C33         6.1620  -15.8960    7.4230 c3        1 Z0P     -0.077400
     39 C34         4.9600  -16.4450    8.1620 c3        1 Z0P     -0.079400
     40 C35         5.2710  -17.7820    8.7990 c3        1 Z0P     -0.079400
     41 C36         4.0700  -18.3330    9.5390 c3        1 Z0P     -0.080400
     42 C37         4.3750  -19.6640   10.1750 c3        1 Z0P     -0.092100
     43 H11         0.8220   -0.6570   -1.3830 h1        1 Z0P      0.056700
     44 H12         0.1110    0.9560   -0.8450 h1        1 Z0P      0.056700
     45 H21         2.4480    0.1280    0.1780 h1        1 Z0P      0.087700
     46 H31         1.4210    2.1430    1.0740 h1        1 Z0P      0.068200
     47 H32         1.7560    1.0530    2.5140 h1        1 Z0P      0.068200
     48 H51        -2.6190    1.3970    2.3190 hc        1 Z0P      0.079700
     49 H52        -2.2210    1.2690    4.0860 hc        1 Z0P      0.079700
     50 H61        -2.6450    3.8930    2.4750 hc        1 Z0P      0.057700
     51 H62        -2.1290    3.8160    4.2050 hc        1 Z0P      0.057700
     52 H71        -4.7390    2.6010    3.0440 hc        1 Z0P      0.041700
     53 H72        -4.2310    2.5490    4.7770 hc        1 Z0P      0.041700
     54 H81        -4.7200    5.1180    3.1130 hc        1 Z0P      0.042700
     55 H82        -4.2070    5.0680    4.8430 hc        1 Z0P      0.042700
     56 H91        -6.8100    3.8390    3.6960 hc        1 Z0P      0.039700
     57 H92        -6.2980    3.7900    5.4270 hc        1 Z0P      0.039700
     58 H101       -6.7900    6.3570    3.7610 hc        1 Z0P      0.040700
     59 H102       -6.2780    6.3080    5.4910 hc        1 Z0P      0.040700
     60 H111       -8.3680    5.0300    6.0740 hc        1 Z0P      0.039700
     61 H112       -8.8810    5.0780    4.3440 hc        1 Z0P      0.039700
     62 H121       -8.3490    7.5480    6.1390 hc        1 Z0P      0.039700
     63 H122       -8.8610    7.5960    4.4080 hc        1 Z0P      0.039700
     64 H131      -10.4400    6.2700    6.7210 hc        1 Z0P      0.039700
     65 H132      -10.9510    6.3180    4.9910 hc        1 Z0P      0.039700
     66 H141      -10.9320    8.8360    5.0550 hc        1 Z0P      0.039700
     67 H142      -10.4210    8.7880    6.7850 hc        1 Z0P      0.039700
     68 H151      -13.0230    7.5580    5.6370 hc        1 Z0P      0.039700
     69 H152      -12.5120    7.5100    7.3670 hc        1 Z0P      0.039700
     70 H161      -12.4920   10.0280    7.4310 hc        1 Z0P      0.039700
     71 H162      -13.0030   10.0760    5.7000 hc        1 Z0P      0.039700
     72 H171      -15.0950    8.7980    6.2820 hc        1 Z0P      0.039700
     73 H172      -14.5840    8.7500    8.0130 hc        1 Z0P      0.039700
     74 H181      -15.0740   11.3140    6.3450 hc        1 Z0P      0.038700
     75 H182      -14.5630   11.2670    8.0760 hc        1 Z0P      0.038700
     76 H191      -16.6710   10.0220    8.6660 hc        1 Z0P      0.032700
     77 H192      -17.0260   11.6110    7.8700 hc        1 Z0P      0.032700
     78 H193      -17.1830   10.0700    6.9310 hc        1 Z0P      0.032700
     79 H211        0.9880   -4.0610    1.3920 hc        1 Z0P      0.081200
     80 H212        1.5210   -3.1440    2.8640 hc        1 Z0P      0.081200
     81 H221        3.4350   -4.5710    0.8760 hc        1 Z0P      0.057700
     82 H222        3.9070   -3.7510    2.4140 hc        1 Z0P      0.057700
     83 H231        2.0020   -6.1860    2.1770 hc        1 Z0P      0.041700
     84 H232        2.4530   -5.3550    3.7150 hc        1 Z0P      0.041700
     85 H241        4.4290   -6.7040    1.7450 hc        1 Z0P      0.042700
     86 H242        4.8800   -5.8740    3.2840 hc        1 Z0P      0.042700
     87 H251        3.4380   -7.4840    4.5770 hc        1 Z0P      0.040200
     88 H252        2.9850   -8.3140    3.0390 hc        1 Z0P      0.040200
     89 H261        5.4090   -8.8370    2.6060 hc        1 Z0P      0.040700
     90 H262        5.8650   -8.0030    4.1410 hc        1 Z0P      0.040700
     91 H271        4.4250   -9.6090    5.4410 hc        1 Z0P      0.039700
     92 H272        3.9670  -10.4420    3.9070 hc        1 Z0P      0.039700
     93 H281        6.3890  -10.9690    3.4670 hc        1 Z0P      0.041700
     94 H282        6.8510  -10.1330    4.9990 hc        1 Z0P      0.041700
     95 H291        4.9420  -12.5680    4.7750 hc        1 Z0P      0.047200
     96 H292        5.4000  -11.7310    6.3060 hc        1 Z0P      0.047200
     97 H301        7.8710  -12.4780    4.8550 ha        1 Z0P      0.122000
     98 H311        7.9360  -14.5900    6.0950 ha        1 Z0P      0.122000
     99 H321        4.9800  -14.6710    6.0800 hc        1 Z0P      0.047200
    100 H322        5.5220  -13.8320    7.5820 hc        1 Z0P      0.047200
    101 H331        6.4800  -16.6240    6.6300 hc        1 Z0P      0.041700
    102 H332        7.0220  -15.7830    8.1340 hc        1 Z0P      0.041700
    103 H341        4.1000  -16.5580    7.4510 hc        1 Z0P      0.039700
    104 H342        4.6410  -15.7170    8.9540 hc        1 Z0P      0.039700
    105 H351        5.5900  -18.5110    8.0080 hc        1 Z0P      0.039700
    106 H352        6.1310  -17.6700    9.5100 hc        1 Z0P      0.039700
    107 H361        3.7520  -17.6020   10.3290 hc        1 Z0P      0.038700
    108 H362        3.2110  -18.4430    8.8270 hc        1 Z0P      0.038700
    109 H371        4.6710  -20.4130    9.4010 hc        1 Z0P      0.032700
    110 H372        3.4780  -20.0510   10.7150 hc        1 Z0P      0.032700
    111 H373        5.2130  -19.5690   10.9070 hc        1 Z0P      0.032700
    112 H1O        -1.0620   -0.4690    0.7010 ho        1 Z0P      0.416000
@<TRIPOS>BOND
     1    1    2 1   
     2    1  112 1   
     3    2    4 1   
     4    2   43 1   
     5    2   44 1   
     6    3    6 1   
     7    3    8 1   
     8    4    5 1   
     9    4    6 1   
    10    4   45 1   
    11    5   25 1   
    12    6   46 1   
    13    6   47 1   
    14    7   25 2   
    15    8    9 2   
    16    8   10 1   
    17   10   11 1   
    18   10   48 1   
    19   10   49 1   
    20   11   12 1   
    21   11   50 1   
    22   11   51 1   
    23   12   13 1   
    24   12   52 1   
    25   12   53 1   
    26   13   14 1   
    27   13   54 1   
    28   13   55 1   
    29   14   15 1   
    30   14   56 1   
    31   14   57 1   
    32   15   16 1   
    33   15   58 1   
    34   15   59 1   
    35   16   17 1   
    36   16   60 1   
    37   16   61 1   
    38   17   18 1   
    39   17   62 1   
    40   17   63 1   
    41   18   19 1   
    42   18   64 1   
    43   18   65 1   
    44   19   20 1   
    45   19   66 1   
    46   19   67 1   
    47   20   21 1   
    48   20   68 1   
    49   20   69 1   
    50   21   22 1   
    51   21   70 1   
    52   21   71 1   
    53   22   23 1   
    54   22   72 1   
    55   22   73 1   
    56   23   24 1   
    57   23   74 1   
    58   23   75 1   
    59   24   76 1   
    60   24   77 1   
    61   24   78 1   
    62   25   26 1   
    63   26   27 1   
    64   26   79 1   
    65   26   80 1   
    66   27   28 1   
    67   27   81 1   
    68   27   82 1   
    69   28   29 1   
    70   28   83 1   
    71   28   84 1   
    72   29   30 1   
    73   29   85 1   
    74   29   86 1   
    75   30   31 1   
    76   30   87 1   
    77   30   88 1   
    78   31   32 1   
    79   31   89 1   
    80   31   90 1   
    81   32   33 1   
    82   32   91 1   
    83   32   92 1   
    84   33   34 1   
    85   33   93 1   
    86   33   94 1   
    87   34   35 1   
    88   34   95 1   
    89   34   96 1   
    90   35   36 2   
    91   35   97 1   
    92   36   37 1   
    93   36   98 1   
    94   37   38 1   
    95   37   99 1   
    96   37  100 1   
    97   38   39 1   
    98   38  101 1   
    99   38  102 1   
   100   39   40 1   
   101   39  103 1   
   102   39  104 1   
   103   40   41 1   
   104   40  105 1   
   105   40  106 1   
   106   41   42 1   
   107   41  107 1   
   108   41  108 1   
   109   42  109 1   
   110   42  110 1   
   111   42  111 1   
@<TRIPOS>SUBSTRUCTURE
     1 Z0P         1 TEMP              0 ****  ****    0 ROOT
