@<TRIPOS>MOLECULE
Z0W
   20    22     1     0     0
SMALL
bcc


@<TRIPOS>ATOM
      1 C2         -2.9130    1.1120    0.0090 ca        1 Z0W      0.599900
      2 N3         -3.3930   -0.1640   -0.0020 nb        1 Z0W     -0.676000
      3 C4         -2.4960   -1.1670   -0.0210 ca        1 Z0W      0.411200
      4 C5         -1.1160   -0.8870   -0.0240 ca        1 Z0W     -0.255800
      5 N1         -1.6140    1.5200    0.0050 nb        1 Z0W     -0.647000
      6 C6         -0.7150    0.5200   -0.0070 cp        1 Z0W      0.447800
      7 C7          0.7430    0.5170   -0.0100 cp        1 Z0W     -0.194500
      8 C8          1.6980    1.5250    0.0040 ca        1 Z0W     -0.048000
      9 C12         1.1470   -0.8700   -0.0290 ca        1 Z0W     -0.005200
     10 C11         2.5040   -1.2120   -0.0220 ca        1 Z0W     -0.161000
     11 C10         3.4360   -0.1770   -0.0030 ca        1 Z0W     -0.088000
     12 C9          3.0450    1.1670    0.0080 ca        1 Z0W     -0.166000
     13 N2          0.0160   -1.7090   -0.1110 na        1 Z0W     -0.162300
     14 H2         -3.6750    1.9180    0.0210 h5        1 Z0W      0.056100
     15 HN2         0.0220   -2.6430    0.2130 hn        1 Z0W      0.293700
     16 H4         -2.8940   -2.1950   -0.0340 h4        1 Z0W      0.030100
     17 H8          1.3890    2.5810    0.0110 ha        1 Z0W      0.153000
     18 H9          3.8150    1.9530    0.0210 ha        1 Z0W      0.138000
     19 H11         2.8260   -2.2610   -0.0360 ha        1 Z0W      0.140000
     20 H10         4.5090   -0.4250    0.0030 ha        1 Z0W      0.135000
@<TRIPOS>BOND
     1    1    2 ar  
     2    1    5 ar  
     3    1   14 1   
     4    2    3 ar  
     5    3    4 ar  
     6    3   16 1   
     7    4    6 ar  
     8    4   13 1   
     9    5    6 ar  
    10    6    7 1   
    11    7    8 ar  
    12    7    9 ar  
    13    8   12 ar  
    14    8   17 1   
    15    9   10 ar  
    16    9   13 1   
    17   10   11 ar  
    18   10   19 1   
    19   11   12 ar  
    20   11   20 1   
    21   12   18 1   
    22   13   15 1   
@<TRIPOS>SUBSTRUCTURE
     1 Z0W         1 TEMP              0 ****  ****    0 ROOT
