@<TRIPOS>MOLECULE
Z12
   44    47     1     0     0
SMALL
bcc


@<TRIPOS>ATOM
      1 CL32        0.2670    0.5810   -0.2040 cl        1 Z12     -0.035400
      2 C31         1.8980    0.1290   -0.1030 ca        1 Z12      0.153400
      3 C30         2.4470   -0.0640    1.1600 ca        1 Z12     -0.148000
      4 C28         3.7830   -0.4780    1.2830 ca        1 Z12      0.132400
      5 CL29        4.4520   -0.7050    2.8040 cl        1 Z12      0.021600
      6 C27         4.5510   -0.7050    0.1290 ca        1 Z12     -0.147000
      7 C26         3.9900   -0.5010   -1.1190 ca        1 Z12      0.021000
      8 C25         2.6530   -0.0580   -1.2860 ca        1 Z12     -0.519500
      9 S20         2.1710    0.2660   -2.7910 sy        1 Z12      1.475200
     10 O21         1.3890    1.3870   -2.9610 o         1 Z12     -0.562800
     11 O22         3.0820   -0.0840   -3.7670 o         1 Z12     -0.562800
     12 N23         0.8050   -1.0810   -3.0250 n4        1 Z12     -0.558300
     13 C13         1.2740   -2.4500   -2.9060 ca        1 Z12     -0.049400
     14 C14         0.8160   -3.2610   -1.8540 ca        1 Z12     -0.100500
     15 C15         1.2670   -4.5780   -1.7440 ca        1 Z12      0.007900
     16 CL16        0.6940   -5.5140   -0.4610 cl        1 Z12      0.000600
     17 C17         2.1770   -5.0980   -2.6930 ca        1 Z12      0.164100
     18 C18         2.6260   -4.2770   -3.7480 ca        1 Z12      0.007900
     19 CL19        3.7300   -4.8310   -4.8990 cl        1 Z12      0.000600
     20 C12         2.1670   -2.9620   -3.8620 ca        1 Z12     -0.100500
     21 O11         2.6790   -6.3620   -2.4540 os        1 Z12     -0.219200
     22 C8          2.5470   -7.2910   -3.4920 ca        1 Z12     -0.062200
     23 C7          3.6000   -8.1460   -3.7300 ca        1 Z12     -0.062000
     24 C6          3.4130   -9.1840   -4.6860 ca        1 Z12     -0.135300
     25 C1          4.4410  -10.1130   -4.9860 ca        1 Z12     -0.114000
     26 C9          1.3080   -7.4570   -4.1970 ca        1 Z12      0.390200
     27 N10         1.1140   -8.4020   -5.0920 nb        1 Z12     -0.622000
     28 C5          2.1510   -9.2810   -5.3550 ca        1 Z12      0.388600
     29 C4          1.9680  -10.3250   -6.3170 ca        1 Z12     -0.160300
     30 C3          2.9880  -11.2050   -6.5820 ca        1 Z12     -0.110000
     31 C2          4.2320  -11.1020   -5.9160 ca        1 Z12     -0.108000
     32 H30         1.8360    0.1100    2.0650 ha        1 Z12      0.196000
     33 H27         5.6000   -1.0410    0.2160 ha        1 Z12      0.190000
     34 H26         4.6120   -0.6790   -2.0200 ha        1 Z12      0.184000
     35 HN23        0.0470   -0.9280   -2.3580 hn        1 Z12      0.452800
     36 H14         0.0930   -2.8810   -1.1120 ha        1 Z12      0.176000
     37 H12         2.5340   -2.3330   -4.6960 ha        1 Z12      0.176000
     38 H7          4.5560   -8.0520   -3.1930 ha        1 Z12      0.161000
     39 H1          5.4040  -10.0250   -4.4600 ha        1 Z12      0.142000
     40 H9          0.4620   -6.7750   -3.9930 h4        1 Z12      0.024100
     41 H4          1.0000  -10.4090   -6.8370 ha        1 Z12      0.160000
     42 H3          2.8460  -12.0090   -7.3220 ha        1 Z12      0.149000
     43 H2          5.0270  -11.8270   -6.1510 ha        1 Z12      0.148000
     44 H232        0.4040   -0.9650   -3.9580 hn        1 Z12      0.452800
@<TRIPOS>BOND
     1    1    2 1   
     2    2    3 ar  
     3    2    8 ar  
     4    3    4 ar  
     5    3   32 1   
     6    4    5 1   
     7    4    6 ar  
     8    6    7 ar  
     9    6   33 1   
    10    7    8 ar  
    11    7   34 1   
    12    8    9 1   
    13    9   10 2   
    14    9   11 2   
    15    9   12 1   
    16   12   13 1   
    17   12   35 1   
    18   12   44 1   
    19   13   14 ar  
    20   13   20 ar  
    21   14   15 ar  
    22   14   36 1   
    23   15   16 1   
    24   15   17 ar  
    25   17   18 ar  
    26   17   21 1   
    27   18   19 1   
    28   18   20 ar  
    29   20   37 1   
    30   21   22 1   
    31   22   23 ar  
    32   22   26 ar  
    33   23   24 ar  
    34   23   38 1   
    35   24   25 ar  
    36   24   28 ar  
    37   25   31 ar  
    38   25   39 1   
    39   26   27 ar  
    40   26   40 1   
    41   27   28 ar  
    42   28   29 ar  
    43   29   30 ar  
    44   29   41 1   
    45   30   31 ar  
    46   30   42 1   
    47   31   43 1   
@<TRIPOS>SUBSTRUCTURE
     1 Z12         1 TEMP              0 ****  ****    0 ROOT
