@<TRIPOS>MOLECULE
Z12
   43    46     1     0     0
SMALL
bcc


@<TRIPOS>ATOM
      1 CL32       -4.4060    0.4450   -2.3390 cl        1 Z12     -0.069400
      2 C31        -4.6300   -0.1680   -0.7690 ca        1 Z12      0.139400
      3 C30        -5.3030   -1.3850   -0.6360 ca        1 Z12     -0.150000
      4 C28        -5.4960   -1.9210    0.6400 ca        1 Z12      0.084400
      5 CL29       -6.3100   -3.3950    0.8150 cl        1 Z12     -0.058400
      6 C27        -5.0210   -1.2450    1.7700 ca        1 Z12     -0.150000
      7 C26        -4.3560   -0.0350    1.6100 ca        1 Z12     -0.009000
      8 C25        -4.1480    0.5360    0.3450 ca        1 Z12     -0.376500
      9 S20        -3.3730    2.0490    0.2880 sy        1 Z12      1.514200
     10 O21        -4.1900    2.9820   -0.3700 o         1 Z12     -0.636800
     11 O22        -2.9780    2.3750    1.5990 o         1 Z12     -0.636800
     12 N23        -2.0790    1.7690   -0.6700 nh        1 Z12     -0.768500
     13 C13        -0.8850    1.0990   -0.3700 ca        1 Z12      0.193600
     14 C14        -0.1470    0.4910   -1.4100 ca        1 Z12     -0.171000
     15 C15         1.0430   -0.1810   -1.1350 ca        1 Z12      0.046400
     16 CL16        1.8840   -0.8930   -2.4240 cl        1 Z12     -0.049900
     17 C17         1.5230   -0.2650    0.1830 ca        1 Z12      0.063100
     18 C18         0.7980    0.3480    1.2200 ca        1 Z12      0.046400
     19 CL19        1.3410    0.2870    2.8250 cl        1 Z12     -0.049900
     20 C12        -0.3900    1.0280    0.9510 ca        1 Z12     -0.171000
     21 O11         2.6180   -1.0670    0.4930 os        1 Z12     -0.224200
     22 C8          3.8690   -0.5010    0.2610 ca        1 Z12     -0.012200
     23 C7          4.9340   -1.3710    0.1460 ca        1 Z12     -0.107000
     24 C6          6.2350   -0.8210   -0.0210 ca        1 Z12     -0.121300
     25 C1          7.3820   -1.6470   -0.1410 ca        1 Z12     -0.117000
     26 C9          4.0960    0.9150    0.2020 ca        1 Z12      0.386200
     27 N10         5.2900    1.4490    0.0420 nb        1 Z12     -0.632000
     28 C5          6.3780    0.6010   -0.0710 ca        1 Z12      0.372600
     29 C4          7.6900    1.1480   -0.2420 ca        1 Z12     -0.156300
     30 C3          8.7770    0.3180   -0.3550 ca        1 Z12     -0.130000
     31 C2          8.6260   -1.0880   -0.3050 ca        1 Z12     -0.119000
     32 H30        -5.6770   -1.9150   -1.5270 ha        1 Z12      0.171000
     33 H27        -5.1700   -1.6660    2.7770 ha        1 Z12      0.163000
     34 H26        -3.9820    0.4960    2.5080 ha        1 Z12      0.177000
     35 HN23       -2.1320    2.0470   -1.6290 hn        1 Z12      0.461800
     36 H14        -0.5060    0.5430   -2.4510 ha        1 Z12      0.174000
     37 H12        -0.9280    1.5170    1.7850 ha        1 Z12      0.174000
     38 H7          4.7920   -2.4590    0.1900 ha        1 Z12      0.157000
     39 H1          7.2520   -2.7390   -0.1010 ha        1 Z12      0.136000
     40 H9          3.2430    1.6130    0.2940 h4        1 Z12      0.033100
     41 H4          7.8100    2.2430   -0.2810 ha        1 Z12      0.151000
     42 H3          9.7850    0.7400   -0.4870 ha        1 Z12      0.136000
     43 H2          9.5180   -1.7250   -0.3990 ha        1 Z12      0.135000
@<TRIPOS>BOND
     1    1    2 1   
     2    2    3 ar  
     3    2    8 ar  
     4    3    4 ar  
     5    3   32 1   
     6    4    5 1   
     7    4    6 ar  
     8    6    7 ar  
     9    6   33 1   
    10    7    8 ar  
    11    7   34 1   
    12    8    9 1   
    13    9   10 2   
    14    9   11 2   
    15    9   12 1   
    16   12   13 1   
    17   12   35 1   
    18   13   14 ar  
    19   13   20 ar  
    20   14   15 ar  
    21   14   36 1   
    22   15   16 1   
    23   15   17 ar  
    24   17   18 ar  
    25   17   21 1   
    26   18   19 1   
    27   18   20 ar  
    28   20   37 1   
    29   21   22 1   
    30   22   23 ar  
    31   22   26 ar  
    32   23   24 ar  
    33   23   38 1   
    34   24   25 ar  
    35   24   28 ar  
    36   25   31 ar  
    37   25   39 1   
    38   26   27 ar  
    39   26   40 1   
    40   27   28 ar  
    41   28   29 ar  
    42   29   30 ar  
    43   29   41 1   
    44   30   31 ar  
    45   30   42 1   
    46   31   43 1   
@<TRIPOS>SUBSTRUCTURE
     1 Z12         1 TEMP              0 ****  ****    0 ROOT
