@<TRIPOS>MOLECULE
Z12
   43    46     1     0     0
SMALL
bcc


@<TRIPOS>ATOM
      1 Cl32        0.1550   -0.4150    0.4600 cl        1 Z12     -0.069400
      2 C31         1.7840    0.0220    0.2460 ca        1 Z12      0.139400
      3 C30         2.5610    0.2100    1.3910 ca        1 Z12     -0.150000
      4 C28         3.9070    0.5630    1.2510 ca        1 Z12      0.084400
      5 Cl29        4.8600    0.7930    2.6320 cl        1 Z12     -0.058400
      6 C27         4.4670    0.7230   -0.0210 ca        1 Z12     -0.150000
      7 C26         3.6710    0.5320   -1.1440 ca        1 Z12     -0.009000
      8 C25         2.3140    0.1830   -1.0420 ca        1 Z12     -0.376500
      9 S20         1.4350    0.0350   -2.4900 sy        1 Z12      1.514200
     10 O21         0.3310    0.9030   -2.4720 o         1 Z12     -0.636800
     11 O22         2.3390    0.1930   -3.5570 o         1 Z12     -0.636800
     12 N23         0.8580   -1.4930   -2.4220 nu        1 Z12     -0.768500
     13 C13         1.5330   -2.7020   -2.6360 ca        1 Z12      0.193600
     14 C14         1.0550   -3.8830   -2.0230 ca        1 Z12     -0.171000
     15 C15         1.7100   -5.0980   -2.2210 ca        1 Z12      0.046400
     16 Cl16        1.0920   -6.4810   -1.4590 cl        1 Z12     -0.049900
     17 C17         2.8570   -5.1630   -3.0310 ca        1 Z12      0.063100
     18 C18         3.3290   -3.9930   -3.6520 ca        1 Z12      0.046400
     19 Cl19        4.7010   -4.0210   -4.6490 cl        1 Z12     -0.049900
     20 C12         2.6750   -2.7750   -3.4630 ca        1 Z12     -0.171000
     21 O11         3.6110   -6.3300   -3.1070 os        1 Z12     -0.224200
     22 C8          3.1440   -7.2980   -3.9930 ca        1 Z12     -0.012200
     23 C7          3.5850   -8.5890   -3.7940 ca        1 Z12     -0.107000
     24 C6          3.1820   -9.5880   -4.7240 ca        1 Z12     -0.121300
     25 C1          3.5970  -10.9380   -4.5930 ca        1 Z12     -0.117000
     26 C9          2.2960   -6.9990   -5.1120 ca        1 Z12      0.386200
     27 N10         1.9040   -7.9070   -5.9840 nb        1 Z12     -0.632000
     28 C5          2.3350   -9.2100   -5.8120 ca        1 Z12      0.373600
     29 C4          1.9310  -10.2200   -6.7430 ca        1 Z12     -0.156300
     30 C3          2.3520  -11.5160   -6.5840 ca        1 Z12     -0.130000
     31 C2          3.1900  -11.8810   -5.5040 ca        1 Z12     -0.119000
     32 H30         2.1190    0.0830    2.3930 ha        1 Z12      0.171000
     33 H27         5.5270    0.9990   -0.1350 ha        1 Z12      0.163000
     34 H26         4.1180    0.6610   -2.1500 ha        1 Z12      0.177000
     35 HN23       -0.0890   -1.6270   -2.1310 hn        1 Z12      0.461800
     36 H14         0.1590   -3.8550   -1.3830 ha        1 Z12      0.174000
     37 H12         3.0590   -1.8750   -3.9790 ha        1 Z12      0.174000
     38 H7          4.2380   -8.8480   -2.9480 ha        1 Z12      0.157000
     39 H1          4.2490  -11.2100   -3.7490 ha        1 Z12      0.136000
     40 H9          1.9420   -5.9640   -5.2720 h4        1 Z12      0.033100
     41 H4          1.2790   -9.9380   -7.5850 ha        1 Z12      0.151000
     42 H3          2.0410  -12.2920   -7.3010 ha        1 Z12      0.136000
     43 H2          3.5100  -12.9300   -5.4050 ha        1 Z12      0.135000
@<TRIPOS>BOND
     1    1    2 1   
     2    2    3 ar  
     3    2    8 ar  
     4    3    4 ar  
     5    3   32 1   
     6    4    5 1   
     7    4    6 ar  
     8    6    7 ar  
     9    6   33 1   
    10    7    8 ar  
    11    7   34 1   
    12    8    9 1   
    13    9   10 2   
    14    9   11 2   
    15    9   12 1   
    16   12   13 1   
    17   12   35 1   
    18   13   14 ar  
    19   13   20 ar  
    20   14   15 ar  
    21   14   36 1   
    22   15   16 1   
    23   15   17 ar  
    24   17   18 ar  
    25   17   21 1   
    26   18   19 1   
    27   18   20 ar  
    28   20   37 1   
    29   21   22 1   
    30   22   23 ar  
    31   22   26 ar  
    32   23   24 ar  
    33   23   38 1   
    34   24   25 ar  
    35   24   28 ar  
    36   25   31 ar  
    37   25   39 1   
    38   26   27 ar  
    39   26   40 1   
    40   27   28 ar  
    41   28   29 ar  
    42   29   30 ar  
    43   29   41 1   
    44   30   31 ar  
    45   30   42 1   
    46   31   43 1   
@<TRIPOS>SUBSTRUCTURE
     1 Z12         1 TEMP              0 ****  ****    0 ROOT
