@<TRIPOS>MOLECULE
Z12
   43    38     1     0     0
SMALL
bcc


@<TRIPOS>ATOM
      1 CL32        2.0860    1.0280    5.7970 cl        1 Z12      0.028000
      2 C31         1.0220   -0.3040    6.1620 c2        1 Z12      0.060000
      3 C30         0.9760   -0.8220    7.4460 c2        1 Z12     -0.153000
      4 C28         0.1100   -1.8630    7.7430 c1        1 Z12      0.006000
      5 CL29        0.0080   -2.4740    9.3740 cl        1 Z12      0.025333
      6 C27        -0.7100   -2.3850    6.7560 c2        1 Z12     -0.153000
      7 C26        -0.6640   -1.8670    5.4710 c1        1 Z12     -0.014000
      8 C25         0.2020   -0.8270    5.1740 c1        1 Z12     -0.825000
      9 S20         0.1770   -0.0870    3.5610 s4        1 Z12      2.071800
     10 O21         0.4580    1.3210    3.6290 o         1 Z12     -0.524400
     11 O22        -1.1500   -0.0810    3.0110 o         1 Z12     -0.524400
     12 N23         1.2310   -0.8590    2.5650 n2        1 Z12     -0.818000
     13 C13         1.3500   -0.4570    1.2070 c2        1 Z12      0.119000
     14 C14         1.2700   -1.4010    0.1960 c2        1 Z12     -0.173000
     15 C15         1.4350   -1.0170   -1.1250 c1        1 Z12     -0.031500
     16 CL16        1.4020   -2.2150   -2.3910 cl        1 Z12      0.025333
     17 C17         1.6820    0.3110   -1.4350 c2        1 Z12      0.014000
     18 C18         1.7620    1.2550   -0.4240 c1        1 Z12     -0.031500
     19 CL19        2.1410    2.9130   -0.8080 cl        1 Z12      0.025333
     20 C12         1.5960    0.8710    0.8970 c2        1 Z12     -0.173000
     21 O11         1.8170    0.7060   -2.7770 os        1 Z12     -0.133000
     22 C8          0.5480    0.9670   -3.3190 c2        1 Z12      0.009000
     23 C7          0.4750    0.6300   -4.6420 c2        1 Z12     -0.108000
     24 C6         -0.7050    0.8290   -5.3440 c1        1 Z12     -0.055000
     25 C1         -0.7930    0.4520   -6.6990 c1        1 Z12     -0.118500
     26 C9         -0.5620    1.5090   -2.6770 c1        1 Z12     -0.080000
     27 N10        -1.7230    1.7040   -3.3670 n1        1 Z12     -0.106000
     28 C5         -1.7990    1.3640   -4.7080 c2        1 Z12     -0.021000
     29 C4         -3.0080    1.5350   -5.4110 c2        1 Z12     -0.091000
     30 C3         -3.0940    1.1630   -6.7470 c1        1 Z12     -0.131000
     31 C2         -1.9860    0.6210   -7.3920 c1        1 Z12     -0.118500
     32 H30         1.5580   -0.4590    8.1400 ha        1 Z12      0.172000
     33 H27        -1.3200   -3.1180    6.9650 ha        1 Z12      0.163000
     34 H26        -1.2410   -2.2350    4.7760 ha        1 Z12      0.178000
     35 HN23        1.7300   -1.5560    2.8800 hn        1 Z12      0.250000
     36 H14         1.0960   -2.3370    0.4150 ha        1 Z12      0.175500
     37 H12         1.6530    1.5360    1.6100 ha        1 Z12      0.175500
     38 H7          1.2630    0.2810   -5.1010 ha        1 Z12      0.157000
     39 H1         -0.0160    0.0720   -7.1510 ha        1 Z12      0.135500
     40 H9         -0.5130    1.7390   -1.7280 ha        1 Z12      0.170000
     41 H4         -3.7860    1.9150   -4.9600 ha        1 Z12      0.150000
     42 H3         -3.9320    1.2820   -7.2340 ha        1 Z12      0.136000
     43 H2         -2.0460    0.3600   -8.3310 ha        1 Z12      0.135500
@<TRIPOS>BOND
     1    1    2 1   
     2    2    3 1   
     3    2    8 1   
     4    3    4 1   
     5    3   32 1   
     6    4    6 1   
     7    6    7 1   
     8    6   33 1   
     9    7   34 1   
    10    8    9 1   
    11    9   10 1   
    12    9   11 1   
    13   12   13 1   
    14   12   35 1   
    15   13   14 1   
    16   13   20 1   
    17   14   15 1   
    18   14   36 1   
    19   15   17 1   
    20   17   18 1   
    21   17   21 1   
    22   18   20 1   
    23   20   37 1   
    24   21   22 1   
    25   22   23 1   
    26   22   26 1   
    27   23   24 1   
    28   23   38 1   
    29   24   28 1   
    30   25   31 1   
    31   25   39 1   
    32   26   40 1   
    33   27   28 1   
    34   28   29 1   
    35   29   30 1   
    36   29   41 1   
    37   30   42 1   
    38   31   43 1   
@<TRIPOS>SUBSTRUCTURE
     1 Z12         1 TEMP              0 ****  ****    0 ROOT
