@<TRIPOS>MOLECULE
Z13
   34    33     1     0     0
SMALL
bcc


@<TRIPOS>ATOM
      1 F2         -1.0950    3.6780    0.3490 f         1 Z13     -0.169000
      2 F3          0.0630    2.1700    1.3850 f         1 Z13     -0.169000
      3 F4         -1.2110    1.6080   -0.2770 f         1 Z13     -0.169000
      4 N1          4.3420    4.6770   -4.1220 n8        1 Z13     -0.209000
      5 C2          2.6280    7.4200   -3.0050 c1        1 Z13     -0.228000
      6 C4          1.6650    2.9410   -3.1020 ca        1 Z13     -0.145500
      7 C5          2.9060    3.3890   -2.6220 ca        1 Z13     -0.043000
      8 C6          3.1090    3.5140   -1.2380 ca        1 Z13     -0.145500
      9 C7          2.0770    3.2270   -0.3510 ca        1 Z13     -0.069000
     10 C8          0.6330    2.6540   -2.2140 ca        1 Z13     -0.069000
     11 C15         0.8360    2.8140   -0.8400 ca        1 Z13     -0.192000
     12 C16        -0.3130    2.5650    0.1250 c3        1 Z13      0.469000
     13 H1          3.8730    5.5590   -4.0230 hn        1 Z13      0.205500
     14 H2          5.1290    4.6730   -4.7340 hn        1 Z13      0.205500
     15 H5          3.3660    7.5220   -2.2500 ha        1 Z13      0.224000
     16 H8          1.5110    2.8050   -4.1830 ha        1 Z13      0.144000
     17 H9          4.0910    3.8290   -0.8540 ha        1 Z13      0.144000
     18 H10         2.2350    3.3230    0.7350 ha        1 Z13      0.150000
     19 H11        -0.3410    2.3010   -2.5870 ha        1 Z13      0.150000
     20 C3          1.7780    7.3220   -3.8430 c1        1 Z13     -0.188000
     21 C9         -0.5840    6.8870   -1.0010 c2        1 Z13     -0.167000
     22 C10        -0.8980    7.3430   -2.1710 c1        1 Z13     -0.008000
     23 C11        -1.2630    7.7290   -3.3820 c2        1 Z13     -0.171000
     24 C12        -0.6070    7.4590   -4.5990 c1        1 Z13     -0.047000
     25 C13         0.7880    7.2180   -4.8770 c3        1 Z13     -0.082000
     26 C14        -2.6250    8.4300   -3.5610 c3        1 Z13      0.483000
     27 H3         -0.8360    5.8620   -0.6720 ha        1 Z13      0.175000
     28 H4         -0.0460    7.5010   -0.2610 ha        1 Z13      0.175000
     29 H6          0.8320    6.1860   -5.3490 hc        1 Z13      0.161000
     30 H7          1.0490    7.9480   -5.7100 hc        1 Z13      0.161000
     31 F6         -2.5930    9.5040   -4.4120 f         1 Z13     -0.162667
     32 F5         -3.6140    7.6170   -4.0520 f         1 Z13     -0.162667
     33 F1         -3.1580    8.9440   -2.4020 f         1 Z13     -0.162667
     34 C1          4.0180    3.5650   -3.5380 c1        1 Z13     -0.091000
@<TRIPOS>BOND
     1    1   12 1   
     2    2   12 1   
     3    3   12 1   
     4    4   13 1   
     5    4   14 1   
     6    4   34 1   
     7    5   15 1   
     8    5   20 1   
     9    6    7 1   
    10    6   10 1   
    11    6   16 1   
    12    7    8 1   
    13    7   34 1   
    14    8    9 1   
    15    8   17 1   
    16    9   11 1   
    17    9   18 1   
    18   10   11 1   
    19   10   19 1   
    20   11   12 1   
    21   20   25 1   
    22   21   22 1   
    23   21   27 1   
    24   21   28 1   
    25   22   23 1   
    26   23   24 1   
    27   23   26 1   
    28   24   25 1   
    29   25   29 1   
    30   25   30 1   
    31   26   31 1   
    32   26   32 1   
    33   26   33 1   
@<TRIPOS>SUBSTRUCTURE
     1 Z13         1 TEMP              0 ****  ****    0 ROOT
