@<TRIPOS>MOLECULE
Z13
   34    35     1     0     0
SMALL
bcc


@<TRIPOS>ATOM
      1 F2          0.8170   -0.8990    0.4840 f         1 Z13     -0.166667
      2 F3          2.9510   -1.1330    0.2060 f         1 Z13     -0.166667
      3 F4          1.5940   -1.5240   -1.4380 f         1 Z13     -0.166667
      4 N1          1.5850    5.8930   -1.6910 n3        1 Z13     -0.176000
      5 C2          1.8930    7.2120   -2.2130 c3        1 Z13     -0.023000
      6 C4          1.2800    2.6020   -2.3280 ca        1 Z13     -0.140500
      7 C5          2.0680    3.5000   -1.5910 ca        1 Z13     -0.059000
      8 C6          2.7890    3.0410   -0.4780 ca        1 Z13     -0.140500
      9 C7          2.7170    1.7020   -0.1040 ca        1 Z13     -0.067500
     10 C8          1.2080    1.2650   -1.9510 ca        1 Z13     -0.067500
     11 C15         1.9240    0.8170   -0.8380 ca        1 Z13     -0.176000
     12 C16         1.8270   -0.6410   -0.4120 c3        1 Z13      0.468000
     13 H1          0.8330    5.8750   -1.0260 hn        1 Z13      0.178000
     14 H2          2.7850    7.1260   -2.9040 h1        1 Z13      0.128000
     15 H5          2.1850    7.8680   -1.3420 h1        1 Z13      0.128000
     16 H8          0.7280    2.9520   -3.2130 ha        1 Z13      0.142500
     17 H9          3.4230    3.7360    0.0910 ha        1 Z13      0.142500
     18 H10         3.2860    1.3370    0.7660 ha        1 Z13      0.152500
     19 H11         0.5940    0.5560   -2.5290 ha        1 Z13      0.152500
     20 C3          0.7740    7.8530   -2.9800 c2        1 Z13     -0.064000
     21 C9          0.4410    9.1510   -2.7620 c2        1 Z13     -0.191000
     22 C10        -0.5650    9.7960   -3.5590 c2        1 Z13      0.045000
     23 C11        -1.1980    9.1080   -4.5570 c2        1 Z13     -0.257000
     24 C12        -0.9260    7.7410   -4.8320 c1        1 Z13     -0.044000
     25 C13         0.0880    7.0670   -4.0350 c3        1 Z13     -0.208000
     26 C14        -2.2560    9.7830   -5.4250 c3        1 Z13      0.484000
     27 H3          0.9350    9.7530   -1.9820 ha        1 Z13      0.148000
     28 H4         -0.8010   10.8530   -3.3390 ha        1 Z13      0.158000
     29 H6         -0.4180    6.1600   -3.5840 hc        1 Z13      0.180500
     30 H7          0.8550    6.6500   -4.7590 hc        1 Z13      0.180500
     31 F6         -1.9670    9.7960   -6.7660 f         1 Z13     -0.164667
     32 F5         -3.5050    9.2230   -5.3390 f         1 Z13     -0.164667
     33 F1         -2.4720   11.1110   -5.1240 f         1 Z13     -0.164667
     34 C1          2.2730    4.8540   -2.0810 c1        1 Z13     -0.081000
@<TRIPOS>BOND
     1    1   12 1   
     2    2   12 1   
     3    3   12 1   
     4    4    5 1   
     5    4   13 1   
     6    4   34 1   
     7    5   14 1   
     8    5   15 1   
     9    5   20 1   
    10    6    7 1   
    11    6   10 1   
    12    6   16 1   
    13    7    8 1   
    14    7   34 1   
    15    8    9 1   
    16    8   17 1   
    17    9   11 1   
    18    9   18 1   
    19   10   11 1   
    20   10   19 1   
    21   11   12 1   
    22   20   21 1   
    23   20   25 1   
    24   21   22 1   
    25   21   27 1   
    26   22   23 1   
    27   22   28 1   
    28   23   24 1   
    29   23   26 1   
    30   24   25 1   
    31   25   29 1   
    32   25   30 1   
    33   26   31 1   
    34   26   32 1   
    35   26   33 1   
@<TRIPOS>SUBSTRUCTURE
     1 Z13         1 TEMP              0 ****  ****    0 ROOT
