@<TRIPOS>MOLECULE
Z14
   50    52     1     0     0
SMALL
bcc


@<TRIPOS>ATOM
      1 N01         1.8320   -0.5190   -0.1190 nh        1 Z14     -0.751600
      2 N02         0.8980   -4.4320   -0.7680 n         1 Z14     -0.666000
      3 N03         5.8840    1.0920   -1.0140 nb        1 Z14     -0.756000
      4 N04         5.7600    1.2600    1.4490 nb        1 Z14     -0.756000
      5 N05        -2.8930    0.8020    0.0610 nh        1 Z14     -0.644000
      6 N06        -5.4570    4.2530    0.0300 n3        1 Z14     -0.901800
      7 N07         7.8350    1.4760    0.2990 nh        1 Z14     -0.939500
      8 C09        -1.2490   -2.5580    0.0010 ca        1 Z14      0.000000
      9 C10         0.1010   -2.2340   -0.0240 ca        1 Z14     -0.243600
     10 C11         0.5030   -0.8620   -0.0390 ca        1 Z14      0.283600
     11 C12        -0.5160    0.1270   -0.0380 ca        1 Z14     -0.276000
     12 C13        -1.8810   -0.1910   -0.0300 ca        1 Z14      0.245600
     13 C14        -2.2400   -1.5690   -0.0250 ca        1 Z14     -0.238200
     14 C16         2.2700    0.8470    0.0590 c3        1 Z14      0.280100
     15 C17         3.7520    0.9690    0.1280 ca        1 Z14     -0.429900
     16 C18         4.5540    0.9570   -1.0330 ca        1 Z14      0.495200
     17 C19         6.4700    1.2570    0.2450 ca        1 Z14      0.891900
     18 C20         4.4330    1.1170    1.3540 ca        1 Z14      0.495200
     19 C21        -2.5710    1.9320    0.9240 c3        1 Z14      0.184300
     20 C22        -3.7850    2.8260    1.1700 c3        1 Z14     -0.096900
     21 C23        -3.4620    1.2140   -1.2190 c3        1 Z14      0.184300
     22 C24        -4.6880    2.1050   -1.0390 c3        1 Z14     -0.096900
     23 C25        -4.3570    3.3260   -0.1650 c3        1 Z14      0.161500
     24 O26         2.1560   -3.2530    0.7020 o         1 Z14     -0.632100
     25 O27        -3.9530   -2.8880    0.7860 o         1 Z14     -0.212000
     26 O28        -4.4560   -1.5540   -0.7550 o         1 Z14     -0.212000
     27 HN01        2.5050   -1.2310    0.0860 hn        1 Z14      0.463800
     28 HN02        0.0990   -4.5100   -1.3410 hn        1 Z14      0.317500
     29 HN0A        1.5510   -5.1760   -0.7460 hn        1 Z14      0.317500
     30 HN06       -5.8620    4.4940   -0.8530 hn        1 Z14      0.348300
     31 HN0B       -6.1650    3.8460    0.6100 hn        1 Z14      0.348300
     32 HN07        8.3740    1.3200   -0.5180 hn        1 Z14      0.444300
     33 HN0C        8.2880    1.4350    1.1800 hn        1 Z14      0.444300
     34 H09        -1.5580   -3.6180    0.0680 ha        1 Z14      0.161000
     35 H12        -0.2260    1.1900   -0.0420 ha        1 Z14      0.150000
     36 H16         1.8880    1.4540   -0.8160 h1        1 Z14      0.048700
     37 H16A        1.8180    1.2830    1.0000 h1        1 Z14      0.048700
     38 H18         4.1000    0.8290   -2.0350 h4        1 Z14      0.031100
     39 H20         3.8840    1.1210    2.3150 h4        1 Z14      0.031100
     40 H21        -2.2090    1.5260    1.9090 h1        1 Z14      0.043700
     41 H21A       -1.7470    2.5710    0.4860 h1        1 Z14      0.043700
     42 H22        -4.5700    2.2610    1.7360 hc        1 Z14      0.057950
     43 H22A       -3.4590    3.6930    1.8000 hc        1 Z14      0.057950
     44 H23        -2.6950    1.7730   -1.8320 h1        1 Z14      0.043700
     45 H23A       -3.7610    0.2900   -1.7890 h1        1 Z14      0.043700
     46 H24        -5.0240    2.4360   -2.0550 hc        1 Z14      0.057950
     47 H24A       -5.5190    1.5140   -0.5750 hc        1 Z14      0.057950
     48 H25        -3.5440    3.9130   -0.6920 h1        1 Z14      0.053700
     49 C15         1.1170   -3.3220    0.0070 c         1 Z14      0.685700
     50 N08        -3.6550   -2.0170    0.0100 no        1 Z14      0.331200
@<TRIPOS>BOND
     1    1   10 1   
     2    1   14 1   
     3    1   27 1   
     4    2   28 1   
     5    2   29 1   
     6    2   49 1   
     7    3   16 ar  
     8    3   17 ar  
     9    4   17 ar  
    10    4   18 ar  
    11    5   12 1   
    12    5   19 1   
    13    5   21 1   
    14    6   23 1   
    15    6   30 1   
    16    6   31 1   
    17    7   17 1   
    18    7   32 1   
    19    7   33 1   
    20    8    9 ar  
    21    8   13 ar  
    22    8   34 1   
    23    9   10 ar  
    24    9   49 1   
    25   10   11 ar  
    26   11   12 ar  
    27   11   35 1   
    28   12   13 ar  
    29   13   50 1   
    30   14   15 1   
    31   14   36 1   
    32   14   37 1   
    33   15   16 ar  
    34   15   18 ar  
    35   16   38 1   
    36   18   39 1   
    37   19   20 1   
    38   19   40 1   
    39   19   41 1   
    40   20   23 1   
    41   20   42 1   
    42   20   43 1   
    43   21   22 1   
    44   21   44 1   
    45   21   45 1   
    46   22   23 1   
    47   22   46 1   
    48   22   47 1   
    49   23   48 1   
    50   24   49 2   
    51   25   50 1   
    52   26   50 1   
@<TRIPOS>SUBSTRUCTURE
     1 Z14         1 TEMP              0 ****  ****    0 ROOT
