@<TRIPOS>MOLECULE
Z15
   35    36     1     0     0
SMALL
bcc


@<TRIPOS>ATOM
      1 C1          0.1060   -0.1720   -0.0350 ca        1 Z15      0.093100
      2 O1         -0.5500   -0.2190   -1.2470 oh        1 Z15     -0.505100
      3 C2          1.5100   -0.0210   -0.0750 ca        1 Z15     -0.086300
      4 C3          2.2110    0.0620    1.1230 ca        1 Z15     -0.089000
      5 C4          1.5300   -0.0070    2.3530 ca        1 Z15      0.108100
      6 O4          2.3220    0.0870    3.4720 oh        1 Z15     -0.486100
      7 C5          0.1350   -0.1620    2.3800 ca        1 Z15     -0.030600
      8 Cl5        -0.7120   -0.2540    3.8510 cl        1 Z15     -0.081400
      9 C6         -0.5790   -0.2440    1.1810 ca        1 Z15     -0.169000
     10 C1'         2.2230    0.0310   -1.3940 c3        1 Z15      0.167400
     11 C2'         2.3920    1.4810   -1.8910 c3        1 Z15      0.088100
     12 O2'         1.1620    2.0580   -2.3020 oh        1 Z15     -0.607800
     13 C3'         3.2890    1.5200   -3.1400 c3        1 Z15      0.106100
     14 O3'         3.6420    2.8530   -3.4660 oh        1 Z15     -0.607800
     15 C4'         4.6070    0.7740   -2.8770 c3        1 Z15      0.123100
     16 O4'         5.3530    0.6460   -4.0740 oh        1 Z15     -0.595800
     17 C5'         4.2910   -0.6430   -2.3810 c3        1 Z15      0.099100
     18 O5'         3.5050   -0.5730   -1.1890 os        1 Z15     -0.420600
     19 C6'         5.5710   -1.3880   -1.9900 c3        1 Z15      0.140400
     20 O6'         5.3020   -2.7350   -1.6720 oh        1 Z15     -0.594800
     21 HO1        -1.4730   -0.4590   -1.0810 ho        1 Z15      0.429000
     22 H3          3.3080    0.1680    1.1190 ha        1 Z15      0.177000
     23 HO4         1.7550    0.0110    4.2560 ho        1 Z15      0.431000
     24 H6         -1.6720   -0.3680    1.1950 ha        1 Z15      0.154000
     25 H1'         1.6480   -0.5600   -2.1650 h1        1 Z15      0.079700
     26 H2'         2.8410    2.1150   -1.0760 h1        1 Z15      0.065700
     27 HO2'        0.4760    1.7590   -1.6910 ho        1 Z15      0.424000
     28 H3'         2.7460    1.0530   -4.0090 h1        1 Z15      0.063700
     29 HO3'        2.8140    3.3440   -3.5540 ho        1 Z15      0.428000
     30 H4'         5.2110    1.3340   -2.1100 h1        1 Z15      0.061700
     31 HO4'        5.4440    1.5390   -4.4350 ho        1 Z15      0.425000
     32 H5'         3.7340   -1.2180   -3.1710 h1        1 Z15      0.071700
     33 H6'         6.2600   -1.4180   -2.8760 h1        1 Z15      0.064700
     34 H6'A        6.0650   -0.8710   -1.1250 h1        1 Z15      0.064700
     35 HO6'        4.6770   -2.7330   -0.9350 ho        1 Z15      0.410000
@<TRIPOS>BOND
     1    1    2 1   
     2    1    3 ar  
     3    1    9 ar  
     4    2   21 1   
     5    3    4 ar  
     6    3   10 1   
     7    4    5 ar  
     8    4   22 1   
     9    5    6 1   
    10    5    7 ar  
    11    6   23 1   
    12    7    8 1   
    13    7    9 ar  
    14    9   24 1   
    15   10   11 1   
    16   10   18 1   
    17   10   25 1   
    18   11   12 1   
    19   11   13 1   
    20   11   26 1   
    21   12   27 1   
    22   13   14 1   
    23   13   15 1   
    24   13   28 1   
    25   14   29 1   
    26   15   16 1   
    27   15   17 1   
    28   15   30 1   
    29   16   31 1   
    30   17   18 1   
    31   17   19 1   
    32   17   32 1   
    33   19   20 1   
    34   19   33 1   
    35   19   34 1   
    36   20   35 1   
@<TRIPOS>SUBSTRUCTURE
     1 Z15         1 TEMP              0 ****  ****    0 ROOT
