@<TRIPOS>MOLECULE
Z15
   35    36     1     0     0
SMALL
bcc


@<TRIPOS>ATOM
      1 C1          1.6100   -0.9440   -0.9710 ca        1 Z15      0.121100
      2 O1          1.2350   -1.8870   -1.9010 oh        1 Z15     -0.508100
      3 C2          0.6890   -0.1540   -0.2550 ca        1 Z15     -0.116300
      4 C3          1.1650    0.8030    0.6380 ca        1 Z15     -0.098000
      5 C4          2.5470    0.9920    0.8060 ca        1 Z15      0.101100
      6 O4          2.9090    1.9630    1.7100 oh        1 Z15     -0.492100
      7 C5          3.4590    0.2110    0.0750 ca        1 Z15     -0.034600
      8 CL5         5.1370    0.4270    0.2540 cl        1 Z15     -0.088400
      9 C6          2.9910   -0.7610   -0.8090 ca        1 Z15     -0.119000
     10 C1'        -0.7860   -0.3270   -0.4630 c3        1 Z15      0.195400
     11 C2'        -1.3800   -1.3930    0.4830 c3        1 Z15      0.122100
     12 O2'        -0.8510   -2.6470    0.0850 oh        1 Z15     -0.614800
     13 C3'        -2.9120   -1.4210    0.3480 c3        1 Z15      0.068100
     14 O3'        -3.3840   -2.3120    1.3470 oh        1 Z15     -0.604800
     15 C4'        -3.4860   -0.0120    0.5600 c3        1 Z15      0.085100
     16 O4'        -4.8750   -0.0120    0.2750 oh        1 Z15     -0.590800
     17 C5'        -2.8080    0.9500   -0.4250 c3        1 Z15      0.099100
     18 O5'        -1.3970    0.9420   -0.2000 os        1 Z15     -0.414600
     19 C6'        -3.2550    2.3960   -0.1880 c3        1 Z15      0.141400
     20 O6'        -2.7600    3.2530   -1.1910 oh        1 Z15     -0.592800
     21 HO1         0.4170   -2.3080   -1.5900 ho        1 Z15      0.441000
     22 H3          0.4650    1.4350    1.2080 ha        1 Z15      0.168000
     23 HO4         3.8770    2.0170    1.7260 ho        1 Z15      0.428000
     24 H6          3.6870   -1.3860   -1.3890 ha        1 Z15      0.167000
     25 H1'        -0.9960   -0.6220   -1.5320 h1        1 Z15      0.065700
     26 H2'        -1.0950   -1.1710    1.5480 h1        1 Z15      0.072700
     27 HO2'       -1.2220   -3.3060    0.6880 ho        1 Z15      0.433000
     28 H3'        -3.1990   -1.7990   -0.6720 h1        1 Z15      0.065700
     29 HO3'       -4.3050   -2.5040    1.1340 ho        1 Z15      0.411000
     30 H4'        -3.2960    0.3210    1.6170 h1        1 Z15      0.065700
     31 HO4'       -5.3160   -0.3580    1.0610 ho        1 Z15      0.408000
     32 H5'        -3.0300    0.6440   -1.4840 h1        1 Z15      0.073700
     33 H6'        -4.3740    2.4500   -0.2700 h1        1 Z15      0.062700
     34 H6'A       -2.9190    2.7400    0.8260 h1        1 Z15      0.062700
     35 HO6'       -1.7960    3.2000   -1.1610 ho        1 Z15      0.413000
@<TRIPOS>BOND
     1    1    2 1   
     2    1    3 ar  
     3    1    9 ar  
     4    2   21 1   
     5    3    4 ar  
     6    3   10 1   
     7    4    5 ar  
     8    4   22 1   
     9    5    6 1   
    10    5    7 ar  
    11    6   23 1   
    12    7    8 1   
    13    7    9 ar  
    14    9   24 1   
    15   10   11 1   
    16   10   18 1   
    17   10   25 1   
    18   11   12 1   
    19   11   13 1   
    20   11   26 1   
    21   12   27 1   
    22   13   14 1   
    23   13   15 1   
    24   13   28 1   
    25   14   29 1   
    26   15   16 1   
    27   15   17 1   
    28   15   30 1   
    29   16   31 1   
    30   17   18 1   
    31   17   19 1   
    32   17   32 1   
    33   19   20 1   
    34   19   33 1   
    35   19   34 1   
    36   20   35 1   
@<TRIPOS>SUBSTRUCTURE
     1 Z15         1 TEMP              0 ****  ****    0 ROOT
