@<TRIPOS>MOLECULE
Z16
   35    33     1     0     0
SMALL
bcc


@<TRIPOS>ATOM
      1 C1          0.3780   -0.5740    2.7260 c1        1 Z16      0.111600
      2 O1          1.7550   -0.6440    2.7380 oh        1 Z16     -0.474600
      3 C2         -0.2900   -0.3340    1.5420 c1        1 Z16     -0.024100
      4 C3         -1.6680   -0.1770    1.5450 c1        1 Z16     -0.095500
      5 C4         -2.3730   -0.2610    2.7410 c1        1 Z16      0.077600
      6 O4         -3.7720   -0.0710    2.7520 oh        1 Z16     -0.477600
      7 C5         -1.7020   -0.5010    3.9190 c1        1 Z16     -0.049500
      8 C6         -0.3260   -0.6580    3.9150 c1        1 Z16     -0.028100
      9 CL6         0.5290   -0.9130    5.4230 cl        1 Z16     -0.097900
     10 C1'         0.5200   -0.1750    0.2010 c3        1 Z16      0.161200
     11 C2'         0.0780   -1.1640   -0.7160 c3        1 Z16      0.130100
     12 O2'         0.4850   -2.5540   -0.1660 oh        1 Z16     -0.584800
     13 C3'         0.6080   -1.0310   -2.0150 c3        1 Z16      0.071100
     14 O3'        -0.0900   -2.0320   -2.9270 oh        1 Z16     -0.604800
     15 C4'         0.4380    0.3290   -2.5880 c3        1 Z16      0.077100
     16 O4'         1.0890    0.3730   -3.8410 oh        1 Z16     -0.590800
     17 C5'         1.0160    1.4920   -1.6780 c3        1 Z16      0.068100
     18 O5'         0.3530    1.1960   -0.2810 os        1 Z16     -0.416600
     19 C6'         0.6440    2.7030   -2.1410 c3        1 Z16      0.138400
     20 O6'         1.1590    3.7160   -1.2820 oh        1 Z16     -0.594800
     21 HO1         2.0030   -1.3440    3.1740 ho        1 Z16      0.432000
     22 H3         -2.1330   -0.0110    0.7270 ha        1 Z16      0.090500
     23 HO4        -4.1690   -0.7920    2.4390 ho        1 Z16      0.421000
     24 H5         -2.2010   -0.5610    4.7650 ha        1 Z16      0.110500
     25 H1'         1.4640   -0.3270    0.3880 h1        1 Z16      0.086700
     26 H2'        -0.8910   -1.1230   -0.7720 h1        1 Z16      0.058700
     27 HO2'       -0.1670   -3.1420   -0.3290 ho        1 Z16      0.422000
     28 H3'         1.5440   -1.2390   -1.9890 h1        1 Z16      0.052700
     29 HO3'        0.5280   -2.5580   -3.3300 ho        1 Z16      0.423000
     30 H4'        -0.4980    0.4860   -2.7230 h1        1 Z16      0.100700
     31 HO4'        1.9670    0.3420   -3.7190 ho        1 Z16      0.405000
     32 H5'         1.9980    1.4290   -1.6170 h1        1 Z16      0.058700
     33 H6'        -0.3360    2.7590   -2.1630 h1        1 Z16      0.062700
     34 H6'A        0.9920    2.8280   -3.0300 h1        1 Z16      0.062700
     35 HO6'        1.0680    4.5330   -1.6850 ho        1 Z16      0.414000
@<TRIPOS>BOND
     1    1    2 1   
     2    1    8 3   
     3    2   21 1   
     4    3    4 3   
     5    3   10 1   
     6    4   22 1   
     7    5    6 1   
     8    5    7 3   
     9    6   23 1   
    10    7   24 1   
    11    8    9 1   
    12   10   11 1   
    13   10   18 1   
    14   10   25 1   
    15   11   12 1   
    16   11   13 1   
    17   11   26 1   
    18   12   27 1   
    19   13   14 1   
    20   13   15 1   
    21   13   28 1   
    22   14   29 1   
    23   15   16 1   
    24   15   17 1   
    25   15   30 1   
    26   16   31 1   
    27   17   18 1   
    28   17   19 1   
    29   17   32 1   
    30   19   20 1   
    31   19   33 1   
    32   19   34 1   
    33   20   35 1   
@<TRIPOS>SUBSTRUCTURE
     1 Z16         1 TEMP              0 ****  ****    0 ROOT
