@<TRIPOS>MOLECULE
Z16
   35    36     1     0     0
SMALL
bcc


@<TRIPOS>ATOM
      1 C1          1.9300   -0.3900   -0.5980 ca        1 Z16      0.111100
      2 O1          1.7700   -1.4180   -1.5010 oh        1 Z16     -0.504100
      3 C2          0.8240    0.2500   -0.0070 ca        1 Z16     -0.094300
      4 C3          1.0240    1.3280    0.8550 ca        1 Z16     -0.165000
      5 C4          2.3250    1.7770    1.1110 ca        1 Z16      0.106100
      6 O4          2.5930    2.8370    1.9490 oh        1 Z16     -0.494100
      7 C5          3.4370    1.1560    0.5230 ca        1 Z16     -0.129000
      8 C6          3.2360    0.0670   -0.3260 ca        1 Z16      0.024400
      9 CL6         4.5950   -0.6770   -1.0190 cl        1 Z16     -0.064400
     10 C1'        -0.5650   -0.2220   -0.3220 c3        1 Z16      0.192400
     11 C2'        -1.0410   -1.3080    0.6690 c3        1 Z16      0.124100
     12 O2'        -0.2420   -2.4580    0.4500 oh        1 Z16     -0.613800
     13 C3'        -2.5160   -1.6500    0.3990 c3        1 Z16      0.067100
     14 O3'        -2.9150   -2.5380    1.4320 oh        1 Z16     -0.604800
     15 C4'        -3.3670   -0.3720    0.4230 c3        1 Z16      0.086100
     16 O4'        -4.6920   -0.6660    0.0120 oh        1 Z16     -0.589800
     17 C5'        -2.7820    0.6320   -0.5800 c3        1 Z16      0.100100
     18 O5'        -1.4270    0.9180   -0.2280 os        1 Z16     -0.418600
     19 C6'        -3.5180    1.9740   -0.5190 c3        1 Z16      0.141400
     20 O6'        -3.0990    2.8350   -1.5520 oh        1 Z16     -0.591800
     21 HO1         1.1640   -2.0640   -1.0990 ho        1 Z16      0.441000
     22 H3          0.1580    1.8310    1.3110 ha        1 Z16      0.150000
     23 HO4         1.7470    3.1960    2.2520 ho        1 Z16      0.420000
     24 H5          4.4480    1.5310    0.7410 ha        1 Z16      0.167000
     25 H1'        -0.6050   -0.6340   -1.3720 h1        1 Z16      0.073700
     26 H2'        -0.9210   -0.9480    1.7280 h1        1 Z16      0.069700
     27 HO2'       -0.5500   -3.1290    1.0750 ho        1 Z16      0.432000
     28 H3'        -2.6140   -2.1540   -0.6030 h1        1 Z16      0.067700
     29 HO3'       -3.7400   -2.9460    1.1430 ho        1 Z16      0.412000
     30 H4'        -3.3620    0.0680    1.4580 h1        1 Z16      0.063700
     31 HO4'       -5.1320   -1.0660    0.7720 ho        1 Z16      0.408000
     32 H5'        -2.8280    0.2120   -1.6220 h1        1 Z16      0.075700
     33 H6'        -4.6130    1.7990   -0.6970 h1        1 Z16      0.061700
     34 H6'A       -3.3560    2.4540    0.4830 h1        1 Z16      0.061700
     35 HO6'       -2.1450    2.9560   -1.4540 ho        1 Z16      0.412000
@<TRIPOS>BOND
     1    1    2 1   
     2    1    3 ar  
     3    1    8 ar  
     4    2   21 1   
     5    3    4 ar  
     6    3   10 1   
     7    4    5 ar  
     8    4   22 1   
     9    5    6 1   
    10    5    7 ar  
    11    6   23 1   
    12    7    8 ar  
    13    7   24 1   
    14    8    9 1   
    15   10   11 1   
    16   10   18 1   
    17   10   25 1   
    18   11   12 1   
    19   11   13 1   
    20   11   26 1   
    21   12   27 1   
    22   13   14 1   
    23   13   15 1   
    24   13   28 1   
    25   14   29 1   
    26   15   16 1   
    27   15   17 1   
    28   15   30 1   
    29   16   31 1   
    30   17   18 1   
    31   17   19 1   
    32   17   32 1   
    33   19   20 1   
    34   19   33 1   
    35   19   34 1   
    36   20   35 1   
@<TRIPOS>SUBSTRUCTURE
     1 Z16         1 TEMP              0 ****  ****    0 ROOT
