@<TRIPOS>MOLECULE
Z16
   35    36     1     0     0
SMALL
bcc


@<TRIPOS>ATOM
      1 C1          0.0550   -0.1280   -0.0500 ca        1 Z16      0.094100
      2 O1         -0.5580   -0.2420   -1.2770 oh        1 Z16     -0.504100
      3 C2          1.4540    0.0510   -0.0650 ca        1 Z16     -0.078300
      4 C3          2.1360    0.2040    1.1410 ca        1 Z16     -0.150000
      5 C4          1.4330    0.1720    2.3520 ca        1 Z16      0.102100
      6 O4          2.0510    0.3180    3.5740 oh        1 Z16     -0.491100
      7 C5          0.0430   -0.0090    2.3800 ca        1 Z16     -0.109000
      8 C6         -0.6400   -0.1570    1.1730 ca        1 Z16     -0.031600
      9 Cl6        -2.3270   -0.3820    1.2060 cl        1 Z16     -0.079400
     10 C1'         2.1920    0.0600   -1.3720 c3        1 Z16      0.166400
     11 C2'         2.3420    1.4900   -1.9290 c3        1 Z16      0.089100
     12 O2'         1.1110    2.0240   -2.3900 oh        1 Z16     -0.606800
     13 C3'         3.2650    1.4950   -3.1590 c3        1 Z16      0.106100
     14 O3'         3.5990    2.8210   -3.5330 oh        1 Z16     -0.608800
     15 C4'         4.5910    0.7870   -2.8390 c3        1 Z16      0.123100
     16 O4'         5.3650    0.6230   -4.0140 oh        1 Z16     -0.595800
     17 C5'         4.2920   -0.6140   -2.2890 c3        1 Z16      0.099100
     18 O5'         3.4820   -0.5070   -1.1150 os        1 Z16     -0.424600
     19 C6'         5.5760   -1.3180   -1.8440 c3        1 Z16      0.140400
     20 O6'         5.3280   -2.6580   -1.4830 oh        1 Z16     -0.594800
     21 HO1        -1.4820   -0.5040   -1.1360 ho        1 Z16      0.437000
     22 H3          3.2300    0.3330    1.1290 ha        1 Z16      0.159000
     23 HO4         3.0030    0.4040    3.4180 ho        1 Z16      0.425000
     24 H5         -0.4860   -0.0320    3.3440 ha        1 Z16      0.171000
     25 H1'         1.6460   -0.5760   -2.1270 h1        1 Z16      0.081700
     26 H2'         2.7600    2.1680   -1.1330 h1        1 Z16      0.062700
     27 HO2'        0.4160    1.7370   -1.7830 ho        1 Z16      0.426000
     28 H3'         2.7500    0.9820   -4.0190 h1        1 Z16      0.064700
     29 HO3'        2.7640    3.2900   -3.6620 ho        1 Z16      0.428000
     30 H4'         5.1680    1.3910   -2.0840 h1        1 Z16      0.060700
     31 HO4'        5.4400    1.5000   -4.4150 ho        1 Z16      0.426000
     32 H5'         3.7600   -1.2310   -3.0640 h1        1 Z16      0.073700
     33 H6'         6.0410   -0.7610   -0.9880 h1        1 Z16      0.063700
     34 H6'A        6.2870   -1.3640   -2.7120 h1        1 Z16      0.063700
     35 HO6'        4.6710   -2.6450   -0.7750 ho        1 Z16      0.409000
@<TRIPOS>BOND
     1    1    2 1   
     2    1    3 ar  
     3    1    8 ar  
     4    2   21 1   
     5    3    4 ar  
     6    3   10 1   
     7    4    5 ar  
     8    4   22 1   
     9    5    6 1   
    10    5    7 ar  
    11    6   23 1   
    12    7    8 ar  
    13    7   24 1   
    14    8    9 1   
    15   10   11 1   
    16   10   18 1   
    17   10   25 1   
    18   11   12 1   
    19   11   13 1   
    20   11   26 1   
    21   12   27 1   
    22   13   14 1   
    23   13   15 1   
    24   13   28 1   
    25   14   29 1   
    26   15   16 1   
    27   15   17 1   
    28   15   30 1   
    29   16   31 1   
    30   17   18 1   
    31   17   19 1   
    32   17   32 1   
    33   19   20 1   
    34   19   33 1   
    35   19   34 1   
    36   20   35 1   
@<TRIPOS>SUBSTRUCTURE
     1 Z16         1 TEMP              0 ****  ****    0 ROOT
