@<TRIPOS>MOLECULE
Z17
   33    33     1     0     0
SMALL
bcc


@<TRIPOS>ATOM
      1 C1         -0.1380   -0.0930    0.4340 c3        1 Z17     -0.148000
      2 C2         -0.2670    1.4130    0.3580 c2        1 Z17      0.293000
      3 C3          3.3990   -1.5390   -0.5260 c2        1 Z17      0.307000
      4 N2          5.5870   -3.4540   -2.8990 n         1 Z17     -0.462000
      5 C5          1.8990   -1.6390   -0.1470 c3        1 Z17     -0.081000
      6 C6          1.8110    0.9010   -0.3880 c2        1 Z17      0.078000
      7 O1          4.0860   -0.7180    0.0910 o         1 Z17     -0.293000
      8 N3          1.0600   -2.5310   -0.9570 n2        1 Z17      0.034000
      9 O2         -1.1460    2.2150    0.6220 o         1 Z17     -0.252000
     10 C7          4.7950   -4.6900   -3.0240 c3        1 Z17      0.198000
     11 N4          3.3450   -4.4820   -2.8310 n2        1 Z17     -0.304000
     12 O4          0.9360    1.9580   -0.1440 os        1 Z17     -0.202000
     13 C8          3.0040   -3.4590   -2.0850 c2        1 Z17      0.131000
     14 C9          3.8320   -2.4480   -1.5320 c2        1 Z17     -0.475000
     15 N5          1.5240   -3.3220   -1.7950 n3        1 Z17      0.009000
     16 C10         5.1950   -2.3900   -2.0830 c2        1 Z17      0.392000
     17 C11         1.2600   -0.3050   -0.0830 c2        1 Z17     -0.258000
     18 H1         -0.2550   -0.4460    1.4900 hc        1 Z17      0.139500
     19 H2         -0.9160   -0.5810   -0.2040 hc        1 Z17      0.139500
     20 H3          6.2410   -6.0190   -2.4410 hn        1 Z17      0.156000
     21 H4          4.8860   -5.0340   -4.1110 h3        1 Z17      0.129000
     22 H5          6.4990   -3.4440   -3.2840 hn        1 Z17      0.236000
     23 H6          0.6480   -5.1480   -2.4480 ha        1 Z17      0.103000
     24 H7          1.3420   -4.8650   -4.7510 ha        1 Z17      0.008000
     25 H8          1.3650   -4.1880   -4.8320 ha        1 Z17      0.008000
     26 H9          1.8560   -2.1020    0.8980 h1        1 Z17      0.172000
     27 H10         0.6660   -2.0380    2.8290 ha        1 Z17      0.008000
     28 H11         1.2250   -2.1290    3.2000 ha        1 Z17      0.008000
     29 H14         2.8000    1.2050   -0.7490 h4        1 Z17      0.226000
     30 N1          5.2880   -5.8180   -2.2100 n3        1 Z17     -0.363000
     31 C4          0.6910   -4.0600   -2.6900 c1        1 Z17      0.261000
     32 O3          5.9900   -1.4490   -1.9040 o         1 Z17     -0.354000
     33 H13         5.2120   -5.6500   -1.2280 hn        1 Z17      0.156000
@<TRIPOS>BOND
     1    1    2 1   
     2    1   17 1   
     3    1   18 1   
     4    1   19 1   
     5    2    9 1   
     6    2   12 1   
     7    3    5 1   
     8    3    7 1   
     9    3   14 1   
    10    4   10 1   
    11    4   16 1   
    12    4   22 1   
    13    5    8 1   
    14    5   17 1   
    15    5   26 1   
    16    6   12 1   
    17    6   17 1   
    18    6   29 1   
    19    8   15 1   
    20   10   11 1   
    21   10   21 1   
    22   10   30 1   
    23   11   13 1   
    24   13   14 1   
    25   13   15 1   
    26   14   16 1   
    27   15   31 1   
    28   16   32 1   
    29   20   30 1   
    30   23   31 1   
    31   24   25 1   
    32   27   28 1   
    33   30   33 1   
@<TRIPOS>SUBSTRUCTURE
     1 Z17         1 TEMP              0 ****  ****    0 ROOT
