@<TRIPOS>MOLECULE
Z17
   32    33     1     0     0
SMALL
bcc


@<TRIPOS>ATOM
      1 C1         -3.2230    0.4570    0.4950 c3        1 Z17     -0.193400
      2 C2         -4.6200   -0.1040    0.8250 c         1 Z17      0.912600
      3 C3          0.1260   -1.1190    0.1220 c         1 Z17      0.482000
      4 N2          3.8840   -0.8720    0.5720 n         1 Z17     -0.514400
      5 C5         -0.8910   -0.0800   -0.2550 cc        1 Z17      0.337300
      6 C6         -2.8130   -0.6580   -1.7120 c3        1 Z17     -0.090100
      7 O1         -0.1800   -2.2900    0.3640 o         1 Z17     -0.511100
      8 N3         -0.5750    1.1580   -0.5630 nd        1 Z17     -0.397400
      9 O2         -5.0430   -1.1310    0.2210 o         1 Z17     -0.847300
     10 C7          4.0610    0.4690    0.2270 cc        1 Z17      0.698800
     11 N4          3.0470    1.2930   -0.1080 nd        1 Z17     -0.736300
     12 O4         -5.2870    0.5250    1.6960 o         1 Z17     -0.847300
     13 C8          1.7590    0.7490   -0.1610 cd        1 Z17      0.428600
     14 C9          1.4900   -0.6020    0.1630 cc        1 Z17     -0.420400
     15 N5          0.7020    1.5790   -0.5490 na        1 Z17     -0.313500
     16 C10         2.5880   -1.4730    0.5360 c         1 Z17      0.741700
     17 C11        -2.3460   -0.5100   -0.2780 c3        1 Z17     -0.071000
     18 H1         -3.3700    1.3990   -0.0910 hc        1 Z17      0.030700
     19 H2         -2.7270    0.7270    1.4610 hc        1 Z17      0.030700
     20 H3          5.9890    0.6330    0.8910 hn        1 Z17      0.412300
     21 H4          5.4430    1.9600    0.0390 hn        1 Z17      0.412300
     22 H5          4.6630   -1.4580    0.7730 hn        1 Z17      0.327500
     23 H6          0.0010    3.4950   -1.1520 h1        1 Z17      0.054700
     24 H7          1.3840    3.4910    0.0440 h1        1 Z17      0.054700
     25 H8          1.6840    3.0410   -1.7070 h1        1 Z17      0.054700
     26 H9         -2.7830    0.3200   -2.2490 hc        1 Z17      0.040367
     27 H10        -2.1760   -1.3910   -2.2630 hc        1 Z17      0.040367
     28 H11        -3.8720   -1.0290   -1.6870 hc        1 Z17      0.040367
     29 H14        -2.4090   -1.5200    0.2230 hc        1 Z17      0.101700
     30 N1          5.3850    0.9730    0.1760 nh        1 Z17     -0.894800
     31 C4          0.9540    2.9800   -0.8580 c3        1 Z17      0.234100
     32 O3          2.5580   -2.6760    0.8330 o         1 Z17     -0.596500
@<TRIPOS>BOND
     1    1    2 1   
     2    1   17 1   
     3    1   18 1   
     4    1   19 1   
     5    2    9 1   
     6    2   12 1   
     7    3    5 1   
     8    3    7 2   
     9    3   14 1   
    10    4   10 1   
    11    4   16 1   
    12    4   22 1   
    13    5    8 2   
    14    5   17 1   
    15    6   17 1   
    16    6   26 1   
    17    6   27 1   
    18    6   28 1   
    19    8   15 1   
    20   10   11 2   
    21   10   30 1   
    22   11   13 1   
    23   13   14 2   
    24   13   15 1   
    25   14   16 1   
    26   15   31 1   
    27   16   32 2   
    28   17   29 1   
    29   20   30 1   
    30   21   30 1   
    31   23   31 1   
    32   24   31 1   
    33   25   31 1   
@<TRIPOS>SUBSTRUCTURE
     1 Z17         1 TEMP              0 ****  ****    0 ROOT
