@<TRIPOS>MOLECULE
Z17
   33    32     1     0     0
SMALL
bcc


@<TRIPOS>ATOM
      1 C1          0.0200   -0.3970    0.3940 c2        1 Z17     -0.149000
      2 C2         -0.4850    0.7630    1.1440 c2        1 Z17      0.223000
      3 C3          3.3170   -1.6820   -0.8790 c2        1 Z17      0.327000
      4 N2          5.6390   -4.0400   -2.5910 ns        1 Z17     -0.453000
      5 C5          1.7820   -1.5560   -0.9190 c2        1 Z17      0.095000
      6 C6          1.2090    0.8340    2.8640 c1        1 Z17      0.043000
      7 O1          3.9020   -0.8330   -0.1950 o         1 Z17     -0.314000
      8 N3          1.0200   -2.4030   -1.5930 na        1 Z17     -0.032000
      9 O2         -1.3670    1.5420    0.8180 o         1 Z17     -0.207000
     10 C7          4.7560   -5.2100   -2.7490 c3        1 Z17      0.186000
     11 N4          3.3210   -4.8700   -2.8070 n2        1 Z17     -0.248000
     12 O4          0.0100    0.9910    2.4660 os        1 Z17     -0.091000
     13 C8          2.9370   -3.7520   -2.2500 c2        1 Z17      0.162000
     14 C9          3.7920   -2.7520   -1.6500 c2        1 Z17     -0.442000
     15 N5          1.4820   -3.4990   -2.2960 na        1 Z17     -0.061000
     16 C10         5.2320   -2.8910   -1.9170 c2        1 Z17      0.383000
     17 C11         1.2130   -0.4070   -0.2120 c2        1 Z17     -0.145000
     18 H1          0.0050   -2.3010   -1.6770 hn        1 Z17      0.296000
     19 H2         -0.6740   -1.2580    0.4020 ha        1 Z17      0.166000
     20 H3          5.9730   -6.5740   -1.8220 hn        1 Z17      0.156000
     21 H4          4.9820   -5.6490   -3.7800 h3        1 Z17      0.133000
     22 H5          6.6080   -4.1630   -2.7650 hn        1 Z17      0.234000
     23 H6          0.8190   -5.0690   -3.4900 ha        1 Z17      0.154000
     24 H7          0.4180   -3.4210   -5.2680 ha        1 Z17      0.003250
     25 H8         -0.0530   -3.0390   -4.9670 ha        1 Z17      0.003250
     26 H9          1.9150    0.4570   -0.1810 ha        1 Z17      0.213000
     27 H10         3.4680    1.5750    0.8330 ha        1 Z17      0.003250
     28 H11         4.0880    1.3470    0.6820 ha        1 Z17      0.003250
     29 H14         2.0110    0.4860    2.1720 ha        1 Z17      0.052000
     30 N1          5.0110   -6.3040   -1.7920 n8        1 Z17     -0.360000
     31 C4          0.5280   -4.1740   -2.9160 c1        1 Z17     -0.131000
     32 O3          6.0830   -2.0290   -1.6240 o         1 Z17     -0.357000
     33 H13         4.7560   -6.0690   -0.8550 hn        1 Z17      0.156000
@<TRIPOS>BOND
     1    1    2 1   
     2    1   17 1   
     3    1   19 1   
     4    2    9 1   
     5    2   12 1   
     6    3    5 1   
     7    3    7 1   
     8    3   14 1   
     9    4   10 1   
    10    4   16 1   
    11    4   22 1   
    12    5    8 1   
    13    5   17 1   
    14    6   12 1   
    15    6   29 1   
    16    8   15 1   
    17    8   18 1   
    18   10   11 1   
    19   10   21 1   
    20   10   30 1   
    21   11   13 1   
    22   13   14 1   
    23   13   15 1   
    24   14   16 1   
    25   15   31 1   
    26   16   32 1   
    27   17   26 1   
    28   20   30 1   
    29   23   31 1   
    30   24   25 1   
    31   27   28 1   
    32   30   33 1   
@<TRIPOS>SUBSTRUCTURE
     1 Z17         1 TEMP              0 ****  ****    0 ROOT
