@<TRIPOS>MOLECULE
Z18
   63    63     1     0     0
SMALL
bcc


@<TRIPOS>ATOM
      1 N          -0.2860   -0.2600   -0.2740 nx        1 Z18     -0.670400
      2 C1          7.2370   -0.5460   -0.9380 ce        1 Z18     -0.262200
      3 O1          5.2310   -2.3130   -1.3850 os        1 Z18     -0.426900
      4 C2          7.8700   -1.7260   -0.9710 c2        1 Z18     -0.073200
      5 O2          3.2860   -3.4200   -1.2150 o         1 Z18     -0.561000
      6 C3          7.3000   -3.0230   -0.5050 c3        1 Z18     -0.046500
      7 O3          3.0330   -0.0410   -1.8500 os        1 Z18     -0.403900
      8 C4          8.0500   -3.5450    0.7040 c3        1 Z18     -0.093100
      9 O4          0.9940   -0.3820   -2.7830 o         1 Z18     -0.527000
     10 C5          5.7820   -3.0050   -0.2390 c3        1 Z18      0.155100
     11 O5          8.9260    0.8160   -1.9160 o         1 Z18     -0.522100
     12 C6          5.4280   -2.3260    1.0800 c3        1 Z18     -0.099400
     13 C7          4.0170   -1.8080    1.1400 c3        1 Z18     -0.103100
     14 C8          4.0040   -2.6460   -1.8550 c         1 Z18      0.638100
     15 C9          3.6320   -1.9780   -3.1600 c3        1 Z18     -0.138700
     16 C10         4.4600   -2.5350   -4.2970 c3        1 Z18     -0.094100
     17 C11         3.6830   -0.4450   -3.0960 c3        1 Z18      0.170100
     18 C12         1.6900   -0.1440   -1.7940 c         1 Z18      0.623100
     19 C13         1.1730    0.0590   -0.3800 c3        1 Z18      0.030800
     20 C14        -0.6570   -0.5450    1.1360 c3        1 Z18      0.080600
     21 C15        -1.1190    0.8370   -0.8390 c3        1 Z18      0.080600
     22 C16         5.0930    0.1720   -3.1100 c3        1 Z18     -0.072700
     23 C17         5.3810    0.6800   -4.5110 c3        1 Z18     -0.104100
     24 C18         5.2820    1.2790   -2.0830 c3        1 Z18     -0.058400
     25 C19         6.7240    1.7450   -1.9360 c3        1 Z18     -0.161700
     26 C20         6.8040    2.8190   -0.8650 c3        1 Z18     -0.089100
     27 C21         7.7380    0.6620   -1.6070 c         1 Z18      0.564300
     28 H1          6.2490   -0.4360   -0.4610 ha        1 Z18      0.138000
     29 H2          8.8820   -1.8050   -1.4110 ha        1 Z18      0.150000
     30 H3          7.4560   -3.7520   -1.3580 hc        1 Z18      0.072700
     31 H4          9.1220   -3.7140    0.4390 hc        1 Z18      0.050033
     32 H4A         8.0090   -2.8160    1.5480 hc        1 Z18      0.050033
     33 H4B         7.6080   -4.5120    1.0440 hc        1 Z18      0.050033
     34 H5          5.3840   -4.0590   -0.2330 h1        1 Z18      0.077700
     35 H6          6.1410   -1.4820    1.2800 hc        1 Z18      0.063700
     36 H6A         5.5860   -3.0850    1.8940 hc        1 Z18      0.063700
     37 H7          3.8520   -1.0570    0.3260 hc        1 Z18      0.034033
     38 H7A         3.2860   -2.6430    1.0050 hc        1 Z18      0.034033
     39 H7B         3.8310   -1.3180    2.1260 hc        1 Z18      0.034033
     40 H9          2.5500   -2.2580   -3.3430 hc        1 Z18      0.090700
     41 H10         4.1370   -2.0760   -5.2630 hc        1 Z18      0.062700
     42 H10A        5.5480   -2.3300   -4.1430 hc        1 Z18      0.062700
     43 H10B        4.3150   -3.6410   -4.3640 hc        1 Z18      0.062700
     44 H11         3.0720   -0.0340   -3.9510 h1        1 Z18      0.088700
     45 H13         1.7560   -0.6250    0.3110 hx        1 Z18      0.143200
     46 H13A        1.3500    1.1270   -0.0660 hx        1 Z18      0.143200
     47 H14        -0.4230    0.3480    1.7740 hx        1 Z18      0.111033
     48 H14A       -1.7580   -0.7650    1.1870 hx        1 Z18      0.111033
     49 H14B       -0.0800   -1.4370    1.5040 hx        1 Z18      0.111033
     50 H15        -0.8230    0.9990   -1.9130 hx        1 Z18      0.111033
     51 H15A       -2.2010    0.5410   -0.7860 hx        1 Z18      0.111033
     52 H15B       -0.9570    1.7780   -0.2490 hx        1 Z18      0.111033
     53 H16         5.8220   -0.6550   -2.8640 hc        1 Z18      0.095700
     54 H17         5.2000   -0.1230   -5.2660 hc        1 Z18      0.049367
     55 H17A        6.4510    0.9950   -4.5880 hc        1 Z18      0.049367
     56 H17B        4.7360    1.5570   -4.7580 hc        1 Z18      0.049367
     57 H18         4.9040    0.9340   -1.0840 hc        1 Z18      0.044200
     58 H18A        4.6600    2.1640   -2.3820 hc        1 Z18      0.044200
     59 H19         7.0500    2.2020   -2.9160 hc        1 Z18      0.082700
     60 H20         6.4830    2.4150    0.1250 hc        1 Z18      0.046367
     61 H20A        6.1420    3.6770   -1.1330 hc        1 Z18      0.046367
     62 H20B        7.8540    3.1910   -0.7770 hc        1 Z18      0.046367
     63 HN1        -0.4610   -1.1070   -0.8430 hn        1 Z18      0.471800
@<TRIPOS>BOND
     1    1   19 1   
     2    1   20 1   
     3    1   21 1   
     4    1   63 1   
     5    2    4 2   
     6    2   27 1   
     7    2   28 1   
     8    3   10 1   
     9    3   14 1   
    10    4    6 1   
    11    4   29 1   
    12    5   14 2   
    13    6    8 1   
    14    6   10 1   
    15    6   30 1   
    16    7   17 1   
    17    7   18 1   
    18    8   31 1   
    19    8   32 1   
    20    8   33 1   
    21    9   18 2   
    22   10   12 1   
    23   10   34 1   
    24   11   27 2   
    25   12   13 1   
    26   12   35 1   
    27   12   36 1   
    28   13   37 1   
    29   13   38 1   
    30   13   39 1   
    31   14   15 1   
    32   15   16 1   
    33   15   17 1   
    34   15   40 1   
    35   16   41 1   
    36   16   42 1   
    37   16   43 1   
    38   17   22 1   
    39   17   44 1   
    40   18   19 1   
    41   19   45 1   
    42   19   46 1   
    43   20   47 1   
    44   20   48 1   
    45   20   49 1   
    46   21   50 1   
    47   21   51 1   
    48   21   52 1   
    49   22   23 1   
    50   22   24 1   
    51   22   53 1   
    52   23   54 1   
    53   23   55 1   
    54   23   56 1   
    55   24   25 1   
    56   24   57 1   
    57   24   58 1   
    58   25   26 1   
    59   25   27 1   
    60   25   59 1   
    61   26   60 1   
    62   26   61 1   
    63   26   62 1   
@<TRIPOS>SUBSTRUCTURE
     1 Z18         1 TEMP              0 ****  ****    0 ROOT
