@<TRIPOS>MOLECULE
Z18
   63    63     1     0     0
SMALL
bcc


@<TRIPOS>ATOM
      1 N          -0.2880   -0.2510   -0.2760 n4        1 Z18     -0.670400
      2 C1          7.2320   -0.5350   -0.9690 ce        1 Z18     -0.262200
      3 O1          5.2260   -2.3110   -1.3780 os        1 Z18     -0.426900
      4 C2          7.8660   -1.7150   -0.9850 c2        1 Z18     -0.073200
      5 O2          3.2830   -3.4180   -1.1820 o         1 Z18     -0.561000
      6 C3          7.3000   -3.0050   -0.4960 c3        1 Z18     -0.046500
      7 O3          3.0230   -0.0500   -1.8700 os        1 Z18     -0.403900
      8 C4          8.0560   -3.5060    0.7180 c3        1 Z18     -0.093100
      9 O4          0.9800   -0.4090   -2.7880 o         1 Z18     -0.527000
     10 C5          5.7840   -2.9840   -0.2240 c3        1 Z18      0.155100
     11 O5          8.9140    0.8120   -1.9760 o         1 Z18     -0.522100
     12 C6          5.4340   -2.2850    1.0850 c3        1 Z18     -0.099400
     13 C7          4.0220   -1.7670    1.1440 c3        1 Z18     -0.103100
     14 C8          3.9980   -2.6540   -1.8370 c         1 Z18      0.638100
     15 C9          3.6190   -2.0070   -3.1510 c3        1 Z18     -0.138700
     16 C10         4.4440   -2.5810   -4.2830 c3        1 Z18     -0.094100
     17 C11         3.6690   -0.4730   -3.1120 c3        1 Z18      0.170100
     18 C12         1.6810   -0.1540   -1.8060 c         1 Z18      0.623100
     19 C13         1.1690    0.0700   -0.3940 c3        1 Z18      0.030800
     20 C14        -0.6530   -0.5140    1.1400 c3        1 Z18      0.080600
     21 C15        -1.1270    0.8350   -0.8540 c3        1 Z18      0.080600
     22 C16         5.0770    0.1450   -3.1420 c3        1 Z18     -0.072700
     23 C17         5.3590    0.6320   -4.5520 c3        1 Z18     -0.104100
     24 C18         5.2700    1.2690   -2.1340 c3        1 Z18     -0.058400
     25 C19         6.7120    1.7380   -2.0000 c3        1 Z18     -0.161700
     26 C20         6.7950    2.8290   -0.9460 c3        1 Z18     -0.089100
     27 C21         7.7280    0.6620   -1.6590 c         1 Z18      0.564300
     28 H1          6.2460   -0.4190   -0.4890 ha        1 Z18      0.138000
     29 H2          8.8760   -1.7990   -1.4280 ha        1 Z18      0.150000
     30 H3          7.4540   -3.7480   -1.3370 hc        1 Z18      0.072700
     31 H4          9.1270   -3.6790    0.4510 hc        1 Z18      0.050033
     32 H4A         8.0170   -2.7640    1.5510 hc        1 Z18      0.050033
     33 H4B         7.6170   -4.4690    1.0750 hc        1 Z18      0.050033
     34 H5          5.3870   -4.0380   -0.1990 h1        1 Z18      0.077700
     35 H6          6.1470   -1.4370    1.2690 hc        1 Z18      0.063700
     36 H6A         5.5960   -3.0300    1.9110 hc        1 Z18      0.063700
     37 H7          3.2920   -2.6060    1.0260 hc        1 Z18      0.034033
     38 H7A         3.8530   -1.0290    0.3180 hc        1 Z18      0.034033
     39 H7B         3.8410   -1.2620    2.1230 hc        1 Z18      0.034033
     40 H9          2.5360   -2.2910   -3.3250 hc        1 Z18      0.090700
     41 H10         5.5310   -2.3720   -4.1370 hc        1 Z18      0.062700
     42 H10A        4.1160   -2.1370   -5.2550 hc        1 Z18      0.062700
     43 H10B        4.2990   -3.6880   -4.3320 hc        1 Z18      0.062700
     44 H11         3.0530   -0.0770   -3.9700 h1        1 Z18      0.088700
     45 H13         1.3440    1.1440   -0.0980 hx        1 Z18      0.143200
     46 H13A        1.7570   -0.6010    0.3060 hx        1 Z18      0.143200
     47 H14        -0.0710   -1.3970    1.5200 hx        1 Z18      0.111033
     48 H14A       -1.7530   -0.7360    1.2000 hx        1 Z18      0.111033
     49 H14B       -0.4180    0.3900    1.7630 hx        1 Z18      0.111033
     50 H15        -0.8370    0.9800   -1.9330 hx        1 Z18      0.111033
     51 H15A       -2.2080    0.5370   -0.7920 hx        1 Z18      0.111033
     52 H15B       -0.9650    1.7850   -0.2810 hx        1 Z18      0.111033
     53 H16         5.8090   -0.6760   -2.8850 hc        1 Z18      0.095700
     54 H17         4.7120    1.5040   -4.8100 hc        1 Z18      0.049367
     55 H17A        5.1750   -0.1830   -5.2940 hc        1 Z18      0.049367
     56 H17B        6.4280    0.9460   -4.6390 hc        1 Z18      0.049367
     57 H18         4.8960    0.9390   -1.1270 hc        1 Z18      0.044200
     58 H18A        4.6440    2.1490   -2.4430 hc        1 Z18      0.044200
     59 H19         7.0320    2.1820   -2.9890 hc        1 Z18      0.082700
     60 H20         7.8450    3.2040   -0.8690 hc        1 Z18      0.046367
     61 H20A        6.1300    3.6820   -1.2240 hc        1 Z18      0.046367
     62 H20B        6.4790    2.4400    0.0510 hc        1 Z18      0.046367
     63 HN1        -0.4640   -1.1070   -0.8300 hn        1 Z18      0.471800
@<TRIPOS>BOND
     1    1   19 1   
     2    1   20 1   
     3    1   21 1   
     4    1   63 1   
     5    2    4 2   
     6    2   27 1   
     7    2   28 1   
     8    3   10 1   
     9    3   14 1   
    10    4    6 1   
    11    4   29 1   
    12    5   14 2   
    13    6    8 1   
    14    6   10 1   
    15    6   30 1   
    16    7   17 1   
    17    7   18 1   
    18    8   31 1   
    19    8   32 1   
    20    8   33 1   
    21    9   18 2   
    22   10   12 1   
    23   10   34 1   
    24   11   27 2   
    25   12   13 1   
    26   12   35 1   
    27   12   36 1   
    28   13   37 1   
    29   13   38 1   
    30   13   39 1   
    31   14   15 1   
    32   15   16 1   
    33   15   17 1   
    34   15   40 1   
    35   16   41 1   
    36   16   42 1   
    37   16   43 1   
    38   17   22 1   
    39   17   44 1   
    40   18   19 1   
    41   19   45 1   
    42   19   46 1   
    43   20   47 1   
    44   20   48 1   
    45   20   49 1   
    46   21   50 1   
    47   21   51 1   
    48   21   52 1   
    49   22   23 1   
    50   22   24 1   
    51   22   53 1   
    52   23   54 1   
    53   23   55 1   
    54   23   56 1   
    55   24   25 1   
    56   24   57 1   
    57   24   58 1   
    58   25   26 1   
    59   25   27 1   
    60   25   59 1   
    61   26   60 1   
    62   26   61 1   
    63   26   62 1   
@<TRIPOS>SUBSTRUCTURE
     1 Z18         1 TEMP              0 ****  ****    0 ROOT
