@<TRIPOS>MOLECULE
Z19
   21    22     1     0     0
SMALL
bcc


@<TRIPOS>ATOM
      1 N1          0.4260   -1.8030    0.1170 nc        1 Z19     -0.483100
      2 N2         -0.8740   -2.0720    0.1350 na        1 Z19     -0.004100
      3 C3         -1.6580   -0.9070    0.0480 ca        1 Z19     -0.062200
      4 C4         -0.7230    0.1910   -0.0260 ca        1 Z19     -0.169900
      5 C5          0.5840   -0.4550    0.0220 cd        1 Z19      0.287900
      6 C6          1.8690    0.2730   -0.0250 c         1 Z19      0.589800
      7 N7          3.0400   -0.4750   -0.1970 n         1 Z19     -0.435300
      8 N8          4.2930    0.0430   -0.0860 n3        1 Z19     -0.627800
      9 O9          1.9100    1.5200    0.0250 o         1 Z19     -0.606100
     10 C10        -3.0420   -0.6870    0.0280 ca        1 Z19     -0.140000
     11 C11        -3.4700    0.6290   -0.0640 ca        1 Z19     -0.097000
     12 C12        -2.5630    1.7050   -0.1340 ca        1 Z19     -0.155000
     13 C13        -1.1920    1.5020   -0.1160 ca        1 Z19     -0.052000
     14 HN2        -1.1950   -3.0100    0.1940 hn        1 Z19      0.330700
     15 HN7         3.0220   -1.4510    0.0300 hn        1 Z19      0.341500
     16 HN8         4.5000    0.5500   -0.9420 hn        1 Z19      0.349300
     17 HN8A        4.3250    0.7320    0.6610 hn        1 Z19      0.349300
     18 H10        -3.7550   -1.5200    0.0840 ha        1 Z19      0.140000
     19 H11        -4.5500    0.8430   -0.0820 ha        1 Z19      0.136000
     20 H12        -2.9610    2.7290   -0.2050 ha        1 Z19      0.138000
     21 H13        -0.4730    2.3350   -0.1670 ha        1 Z19      0.168000
@<TRIPOS>BOND
     1    1    2 1   
     2    1    5 2   
     3    2    3 1   
     4    2   14 1   
     5    3    4 ar  
     6    3   10 ar  
     7    4    5 1   
     8    4   13 ar  
     9    5    6 1   
    10    6    7 1   
    11    6    9 2   
    12    7    8 1   
    13    7   15 1   
    14    8   16 1   
    15    8   17 1   
    16   10   11 ar  
    17   10   18 1   
    18   11   12 ar  
    19   11   19 1   
    20   12   13 ar  
    21   12   20 1   
    22   13   21 1   
@<TRIPOS>SUBSTRUCTURE
     1 Z19         1 TEMP              0 ****  ****    0 ROOT
