@<TRIPOS>MOLECULE
Z19
   23    23     1     0     0
SMALL
bcc


@<TRIPOS>ATOM
      1 N1        360.4550   -1.7170  198.0200 nc        1 Z19     -0.187700
      2 N2        360.0060   -1.9580  196.8370 na        1 Z19      0.128600
      3 C3        361.0340   -2.0700  195.8570 ca        1 Z19     -0.110200
      4 C4        362.2800   -1.8660  196.5590 ca        1 Z19     -0.034800
      5 C5        361.8580   -1.6430  197.9440 cc        1 Z19     -0.169700
      6 C6        362.6620   -1.4010  199.0190 c1        1 Z19      0.790600
      7 N7       -827.6710    4.9180 -441.7700 n8        1 Z19     -0.673600
      8 N8       -828.6020    4.2390 -442.5490 nz        1 Z19     -0.609400
      9 O9        363.3760   -1.1960  199.9130 o         1 Z19     -0.162500
     10 C10       360.9950   -2.3200  194.4820 ca        1 Z19     -0.068000
     11 C11       362.2180   -2.3630  193.8190 ca        1 Z19     -0.092000
     12 C12       363.4350   -2.1650  194.4950 ca        1 Z19     -0.066000
     13 C13       363.4830   -1.9160  195.8650 ca        1 Z19     -0.099000
     14 HN2       359.0160   -2.0490  196.6710 hn        1 Z19      0.378700
     15 HN7      -826.7600    4.4710 -441.8200 hn        1 Z19      0.429800
     16 HN8      -828.6830    3.2750 -442.1740 hn        1 Z19      0.474800
     17 HN8A     -828.3880    4.1880 -443.5590 hn        1 Z19      0.474800
     18 H10       360.0460   -2.4760  193.9460 ha        1 Z19      0.176000
     19 H11       362.2330   -2.5580  192.7320 ha        1 Z19      0.178000
     20 H12       364.3780   -2.2090  193.9220 ha        1 Z19      0.175000
     21 H13       364.4480   -1.7640  196.3730 ha        1 Z19      0.164000
     22 H72      -827.5930    5.8880 -442.0600 hn        1 Z19      0.429800
     23 H83      -829.5200    4.7060 -442.4230 hn        1 Z19      0.474800
@<TRIPOS>BOND
     1    1    2 2   
     2    1    5 1   
     3    2    3 1   
     4    2   14 1   
     5    3    4 ar  
     6    3   10 ar  
     7    4    5 1   
     8    4   13 ar  
     9    5    6 2   
    10    6    9 2   
    11    7    8 1   
    12    7   15 1   
    13    7   22 1   
    14    8   16 1   
    15    8   17 1   
    16    8   23 1   
    17   10   11 ar  
    18   10   18 1   
    19   11   12 ar  
    20   11   19 1   
    21   12   13 ar  
    22   12   20 1   
    23   13   21 1   
@<TRIPOS>SUBSTRUCTURE
     1 Z19         1 TEMP              0 ****  ****    0 ROOT
