@<TRIPOS>MOLECULE
Z20
   35    37     1     0     0
SMALL
bcc


@<TRIPOS>ATOM
      1 O24         6.5560   -1.3270   -0.2760 o         1 Z20     -0.213500
      2 N22         6.2530   -0.1910   -0.0380 no        1 Z20      0.326200
      3 O23         7.0820    0.6840    0.0330 o         1 Z20     -0.213500
      4 C18         4.8300    0.1500    0.1710 ca        1 Z20     -0.277200
      5 C17         4.4050    1.4680    0.4580 ca        1 Z20      0.237100
      6 O25         5.1860    2.5730    0.5780 oh        1 Z20     -0.484100
      7 C16         3.0230    1.7120    0.6520 ca        1 Z20     -0.181000
      8 C15         2.1070    0.6840    0.5520 ca        1 Z20     -0.033000
      9 C19         3.8810   -0.8880    0.0800 ca        1 Z20     -0.008000
     10 C14         2.5200   -0.6310    0.2590 ca        1 Z20     -0.126800
     11 C13         1.5910   -1.7360    0.1480 ce        1 Z20      0.006800
     12 C11         0.2610   -1.6640   -0.0350 cd        1 Z20     -0.128600
     13 C10        -0.5520   -2.9140   -0.1280 c         1 Z20      0.708700
     14 O21        -0.1250   -4.0720   -0.0430 o         1 Z20     -0.578500
     15 N9         -1.9100   -2.6350   -0.3330 n         1 Z20     -0.493400
     16 S12        -0.7470   -0.3030   -0.2200 ss        1 Z20     -0.175800
     17 C8         -2.2410   -1.2670   -0.3810 cc        1 Z20      0.531800
     18 N7         -3.4650   -0.8600   -0.5090 nf        1 Z20     -0.598100
     19 C2         -3.8380    0.4900   -0.5730 ca        1 Z20      0.155400
     20 C3         -5.1310    0.8520   -0.1120 ca        1 Z20      0.040400
     21 CL1        -6.1680   -0.3000    0.5810 cl        1 Z20     -0.067400
     22 C4         -5.5750    2.1720   -0.2120 ca        1 Z20     -0.122000
     23 C5         -4.7560    3.1520   -0.7680 ca        1 Z20     -0.121000
     24 C6         -3.4850    2.8140   -1.2280 ca        1 Z20     -0.117000
     25 C1         -3.0270    1.5050   -1.1310 ca        1 Z20     -0.155000
     26 H1          6.1280    2.3720    0.4420 ho        1 Z20      0.472000
     27 H2          2.7060    2.7410    0.8830 ha        1 Z20      0.171000
     28 H3          1.0360    0.9020    0.7250 ha        1 Z20      0.160000
     29 H4          4.2250   -1.9160   -0.1400 ha        1 Z20      0.178000
     30 H5          2.0460   -2.7490    0.2130 ha        1 Z20      0.166000
     31 H10        -6.5810    2.4380    0.1510 ha        1 Z20      0.151000
     32 H11        -5.1160    4.1890   -0.8430 ha        1 Z20      0.141000
     33 H12        -2.8370    3.5860   -1.6720 ha        1 Z20      0.139000
     34 H13        -2.0250    1.2590   -1.5230 ha        1 Z20      0.145000
     35 H14        -2.5950   -3.3530   -0.3970 hn        1 Z20      0.364500
@<TRIPOS>BOND
     1    1    2 1   
     2    2    3 1   
     3    2    4 1   
     4    4    5 ar  
     5    4    9 ar  
     6    5    6 1   
     7    5    7 ar  
     8    6   26 1   
     9    7    8 ar  
    10    7   27 1   
    11    8   10 ar  
    12    8   28 1   
    13    9   10 ar  
    14    9   29 1   
    15   10   11 1   
    16   11   12 2   
    17   11   30 1   
    18   12   13 1   
    19   12   16 1   
    20   13   14 2   
    21   13   15 1   
    22   15   17 1   
    23   15   35 1   
    24   16   17 1   
    25   17   18 2   
    26   18   19 1   
    27   19   20 ar  
    28   19   25 ar  
    29   20   21 1   
    30   20   22 ar  
    31   22   23 ar  
    32   22   31 1   
    33   23   24 ar  
    34   23   32 1   
    35   24   25 ar  
    36   24   33 1   
    37   25   34 1   
@<TRIPOS>SUBSTRUCTURE
     1 Z20         1 TEMP              0 ****  ****    0 ROOT
