@<TRIPOS>MOLECULE
Z20
   35    37     1     0     0
SMALL
bcc


@<TRIPOS>ATOM
      1 O24        -0.4530    0.9810   -0.2950 o         1 Z20     -0.197000
      2 N22         0.6880    0.7570    0.0210 no        1 Z20      0.326200
      3 O23         1.0590    0.8130    1.1580 o         1 Z20     -0.197000
      4 C18         1.6530    0.4010   -1.0480 ca        1 Z20     -0.221200
      5 C17         3.0120    0.1330   -0.7480 ca        1 Z20      0.209100
      6 O25         3.4120    0.2080    0.5520 oh        1 Z20     -0.443100
      7 C16         3.8960   -0.1980   -1.7920 ca        1 Z20     -0.234000
      8 C15         3.4400   -0.2690   -3.0990 ca        1 Z20     -0.027000
      9 C19         1.2090    0.3310   -2.3760 ca        1 Z20     -0.008000
     10 C14         2.0930   -0.0110   -3.4090 ca        1 Z20     -0.127800
     11 C13         1.5760   -0.0700   -4.7610 ce        1 Z20      0.007800
     12 C11         2.1440   -0.6680   -5.8220 cd        1 Z20     -0.128600
     13 C10         1.4700   -0.6290   -7.1550 c         1 Z20      0.709700
     14 O21         0.3940   -0.0750   -7.4150 o         1 Z20     -0.576500
     15 N9          2.2060   -1.3180   -8.1290 ns        1 Z20     -0.493400
     16 S12         3.5960   -1.5540   -5.9340 ss        1 Z20     -0.178800
     17 C8          3.4200   -1.8730   -7.6830 cc        1 Z20      0.533800
     18 N7          4.2310   -2.4890   -8.4850 nf        1 Z20     -0.599100
     19 C2          5.4420   -3.0670   -8.0780 ca        1 Z20      0.155400
     20 C3          6.4960   -3.1530   -9.0260 ca        1 Z20      0.040400
     21 Cl1         6.3320   -2.4940  -10.5820 cl        1 Z20     -0.067400
     22 C4          7.6990   -3.7800   -8.6930 ca        1 Z20     -0.121000
     23 C5          7.8800   -4.3300   -7.4270 ca        1 Z20     -0.122000
     24 C6          6.8560   -4.2560   -6.4850 ca        1 Z20     -0.118000
     25 C1          5.6550   -3.6320   -6.8010 ca        1 Z20     -0.155000
     26 H1          4.3610    0.0050    0.5950 ho        1 Z20      0.433000
     27 H2          4.9530   -0.3990   -1.5610 ha        1 Z20      0.153000
     28 H3          4.1580   -0.5140   -3.9030 ha        1 Z20      0.158000
     29 H4          0.1480    0.5460   -2.6040 ha        1 Z20      0.181000
     30 H5          0.5960    0.4310   -4.9160 ha        1 Z20      0.167000
     31 H10         8.5070   -3.8390   -9.4390 ha        1 Z20      0.151000
     32 H11         8.8310   -4.8230   -7.1750 ha        1 Z20      0.141000
     33 H12         6.9950   -4.6950   -5.4850 ha        1 Z20      0.138000
     34 H13         4.8510   -3.6050   -6.0440 ha        1 Z20      0.145000
     35 H14         1.9090   -1.3730   -9.0760 hn        1 Z20      0.364500
@<TRIPOS>BOND
     1    1    2 1   
     2    2    3 1   
     3    2    4 1   
     4    4    5 ar  
     5    4    9 ar  
     6    5    6 1   
     7    5    7 ar  
     8    6   26 1   
     9    7    8 ar  
    10    7   27 1   
    11    8   10 ar  
    12    8   28 1   
    13    9   10 ar  
    14    9   29 1   
    15   10   11 1   
    16   11   12 2   
    17   11   30 1   
    18   12   13 1   
    19   12   16 1   
    20   13   14 2   
    21   13   15 1   
    22   15   17 1   
    23   15   35 1   
    24   16   17 1   
    25   17   18 2   
    26   18   19 1   
    27   19   20 ar  
    28   19   25 ar  
    29   20   21 1   
    30   20   22 ar  
    31   22   23 ar  
    32   22   31 1   
    33   23   24 ar  
    34   23   32 1   
    35   24   25 ar  
    36   24   33 1   
    37   25   34 1   
@<TRIPOS>SUBSTRUCTURE
     1 Z20         1 TEMP              0 ****  ****    0 ROOT
