@<TRIPOS>MOLECULE
Z20
   35    27     1     0     0
SMALL
bcc


@<TRIPOS>ATOM
      1 O24        -4.8600    2.8060   -0.8290 o         1 Z20     -0.310700
      2 N22        -4.0370    3.2270   -1.8330 n2        1 Z20      0.473400
      3 O23        -4.4760    3.9360   -2.7270 o         1 Z20     -0.310700
      4 C18        -2.6570    2.8960   -1.8040 c1        1 Z20     -0.240000
      5 C17        -1.9150    2.9230   -2.9740 c1        1 Z20      0.197000
      6 O25        -2.5360    3.2510   -4.1920 oh        1 Z20     -0.239000
      7 C16        -0.5500    2.6900   -2.9340 c1        1 Z20     -0.116000
      8 C15         0.0740    2.4300   -1.7240 c1        1 Z20     -0.116000
      9 C19        -2.0340    2.6360   -0.5940 c1        1 Z20      0.018000
     10 C14        -0.6680    2.4030   -0.5530 c1        1 Z20     -0.144000
     11 C13         0.0350    2.2820    0.7810 c2        1 Z20      0.214000
     12 C11         0.0710    1.0900    1.4180 c1        1 Z20     -1.100000
     13 C10        -0.5460   -0.7940    0.7270 c1        1 Z20      0.039000
     14 O21        -0.6690   -1.7170    1.5130 o         1 Z20     -0.261000
     15 N9         -0.1700   -0.8840    0.4280 n2        1 Z20     -0.360000
     16 S12         0.2940    0.9960    1.7680 ss        1 Z20      1.518000
     17 C8          0.9750   -0.2310    1.2650 c2        1 Z20     -0.265000
     18 N7          1.9520   -0.8680    1.8620 n1        1 Z20     -0.129000
     19 C2          2.0330   -2.2820    1.7780 c1        1 Z20     -0.025000
     20 C3          2.7750   -2.8720    0.7660 c1        1 Z20     -0.025000
     21 CL1         3.4540   -1.8890   -0.5030 cl        1 Z20     -0.003000
     22 C4          2.9740   -4.2440    0.7620 c1        1 Z20     -0.136000
     23 C5          2.4330   -5.0260    1.7700 c1        1 Z20     -0.116000
     24 C6          1.6910   -4.4370    2.7820 c1        1 Z20     -0.116000
     25 C1          1.4910   -3.0660    2.7860 c1        1 Z20     -0.136000
     26 H1         -2.2090    4.0210   -4.4940 ho        1 Z20      0.272000
     27 H2         -0.0270    2.7090   -3.7580 ha        1 Z20      0.148750
     28 H3          1.0360    2.2660   -1.6960 ha        1 Z20      0.148750
     29 H4         -2.5560    2.6170    0.2310 ha        1 Z20      0.181000
     30 H5          0.3600    3.0840    1.2310 ha        1 Z20      0.117000
     31 H10         3.4960   -4.6590    0.0500 ha        1 Z20      0.142000
     32 H11         2.5730   -5.9920    1.7670 ha        1 Z20      0.148750
     33 H12         1.3100   -4.9880    3.4920 ha        1 Z20      0.148750
     34 H13         0.9690   -2.6510    3.4990 ha        1 Z20      0.142000
     35 H14        -0.0880   -1.6610   -0.0600 hn        1 Z20      0.239000
@<TRIPOS>BOND
     1    1    2 2   
     2    2    3 2   
     3    4    5 1   
     4    5    6 1   
     5    6   26 1   
     6    7    8 1   
     7    7   27 1   
     8    8   28 1   
     9    9   10 1   
    10    9   29 1   
    11   10   11 1   
    12   11   12 1   
    13   11   30 1   
    14   12   16 1   
    15   13   14 1   
    16   15   17 1   
    17   15   35 1   
    18   16   17 1   
    19   17   18 1   
    20   19   20 1   
    21   19   25 1   
    22   20   22 1   
    23   22   31 1   
    24   23   24 1   
    25   23   32 1   
    26   24   33 1   
    27   25   34 1   
@<TRIPOS>SUBSTRUCTURE
     1 Z20         1 TEMP              0 ****  ****    0 ROOT
