@<TRIPOS>MOLECULE
Z21
   27    29     1     0     0
SMALL
bcc


@<TRIPOS>ATOM
      1 BR         -4.4270    0.1070   -0.2050 br        1 Z21     -0.140200
      2 C          -2.6190   -0.4040   -0.0150 ca        1 Z21      0.463500
      3 C1         -1.6310    0.5720   -0.1790 ca        1 Z21     -0.208300
      4 C2         -0.3040    0.1380   -0.0250 ca        1 Z21     -0.052200
      5 N2          0.9350    0.7750   -0.1210 na        1 Z21     -0.127300
      6 C6          1.1280    2.1760   -0.3850 c3        1 Z21      0.041300
      7 C7          1.1580    3.0680    0.8460 c3        1 Z21     -0.118100
      8 C5          1.9050   -0.2260    0.1490 cc        1 Z21      0.381800
      9 N1          1.3550   -1.4460    0.3860 nd        1 Z21     -0.558100
     10 C3         -0.0250   -1.2550    0.2850 ca        1 Z21     -0.043900
     11 C4         -1.1280   -2.1350    0.4240 ca        1 Z21      0.469200
     12 N          -2.3830   -1.7170    0.2780 nb        1 Z21     -0.653000
     13 C8          3.3350    0.0160    0.1650 cc        1 Z21      0.178700
     14 C9          4.4080   -1.0150   -0.0680 cc        1 Z21      0.501900
     15 N5          4.2130   -2.3110   -0.4650 nh        1 Z21     -0.912500
     16 N4          5.5880   -0.3420    0.0860 nd        1 Z21     -0.433300
     17 O           5.2760    0.9310    0.3620 os        1 Z21      0.132600
     18 N3          3.9780    1.1680    0.4210 nd        1 Z21     -0.315300
     19 H1         -1.8740    1.6170   -0.4130 ha        1 Z21      0.162000
     20 H61C        2.0870    2.3000   -0.9650 h1        1 Z21      0.070700
     21 H62C        0.2770    2.5050   -1.0520 h1        1 Z21      0.070700
     22 H71C        1.9940    2.7910    1.5330 hc        1 Z21      0.055700
     23 H72C        1.3100    4.1220    0.5100 hc        1 Z21      0.055700
     24 H73C        0.1980    3.0070    1.4120 hc        1 Z21      0.055700
     25 H4         -0.9810   -3.2040    0.6610 h4        1 Z21      0.044100
     26 H51N        3.3330   -2.7170   -0.2420 hn        1 Z21      0.440800
     27 H52N        5.0000   -2.9180   -0.4140 hn        1 Z21      0.440800
@<TRIPOS>BOND
     1    1    2 1   
     2    2    3 ar  
     3    2   12 ar  
     4    3    4 ar  
     5    3   19 1   
     6    4    5 1   
     7    4   10 ar  
     8    5    6 1   
     9    5    8 1   
    10    6    7 1   
    11    6   20 1   
    12    6   21 1   
    13    7   22 1   
    14    7   23 1   
    15    7   24 1   
    16    8    9 2   
    17    8   13 1   
    18    9   10 1   
    19   10   11 ar  
    20   11   12 ar  
    21   11   25 1   
    22   13   14 1   
    23   13   18 2   
    24   14   15 1   
    25   14   16 2   
    26   15   26 1   
    27   15   27 1   
    28   16   17 1   
    29   17   18 1   
@<TRIPOS>SUBSTRUCTURE
     1 Z21         1 TEMP              0 ****  ****    0 ROOT
