@<TRIPOS>MOLECULE
Z21
   27    29     1     0     0
SMALL
bcc


@<TRIPOS>ATOM
      1 Br          0.0480    0.1150   -0.0260 br        1 Z21     -0.140200
      2 C           1.9320   -0.0170   -0.0080 ca        1 Z21      0.463500
      3 C1          2.5910    0.0390    1.2250 ca        1 Z21     -0.208300
      4 C2          3.9900   -0.0650    1.1810 ca        1 Z21     -0.052200
      5 N2          4.9890   -0.0400    2.1580 na        1 Z21     -0.127300
      6 C6          4.7610    0.0670    3.5730 c3        1 Z21      0.041300
      7 C7          4.5730   -1.2560    4.3000 c3        1 Z21     -0.118100
      8 C5          6.2150   -0.1970    1.4580 cc        1 Z21      0.381800
      9 N1          6.0480   -0.2960    0.1140 nd        1 Z21     -0.558100
     10 C3          4.6690   -0.2180   -0.0950 ca        1 Z21     -0.043900
     11 C4          3.8730   -0.2600   -1.2670 ca        1 Z21      0.469200
     12 N           2.5460   -0.1620   -1.2180 nb        1 Z21     -0.653000
     13 C8          7.5140   -0.2380    2.1020 cc        1 Z21      0.178700
     14 C9          8.8300    0.1080    1.4580 cc        1 Z21      0.501900
     15 N5          9.0050    0.6440    0.2100 nv        1 Z21     -0.912500
     16 N4          9.7700   -0.1190    2.4240 nd        1 Z21     -0.433300
     17 O           9.1140   -0.5330    3.5160 os        1 Z21      0.132600
     18 N3          7.8050   -0.6190    3.3580 nd        1 Z21     -0.315300
     19 H1          2.0490    0.1560    2.1730 ha        1 Z21      0.162000
     20 H61C        5.6230    0.6310    4.0320 h1        1 Z21      0.070700
     21 H62C        3.8290    0.6930    3.7100 h1        1 Z21      0.070700
     22 H71C        3.6910   -1.8120    3.9030 hc        1 Z21      0.055700
     23 H72C        5.4750   -1.9060    4.2070 hc        1 Z21      0.055700
     24 H73C        4.4030   -1.0380    5.3830 hc        1 Z21      0.055700
     25 H4          4.3290   -0.3760   -2.2660 h4        1 Z21      0.044100
     26 H51N        8.2870    0.4680   -0.4550 hn        1 Z21      0.440800
     27 H52N        9.9350    0.6620   -0.1440 hn        1 Z21      0.440800
@<TRIPOS>BOND
     1    1    2 1   
     2    2    3 ar  
     3    2   12 ar  
     4    3    4 ar  
     5    3   19 1   
     6    4    5 1   
     7    4   10 ar  
     8    5    6 1   
     9    5    8 1   
    10    6    7 1   
    11    6   20 1   
    12    6   21 1   
    13    7   22 1   
    14    7   23 1   
    15    7   24 1   
    16    8    9 2   
    17    8   13 1   
    18    9   10 1   
    19   10   11 ar  
    20   11   12 ar  
    21   11   25 1   
    22   13   14 1   
    23   13   18 2   
    24   14   15 1   
    25   14   16 2   
    26   15   26 1   
    27   15   27 1   
    28   16   17 1   
    29   17   18 1   
@<TRIPOS>SUBSTRUCTURE
     1 Z21         1 TEMP              0 ****  ****    0 ROOT
