@<TRIPOS>MOLECULE
Z22
   12    11     1     0     0
SMALL
bcc


@<TRIPOS>ATOM
      1 S           1.2720    0.8050   -0.8380 ss        1 Z22     -0.539000
      2 S2         -0.7260    0.5050    0.1290 s6        1 Z22      1.328700
      3 C           2.6270    0.4550    0.2540 c3        1 Z22      0.101000
      4 O1         -0.9080   -0.8380    0.4400 o         1 Z22     -0.580800
      5 O2         -0.9010    1.4240    1.1570 o         1 Z22     -0.580800
      6 C2         -1.4740    0.9550   -1.2830 c3        1 Z22     -0.383300
      7 H           3.5510    0.6400   -0.3380 h1        1 Z22      0.067033
      8 H2         -0.7650    1.2190   -2.1220 h1        1 Z22      0.151700
      9 H3         -2.1280    0.1460   -1.7040 h1        1 Z22      0.151700
     10 H4         -2.1230    1.8630   -1.1600 h1        1 Z22      0.151700
     11 HA          2.6000    1.1350    1.1320 h1        1 Z22      0.067033
     12 HB          2.5950   -0.6060    0.5800 h1        1 Z22      0.067033
@<TRIPOS>BOND
     1    1    2 1   
     2    1    3 1   
     3    2    4 2   
     4    2    5 2   
     5    2    6 1   
     6    3    7 1   
     7    3   11 1   
     8    3   12 1   
     9    6    8 1   
    10    6    9 1   
    11    6   10 1   
@<TRIPOS>SUBSTRUCTURE
     1 Z22         1 TEMP              0 ****  ****    0 ROOT
