@<TRIPOS>MOLECULE
Z22
   12    11     1     0     0
SMALL
bcc


@<TRIPOS>ATOM
      1 S           0.3620   -1.0670    1.2150 ss        1 Z22     -0.539000
      2 S2          2.2310   -0.1290    0.4140 s6        1 Z22      1.328700
      3 C          -0.8510    0.1290    1.7150 c3        1 Z22      0.101000
      4 O1          1.9540    0.5540   -0.7650 o         1 Z22     -0.580800
      5 O2          2.8780    0.5790    1.4200 o         1 Z22     -0.580800
      6 C2          2.8760   -1.6360    0.1580 c3        1 Z22     -0.383300
      7 H          -1.7200   -0.4570    2.0900 h1        1 Z22      0.067033
      8 H2          2.1970   -2.4890    0.4540 h1        1 Z22      0.151700
      9 H3          3.1210   -1.8260   -0.9210 h1        1 Z22      0.151700
     10 H4          3.8210   -1.8080    0.7390 h1        1 Z22      0.151700
     11 HA         -1.1610    0.7500    0.8480 h1        1 Z22      0.067033
     12 HB         -0.4490    0.7680    2.5290 h1        1 Z22      0.067033
@<TRIPOS>BOND
     1    1    2 1   
     2    1    3 1   
     3    2    4 2   
     4    2    5 2   
     5    2    6 1   
     6    3    7 1   
     7    3   11 1   
     8    3   12 1   
     9    6    8 1   
    10    6    9 1   
    11    6   10 1   
@<TRIPOS>SUBSTRUCTURE
     1 Z22         1 TEMP              0 ****  ****    0 ROOT
