@<TRIPOS>MOLECULE
Z23
   48    50     1     0     0
SMALL
bcc


@<TRIPOS>ATOM
      1 C1         -0.9270    0.2670   -0.5380 ca        1 Z23     -0.099000
      2 C2          0.4100   -0.1160   -0.7040 ca        1 Z23     -0.231400
      3 C3          1.2440   -0.3220    0.3980 ca        1 Z23     -0.102000
      4 C4          0.7080   -0.1470    1.6870 ca        1 Z23      0.122100
      5 C5         -0.6290    0.2260    1.8690 ca        1 Z23     -0.097500
      6 C6         -1.4360    0.4330    0.7500 ca        1 Z23     -0.092500
      7 O7          1.6180   -0.4150    2.7010 os        1 Z23     -0.346900
      8 C8          1.1730   -0.3020    4.0210 ca        1 Z23      0.549600
      9 N9          0.9640    0.9290    4.5380 nb        1 Z23     -0.659000
     10 C10         0.6830    0.9800    5.8560 ca        1 Z23      0.549600
     11 C11         1.1130   -1.5140    4.7710 ca        1 Z23      0.062100
     12 C12         0.8300   -1.4440    6.1540 ca        1 Z23     -0.072300
     13 C13         0.6160   -0.1650    6.7100 ca        1 Z23      0.062100
     14 O14         0.2960    2.1940    6.4310 os        1 Z23     -0.346900
     15 C15         1.2910    3.1590    6.5840 ca        1 Z23      0.122100
     16 C16         1.9680    3.7410    5.5050 ca        1 Z23     -0.097500
     17 C17         2.8470    4.7970    5.7500 ca        1 Z23     -0.092500
     18 C18         3.0440    5.2770    7.0440 ca        1 Z23     -0.099000
     19 C19         2.3490    4.6920    8.1110 ca        1 Z23     -0.231400
     20 C20         1.4730    3.6230    7.8960 ca        1 Z23     -0.102000
     21 C21         2.5360    5.2190    9.4930 ce        1 Z23      0.518400
     22 N22         3.7940    5.4020    9.9500 nh        1 Z23     -0.463100
     23 C23         0.9490   -0.3260   -2.0780 ce        1 Z23      0.518400
     24 N24         0.7350    0.6300   -3.0090 nh        1 Z23     -0.463100
     25 N25         1.6280   -1.4650   -2.3360 nh        1 Z23     -0.447200
     26 F26         1.3360   -2.6930    4.1630 f         1 Z23     -0.092400
     27 C27         0.7520   -2.6660    6.9810 c3        1 Z23     -0.075800
     28 F28         0.3440   -0.0070    8.0180 f         1 Z23     -0.092400
     29 N38         1.4380    5.4940   10.2310 nh        1 Z23     -0.447200
     30 H29        -1.5900    0.4140   -1.4050 ha        1 Z23      0.157500
     31 H30         2.3030   -0.6050    0.2910 ha        1 Z23      0.170000
     32 H31        -1.0520    0.3520    2.8780 ha        1 Z23      0.180000
     33 H32        -2.4910    0.7250    0.8860 ha        1 Z23      0.173000
     34 H33         1.8040    3.3800    4.4760 ha        1 Z23      0.180000
     35 H34         3.3860    5.2650    4.9080 ha        1 Z23      0.173000
     36 H35         3.7270    6.1260    7.2090 ha        1 Z23      0.157500
     37 H36         0.9260    3.1360    8.7190 ha        1 Z23      0.170000
     38 H39         4.5620    5.1570    9.3610 hn        1 Z23      0.330075
     39 H46         3.9970    5.7680   10.8560 hn        1 Z23      0.330075
     40 H40         1.0450    0.5500   -3.9540 hn        1 Z23      0.330075
     41 H48         0.2400    1.4570   -2.7460 hn        1 Z23      0.330075
     42 H41         1.7290   -2.1420   -1.6080 hn        1 Z23      0.330075
     43 H47         2.0200   -1.6760   -3.2290 hn        1 Z23      0.330075
     44 H42         1.4450   -3.4540    6.5900 hc        1 Z23      0.081700
     45 H43         1.0170   -2.4450    8.0450 hc        1 Z23      0.081700
     46 H44        -0.2920   -3.0750    6.9570 hc        1 Z23      0.081700
     47 H49         0.5360    5.3590    9.8230 hn        1 Z23      0.330075
     48 H50         1.4830    5.8410   11.1660 hn        1 Z23      0.330075
@<TRIPOS>BOND
     1    1    2 ar  
     2    1    6 ar  
     3    1   30 1   
     4    2    3 ar  
     5    2   23 1   
     6    3    4 ar  
     7    3   31 1   
     8    4    5 ar  
     9    4    7 1   
    10    5    6 ar  
    11    5   32 1   
    12    6   33 1   
    13    7    8 1   
    14    8    9 ar  
    15    8   11 ar  
    16    9   10 ar  
    17   10   13 ar  
    18   10   14 1   
    19   11   12 ar  
    20   11   26 1   
    21   12   13 ar  
    22   12   27 1   
    23   13   28 1   
    24   14   15 1   
    25   15   16 ar  
    26   15   20 ar  
    27   16   17 ar  
    28   16   34 1   
    29   17   18 ar  
    30   17   35 1   
    31   18   19 ar  
    32   18   36 1   
    33   19   20 ar  
    34   19   21 1   
    35   20   37 1   
    36   21   22 2   
    37   21   29 1   
    38   22   38 1   
    39   22   39 1   
    40   23   24 2   
    41   23   25 1   
    42   24   40 1   
    43   24   41 1   
    44   25   42 1   
    45   25   43 1   
    46   27   44 1   
    47   27   45 1   
    48   27   46 1   
    49   29   47 1   
    50   29   48 1   
@<TRIPOS>SUBSTRUCTURE
     1 Z23         1 TEMP              0 ****  ****    0 ROOT
