@<TRIPOS>MOLECULE
Z23
   48    50     1     0     0
SMALL
bcc


@<TRIPOS>ATOM
      1 C1          4.3460    0.3330    2.9260 ca        1 Z23     -0.109500
      2 C2          4.9570   -0.1650    1.7690 ca        1 Z23     -0.223400
      3 C3          4.2590   -0.2430    0.5610 ca        1 Z23     -0.110500
      4 C4          2.9230    0.1950    0.5290 ca        1 Z23      0.136600
      5 C5          2.2980    0.6950    1.6770 ca        1 Z23     -0.115500
      6 C6          3.0180    0.7550    2.8700 ca        1 Z23     -0.083500
      7 O7          2.3270    0.0520   -0.7180 os        1 Z23     -0.342900
      8 C8          1.1580    0.7800   -0.9610 ca        1 Z23      0.541100
      9 N9         -0.0180    0.2710   -0.5330 nb        1 Z23     -0.648000
     10 C10        -1.1290    0.9160   -0.9480 ca        1 Z23      0.541100
     11 C11         1.2830    1.9370   -1.7880 ca        1 Z23      0.067600
     12 C12         0.1100    2.6000   -2.2140 ca        1 Z23     -0.075300
     13 C13        -1.1280    2.0720   -1.7880 ca        1 Z23      0.067600
     14 O14        -2.3710    0.5520   -0.4250 os        1 Z23     -0.342900
     15 C15        -2.8680   -0.7080   -0.7310 ca        1 Z23      0.136600
     16 C16        -2.3030   -1.6050   -1.6460 ca        1 Z23     -0.115500
     17 C17        -2.9460   -2.8170   -1.8940 ca        1 Z23     -0.083500
     18 C18        -4.1420   -3.1360   -1.2500 ca        1 Z23     -0.109500
     19 C19        -4.7000   -2.2240   -0.3460 ca        1 Z23     -0.223400
     20 C20        -4.0720   -1.0060   -0.0690 ca        1 Z23     -0.110500
     21 C21        -5.9950   -2.5450    0.3190 ce        1 Z23      0.518400
     22 N22        -6.1390   -3.7540    0.9030 nh        1 Z23     -0.463100
     23 C23         6.3800   -0.6080    1.8180 ce        1 Z23      0.518400
     24 N24         7.2910    0.2150    2.3820 nh        1 Z23     -0.463100
     25 N25         6.7000   -1.8130    1.2990 nh        1 Z23     -0.447200
     26 F26         2.5020    2.3690   -2.1580 f         1 Z23     -0.088900
     27 C27         0.1770    3.8030   -3.0690 c3        1 Z23     -0.075800
     28 F28        -2.2920    2.6380   -2.1510 f         1 Z23     -0.088900
     29 N38        -6.9730   -1.6130    0.3070 nh        1 Z23     -0.447200
     30 H29         4.8900    0.3800    3.8830 ha        1 Z23      0.157500
     31 H30         4.7230   -0.6150   -0.3660 ha        1 Z23      0.170000
     32 H31         1.2520    1.0390    1.6520 ha        1 Z23      0.174000
     33 H32         2.5310    1.1430    3.7820 ha        1 Z23      0.173000
     34 H33        -1.3660   -1.3640   -2.1730 ha        1 Z23      0.174000
     35 H34        -2.5090   -3.5280   -2.6150 ha        1 Z23      0.173000
     36 H35        -4.6440   -4.0890   -1.4810 ha        1 Z23      0.157500
     37 H36        -4.4810   -0.2820    0.6530 ha        1 Z23      0.170000
     38 H39        -5.3680   -4.3900    0.8920 hn        1 Z23      0.330075
     39 H46        -6.9830   -4.0490    1.3470 hn        1 Z23      0.330075
     40 H40         6.9910    1.1040    2.7260 hn        1 Z23      0.330075
     41 H48         8.2590   -0.0160    2.4630 hn        1 Z23      0.330075
     42 H41         7.6310   -2.1710    1.2840 hn        1 Z23      0.330075
     43 H47         5.9730   -2.3800    0.9140 hn        1 Z23      0.330075
     44 H42         0.2260    4.7220   -2.4290 hc        1 Z23      0.082367
     45 H43         1.0890    3.7790   -3.7190 hc        1 Z23      0.082367
     46 H44        -0.7300    3.8790   -3.7200 hc        1 Z23      0.082367
     47 H49        -7.8650   -1.7530    0.7320 hn        1 Z23      0.330075
     48 H50        -6.8090   -0.7470   -0.1650 hn        1 Z23      0.330075
@<TRIPOS>BOND
     1    1    2 ar  
     2    1    6 ar  
     3    1   30 1   
     4    2    3 ar  
     5    2   23 1   
     6    3    4 ar  
     7    3   31 1   
     8    4    5 ar  
     9    4    7 1   
    10    5    6 ar  
    11    5   32 1   
    12    6   33 1   
    13    7    8 1   
    14    8    9 ar  
    15    8   11 ar  
    16    9   10 ar  
    17   10   13 ar  
    18   10   14 1   
    19   11   12 ar  
    20   11   26 1   
    21   12   13 ar  
    22   12   27 1   
    23   13   28 1   
    24   14   15 1   
    25   15   16 ar  
    26   15   20 ar  
    27   16   17 ar  
    28   16   34 1   
    29   17   18 ar  
    30   17   35 1   
    31   18   19 ar  
    32   18   36 1   
    33   19   20 ar  
    34   19   21 1   
    35   20   37 1   
    36   21   22 2   
    37   21   29 1   
    38   22   38 1   
    39   22   39 1   
    40   23   24 2   
    41   23   25 1   
    42   24   40 1   
    43   24   41 1   
    44   25   42 1   
    45   25   43 1   
    46   27   44 1   
    47   27   45 1   
    48   27   46 1   
    49   29   47 1   
    50   29   48 1   
@<TRIPOS>SUBSTRUCTURE
     1 Z23         1 TEMP              0 ****  ****    0 ROOT
