@<TRIPOS>MOLECULE
Z25
   27    28     1     0     0
SMALL
bcc


@<TRIPOS>ATOM
      1 O3          0.3380    1.2710   -0.1430 o         1 Z25     -0.827800
      2 C9          1.1320    0.3070    0.0510 c         1 Z25      0.915600
      3 O4          1.3340   -0.2660    1.1530 o         1 Z25     -0.827800
      4 C8          1.9480   -0.1950   -1.1690 c3        1 Z25     -0.216400
      5 C7          1.1120   -0.0600   -2.4140 c3        1 Z25     -0.116700
      6 C5          1.8420   -0.0950   -3.7180 cc        1 Z25      0.391300
      7 C6          0.9720   -0.2620   -4.9370 c         1 Z25      0.467000
      8 O2         -0.2380   -0.4740   -4.8770 o         1 Z25     -0.462100
      9 C3          1.7120   -0.1600   -6.2050 cc        1 Z25     -0.380400
     10 C4          0.9980   -0.2220   -7.4620 c         1 Z25      0.746700
     11 O1         -0.2010   -0.3510   -7.7000 o         1 Z25     -0.510500
     12 N4          3.1530    0.0380   -3.7900 nd        1 Z25     -0.397400
     13 N3          3.7730    0.0580   -4.9730 na        1 Z25     -0.350100
     14 C2          3.1150   -0.0010   -6.1810 cd        1 Z25      0.386600
     15 N2          3.8700    0.0960   -7.3770 nd        1 Z25     -0.635300
     16 C1          3.1860    0.0360   -8.5080 cc        1 Z25      0.576800
     17 N5          4.0260    0.1480   -9.7610 nz        1 Z25     -0.816600
     18 N1          1.8250   -0.1130   -8.6570 ns        1 Z25     -0.510400
     19 H2          2.8680    0.4380   -1.2140 hc        1 Z25      0.037200
     20 H3          2.2570   -1.2550   -1.0060 hc        1 Z25      0.037200
     21 H4          0.3250   -0.8640   -2.4440 hc        1 Z25      0.109200
     22 H5          0.5610    0.9310   -2.3590 hc        1 Z25      0.109200
     23 H7          5.0190    0.2510   -9.5030 hn        1 Z25      0.478133
     24 H8          3.9100   -0.7000  -10.3260 hn        1 Z25      0.478133
     25 H9          1.3720   -0.1500   -9.5450 hn        1 Z25      0.342500
     26 H6          4.7690    0.1800   -4.9120 hn        1 Z25      0.498800
     27 H53         3.7300    0.9710  -10.2960 hn        1 Z25      0.478133
@<TRIPOS>BOND
     1    1    2 1   
     2    2    3 1   
     3    2    4 1   
     4    4    5 1   
     5    4   19 1   
     6    4   20 1   
     7    5    6 1   
     8    5   21 1   
     9    5   22 1   
    10    6    7 1   
    11    6   12 2   
    12    7    8 2   
    13    7    9 1   
    14    9   10 1   
    15    9   14 2   
    16   10   11 2   
    17   10   18 1   
    18   12   13 1   
    19   13   14 1   
    20   13   26 1   
    21   14   15 1   
    22   15   16 2   
    23   16   17 1   
    24   16   18 1   
    25   17   23 1   
    26   17   24 1   
    27   17   27 1   
    28   18   25 1   
@<TRIPOS>SUBSTRUCTURE
     1 Z25         1 TEMP              0 ****  ****    0 ROOT
