@<TRIPOS>MOLECULE
Z25
   26    19     1     0     0
SMALL
bcc


@<TRIPOS>ATOM
      1 O3         -0.4420    2.5650    5.1340 o         1 Z25     -0.580500
      2 C9         -1.2850    1.8200    4.5680 c1        1 Z25      0.332000
      3 O4         -2.1880    1.2620    5.2460 o         1 Z25     -0.580500
      4 C8         -1.2060    1.5860    3.0760 c2        1 Z25     -0.226000
      5 C7         -0.4120    0.3270    2.8040 c3        1 Z25     -0.111000
      6 C5         -0.4450    0.0200    1.3230 c1        1 Z25     -0.089000
      7 C6          0.8150   -0.1010    0.5670 c1        1 Z25      0.337500
      8 O2          1.8810   -0.0090    1.1440 o         1 Z25     -0.298500
      9 C3          0.7810   -0.4240   -0.8620 c1        1 Z25     -0.383000
     10 C4          2.0480   -0.5490   -1.6360 c1        1 Z25      0.337500
     11 O1          3.1150   -0.3470   -1.0920 o         1 Z25     -0.298500
     12 N4         -1.7110   -0.1790    0.6530 n1        1 Z25     -0.032000
     13 N3         -1.7470   -0.4970   -0.7580 n2        1 Z25     -0.195000
     14 C2         -0.4880   -0.6210   -1.5230 c1        1 Z25      0.203000
     15 N2         -0.5240   -0.9380   -2.9280 n1        1 Z25     -0.310000
     16 C1          0.7200   -1.0600   -3.6840 c1        1 Z25      0.256000
     17 N5          0.6800   -1.3710   -5.0670 n2        1 Z25     -0.335000
     18 N1          2.0040   -0.8610   -3.0190 n2        1 Z25     -0.356000
     19 H2         -0.7650    2.3480    2.6490 ha        1 Z25      0.069500
     20 H3         -2.1090    1.4870    2.7130 ha        1 Z25      0.069500
     21 H4         -0.8040   -0.4190    3.3000 hc        1 Z25      0.127000
     22 H5          0.5140    0.4570    3.0890 hc        1 Z25      0.127000
     23 H7          1.4580   -1.4450   -5.5420 hn        1 Z25      0.210000
     24 H8         -0.1240   -1.4890   -5.4860 hn        1 Z25      0.210000
     25 H9          2.7800   -0.9380   -3.4930 hn        1 Z25      0.241000
     26 H6         -2.5470   -0.6220   -1.1770 hn        1 Z25      0.277000
@<TRIPOS>BOND
     1    1    2 1   
     2    2    3 1   
     3    4    5 1   
     4    4   19 1   
     5    4   20 1   
     6    5    6 1   
     7    5   21 1   
     8    5   22 1   
     9    6   12 1   
    10    7    8 1   
    11    9   14 1   
    12   10   11 1   
    13   13   14 1   
    14   13   26 1   
    15   15   16 1   
    16   16   18 1   
    17   17   23 1   
    18   17   24 1   
    19   18   25 1   
@<TRIPOS>SUBSTRUCTURE
     1 Z25         1 TEMP              0 ****  ****    0 ROOT
