@<TRIPOS>MOLECULE
Z25
   26    27     1     0     0
SMALL
bcc


@<TRIPOS>ATOM
      1 O3          5.0420   -0.7390   -1.0640 o         1 Z25     -0.846300
      2 C9          4.8880    0.0730   -0.1070 c         1 Z25      0.909600
      3 O4          5.8130    0.4380    0.6730 o         1 Z25     -0.846300
      4 C8          3.4900    0.6890    0.1080 c3        1 Z25     -0.199400
      5 C7          2.4210   -0.3630   -0.0410 c3        1 Z25     -0.097700
      6 C5          1.0060    0.1320   -0.0210 cc        1 Z25      0.337300
      7 C6         -0.0510   -0.9320    0.1270 c         1 Z25      0.479000
      8 O2          0.2370   -2.1230    0.2770 o         1 Z25     -0.515100
      9 C3         -1.4150   -0.4140    0.0820 cc        1 Z25     -0.422400
     10 C4         -2.5560   -1.3030    0.1820 c         1 Z25      0.743700
     11 O1         -2.5720   -2.5360    0.3080 o         1 Z25     -0.596500
     12 N4          0.7200    1.4130   -0.1400 nd        1 Z25     -0.402400
     13 N3         -0.5480    1.8240   -0.1390 na        1 Z25     -0.397100
     14 C2         -1.6430    0.9750   -0.0530 cd        1 Z25      0.426600
     15 N2         -2.9200    1.5420   -0.1130 nd        1 Z25     -0.739300
     16 C1         -3.9700    0.7030    0.0060 cc        1 Z25      0.703800
     17 N5         -5.2710    1.2590    0.0710 nh        1 Z25     -0.896800
     18 N1         -3.8430   -0.6820    0.1210 n         1 Z25     -0.516400
     19 H2          3.4420    1.1590    1.1210 hc        1 Z25      0.030200
     20 H3          3.3660    1.4950   -0.6580 hc        1 Z25      0.030200
     21 H4          2.5820   -0.9080   -1.0160 hc        1 Z25      0.086700
     22 H5          2.5190   -1.1270    0.7780 hc        1 Z25      0.086700
     23 H7         -5.3160    2.2340   -0.1330 hn        1 Z25      0.415300
     24 H8         -5.9840    0.7210   -0.3700 hn        1 Z25      0.415300
     25 H9         -4.6430   -1.2620    0.2490 hn        1 Z25      0.327500
     26 H6         -0.6620    2.8130   -0.2450 hn        1 Z25      0.482800
@<TRIPOS>BOND
     1    1    2 1   
     2    2    3 1   
     3    2    4 1   
     4    4    5 1   
     5    4   19 1   
     6    4   20 1   
     7    5    6 1   
     8    5   21 1   
     9    5   22 1   
    10    6    7 1   
    11    6   12 2   
    12    7    8 2   
    13    7    9 1   
    14    9   10 1   
    15    9   14 2   
    16   10   11 2   
    17   10   18 1   
    18   12   13 1   
    19   13   14 1   
    20   13   26 1   
    21   14   15 1   
    22   15   16 2   
    23   16   17 1   
    24   16   18 1   
    25   17   23 1   
    26   17   24 1   
    27   18   25 1   
@<TRIPOS>SUBSTRUCTURE
     1 Z25         1 TEMP              0 ****  ****    0 ROOT
