@<TRIPOS>MOLECULE
Z25
   27    28     1     0     0
SMALL
bcc


@<TRIPOS>ATOM
      1 O3          0.3600    1.2760   -0.1340 o         1 Z25     -0.827800
      2 C9          1.1260    0.2880    0.0520 c         1 Z25      0.915600
      3 O4          1.3080   -0.3020    1.1470 o         1 Z25     -0.827800
      4 C8          1.9310   -0.2240   -1.1720 c3        1 Z25     -0.216400
      5 C7          1.1030   -0.0510   -2.4180 c3        1 Z25     -0.117700
      6 C5          1.8350   -0.0930   -3.7200 cc        1 Z25      0.391300
      7 C6          0.9660   -0.2330   -4.9420 c         1 Z25      0.467000
      8 O2         -0.2490   -0.4180   -4.8870 o         1 Z25     -0.462100
      9 C3          1.7120   -0.1400   -6.2070 cc        1 Z25     -0.380400
     10 C4          1.0000   -0.1790   -7.4670 c         1 Z25      0.746700
     11 O1         -0.2000   -0.2810   -7.7090 o         1 Z25     -0.510500
     12 N4          3.1490    0.0120   -3.7870 nd        1 Z25     -0.397400
     13 N3          3.7740    0.0260   -4.9680 na        1 Z25     -0.350100
     14 C2          3.1180   -0.0120   -6.1790 cd        1 Z25      0.386600
     15 N2          3.8790    0.0760   -7.3720 nd        1 Z25     -0.635300
     16 C1          3.1970    0.0370   -8.5050 cc        1 Z25      0.576800
     17 N5          4.0430    0.1370   -9.7540 n4        1 Z25     -0.816600
     18 N1          1.8330   -0.0810   -8.6590 n         1 Z25     -0.510400
     19 H2          2.8690    0.3840   -1.2070 hc        1 Z25      0.037200
     20 H3          2.2090   -1.2940   -1.0200 hc        1 Z25      0.037200
     21 H4          0.2940   -0.8320   -2.4580 hc        1 Z25      0.109200
     22 H5          0.5810    0.9550   -2.3530 hc        1 Z25      0.109200
     23 H7          5.0370    0.2170   -9.4930 hn        1 Z25      0.478133
     24 H8          3.9100   -0.7050  -10.3240 hn        1 Z25      0.478133
     25 H9          1.3830   -0.1030   -9.5490 hn        1 Z25      0.342500
     26 H6          4.7710    0.1260   -4.9030 hn        1 Z25      0.498800
     27 H53         3.7660    0.9690  -10.2860 hn        1 Z25      0.478133
@<TRIPOS>BOND
     1    1    2 1   
     2    2    3 1   
     3    2    4 1   
     4    4    5 1   
     5    4   19 1   
     6    4   20 1   
     7    5    6 1   
     8    5   21 1   
     9    5   22 1   
    10    6    7 1   
    11    6   12 2   
    12    7    8 2   
    13    7    9 1   
    14    9   10 1   
    15    9   14 2   
    16   10   11 2   
    17   10   18 1   
    18   12   13 1   
    19   13   14 1   
    20   13   26 1   
    21   14   15 1   
    22   15   16 2   
    23   16   17 1   
    24   16   18 1   
    25   17   23 1   
    26   17   24 1   
    27   17   27 1   
    28   18   25 1   
@<TRIPOS>SUBSTRUCTURE
     1 Z25         1 TEMP              0 ****  ****    0 ROOT
