@<TRIPOS>MOLECULE
Z27
   43    44     1     0     0
SMALL
bcc


@<TRIPOS>ATOM
      1 S1          2.8330    0.9170    1.7830 ss        1 Z27      0.787000
      2 C2          3.0400   -0.0300    0.4050 c2        1 Z27     -0.788000
      3 N3          2.0110   -0.8720    0.1510 n2        1 Z27     -0.038000
      4 C4          1.0260   -0.7210    1.1030 c2        1 Z27     -0.030000
      5 C5          1.3450    0.2510    2.0890 c2        1 Z27     -0.305000
      6 C6         -0.1820   -1.5280    1.0390 c2        1 Z27     -0.103000
      7 C7         -1.3440   -1.1570    1.5920 c2        1 Z27     -0.130000
      8 C8         -0.0750    0.9510    4.1350 c1        1 Z27     -0.146000
      9 C9          0.5740    0.6230    3.1810 c1        1 Z27     -0.129000
     10 Cl10       -2.7350   -2.1130    1.5080 cl        1 Z27     -0.015000
     11 S11         4.3320    0.0490   -0.6850 s4        1 Z27      1.447000
     12 C12         5.1710   -1.4750   -0.6900 cv        1 Z27     -0.693000
     13 C13         8.6090    1.8010    1.9970 c2        1 Z27      0.111000
     14 C14         7.4490    1.6410    1.4140 c1        1 Z27     -0.382000
     15 C15         6.2400    1.4740    0.9450 c2        1 Z27      0.232000
     16 Cl16        5.0660    2.7200    1.2590 cl        1 Z27     -0.077000
     17 C17         5.7250    0.3890    0.2210 cv        1 Z27     -0.817000
     18 C18         6.2490   -0.9320   -0.0220 cv        1 Z27      0.113000
     19 S19         9.8520    3.2360    0.0440 s6        1 Z27      2.830000
     20 O20         8.7890    4.1220   -0.1980 o         1 Z27     -0.914500
     21 O21        11.1360    3.8100   -0.0090 o         1 Z27     -0.914500
     22 C24         9.7300    1.9900   -1.1450 c2        1 Z27     -0.710000
     23 C25         8.9340    2.1960   -2.2160 c2        1 Z27     -0.011000
     24 C26         8.7450    1.2430   -3.2930 c2        1 Z27     -0.085000
     25 C27         8.2510    0.0110   -3.1180 c2        1 Z27     -0.208000
     26 C28         8.0490   -0.9470   -4.2870 c3        1 Z27      0.457000
     27 F29         8.8740   -0.7380   -5.3640 f         1 Z27     -0.160333
     28 F30         8.2260   -2.2670   -3.9600 f         1 Z27     -0.160333
     29 F31         6.7800   -0.8950   -4.8170 f         1 Z27     -0.160333
     30 C32        10.0900   -0.4090   -1.5710 c1        1 Z27      0.235000
     31 C33        10.4670    0.7480   -1.0120 c2        1 Z27     -0.321000
     32 Cl34       11.9200    0.7340   -0.1170 cl        1 Z27      0.038000
     33 H6         -0.0900   -2.4800    0.4830 ha        1 Z27      0.163000
     34 H8         -1.5020   -0.2180    2.1420 h4        1 Z27      0.159000
     35 H9         -0.6480    1.2410    4.9800 ha        1 Z27      0.236000
     36 H12         4.9500   -2.4470   -1.0930 h4        1 Z27      0.198000
     37 H14         8.7840    1.4030    3.0200 h4        1 Z27      0.148000
     38 H18         7.2330   -1.3320    0.2180 ha        1 Z27      0.168000
     39 HN22       10.5460    2.3280    2.0090 hn        1 Z27      0.256000
     40 H25         8.3760    3.1510   -2.3270 ha        1 Z27      0.187000
     41 H26         9.0400    1.6050   -4.2990 ha        1 Z27      0.169000
     42 H32         7.8660   -0.3860   -2.1600 ha        1 Z27      0.184000
     43 N22         9.7270    2.4360    1.4490 n7        1 Z27     -0.820000
@<TRIPOS>BOND
     1    1    2 1   
     2    1    5 1   
     3    2    3 1   
     4    2   11 1   
     5    3    4 1   
     6    4    5 1   
     7    4    6 1   
     8    5    9 1   
     9    6    7 1   
    10    6   33 1   
    11    7   10 1   
    12    7   34 1   
    13    8    9 1   
    14    8   35 1   
    15   11   12 1   
    16   11   17 1   
    17   12   18 1   
    18   12   36 1   
    19   13   14 1   
    20   13   37 1   
    21   13   43 1   
    22   14   15 1   
    23   15   16 1   
    24   15   17 1   
    25   17   18 1   
    26   18   38 1   
    27   19   20 1   
    28   19   21 1   
    29   19   22 1   
    30   19   43 1   
    31   22   23 1   
    32   22   31 1   
    33   23   24 1   
    34   23   40 1   
    35   24   25 1   
    36   24   41 1   
    37   25   26 1   
    38   25   42 1   
    39   26   27 1   
    40   26   28 1   
    41   26   29 1   
    42   30   31 1   
    43   31   32 1   
    44   39   43 1   
@<TRIPOS>SUBSTRUCTURE
     1 Z27         1 TEMP              0 ****  ****    0 ROOT
