@<TRIPOS>MOLECULE
Z27
   43    46     1     0     0
SMALL
bcc


@<TRIPOS>ATOM
      1 S1         -5.1920    2.5270   -1.0240 ss        1 Z27      0.000900
      2 C2         -3.8720    1.3960   -0.9110 cc        1 Z27      0.322100
      3 N3         -4.1910    0.2050   -0.4210 nd        1 Z27     -0.527100
      4 C4         -5.5580    0.1680   -0.1120 ca        1 Z27      0.103400
      5 C5         -6.2640    1.3850   -0.3940 ca        1 Z27     -0.096100
      6 C6         -6.2460   -0.9360    0.4280 ca        1 Z27     -0.074000
      7 C7         -7.6070   -0.8080    0.6730 ca        1 Z27      0.017400
      8 C8         -8.3020    0.3860    0.3950 ca        1 Z27     -0.119000
      9 C9         -7.6330    1.4770   -0.1360 ca        1 Z27     -0.080000
     10 CL10       -8.4660   -2.1240    1.3240 cl        1 Z27     -0.088400
     11 S11        -2.3670    1.9200   -1.4340 ss        1 Z27     -0.016100
     12 C12         0.3910   -0.8250   -2.1190 ca        1 Z27     -0.187000
     13 C13         0.8200   -1.2340   -0.8330 ca        1 Z27      0.212600
     14 C14         0.1830   -0.6830    0.3000 ca        1 Z27     -0.198000
     15 C15        -0.8270    0.2690    0.1400 ca        1 Z27      0.112400
     16 CL16       -1.5380    0.9140    1.5370 cl        1 Z27     -0.053400
     17 C17        -1.2450    0.6820   -1.1330 ca        1 Z27     -0.084100
     18 C18        -0.6310    0.1030   -2.2510 ca        1 Z27     -0.037000
     19 S19         2.8420   -2.4740    0.5450 sy        1 Z27      1.508200
     20 O20         2.1750   -2.3690    1.7770 o         1 Z27     -0.631800
     21 O21         3.5090   -3.6820    0.2890 o         1 Z27     -0.631800
     22 C24         3.9600   -1.1770    0.4610 ca        1 Z27     -0.336500
     23 C25         4.0860   -0.3660    1.5970 ca        1 Z27     -0.025000
     24 C26         4.9990    0.6850    1.6470 ca        1 Z27     -0.106000
     25 C27         5.8090    0.9390    0.5400 ca        1 Z27     -0.099300
     26 C28         6.8290    2.0770    0.5880 c3        1 Z27      0.683200
     27 F29         8.0620    1.6960    1.0570 f         1 Z27     -0.228633
     28 F30         7.0900    2.6550   -0.6290 f         1 Z27     -0.228633
     29 F31         6.4660    3.1270    1.3950 f         1 Z27     -0.228633
     30 C32         5.7060    0.1570   -0.6090 ca        1 Z27     -0.105000
     31 C33         4.7800   -0.8920   -0.6400 ca        1 Z27      0.120400
     32 CL34        4.6780   -1.8170   -2.0610 cl        1 Z27     -0.061400
     33 H6         -5.7070   -1.8710    0.6470 ha        1 Z27      0.167000
     34 H8         -9.3820    0.4490    0.6030 ha        1 Z27      0.151000
     35 H9         -8.1770    2.4090   -0.3510 ha        1 Z27      0.145000
     36 H12         0.8550   -1.2480   -3.0230 ha        1 Z27      0.143000
     37 H14         0.4600   -1.0050    1.3210 ha        1 Z27      0.186000
     38 H18        -0.9670    0.3980   -3.2600 ha        1 Z27      0.154000
     39 HN22        1.9930   -2.6940   -1.5580 hn        1 Z27      0.463800
     40 H25         3.4450   -0.5660    2.4790 ha        1 Z27      0.182000
     41 H26         5.0800    1.3120    2.5500 ha        1 Z27      0.167000
     42 H32         6.3460    0.3680   -1.4820 ha        1 Z27      0.174000
     43 N22         1.8480   -2.1790   -0.7130 nh        1 Z27     -0.770500
@<TRIPOS>BOND
     1    1    2 1   
     2    1    5 1   
     3    2    3 2   
     4    2   11 1   
     5    3    4 1   
     6    4    5 ar  
     7    4    6 ar  
     8    5    9 ar  
     9    6    7 ar  
    10    6   33 1   
    11    7    8 ar  
    12    7   10 1   
    13    8    9 ar  
    14    8   34 1   
    15    9   35 1   
    16   11   17 1   
    17   12   13 ar  
    18   12   18 ar  
    19   12   36 1   
    20   13   14 ar  
    21   13   43 1   
    22   14   15 ar  
    23   14   37 1   
    24   15   16 1   
    25   15   17 ar  
    26   17   18 ar  
    27   18   38 1   
    28   19   20 2   
    29   19   21 2   
    30   19   22 1   
    31   19   43 1   
    32   22   23 ar  
    33   22   31 ar  
    34   23   24 ar  
    35   23   40 1   
    36   24   25 ar  
    37   24   41 1   
    38   25   26 1   
    39   25   30 ar  
    40   26   27 1   
    41   26   28 1   
    42   26   29 1   
    43   30   31 ar  
    44   30   42 1   
    45   31   32 1   
    46   39   43 1   
@<TRIPOS>SUBSTRUCTURE
     1 Z27         1 TEMP              0 ****  ****    0 ROOT
