@<TRIPOS>MOLECULE
Z27
   44    45     1     0     0
SMALL
bcc


@<TRIPOS>ATOM
      1 S1         -0.0060    0.5410    0.7550 ss        1 Z27      0.931000
      2 C2          1.5310   -0.1340    0.7340 c2        1 Z27     -0.783000
      3 N3          2.0230   -0.4820    1.9660 n2        1 Z27     -0.051000
      4 C4          1.0880   -0.1800    2.9140 c2        1 Z27      0.022000
      5 C5         -0.1160    0.3980    2.3780 c2        1 Z27     -0.501000
      6 C6          1.1990   -0.3850    4.3380 c2        1 Z27     -0.139000
      7 C7          0.1610   -0.0280    5.1350 c2        1 Z27     -0.051000
      8 C8         -1.1030    0.5660    4.6180 c3        1 Z27     -0.206000
      9 C9         -1.2180    0.7710    3.1840 c1        1 Z27      0.006000
     10 CL10        0.2540   -0.2490    6.8090 cl        1 Z27      0.039000
     11 S11         2.3670   -0.4910   -0.6590 ss        1 Z27      1.001000
     12 C12         4.5090   -1.6750   -2.3420 c2        1 Z27     -0.097000
     13 C13         7.0720    0.2200    1.1690 c2        1 Z27      0.138000
     14 C14         5.8510    0.4700    0.7420 c1        1 Z27     -0.197000
     15 C15         4.6050    0.7110    0.4180 c2        1 Z27     -0.008000
     16 CL16        3.7750    2.0220    1.1250 cl        1 Z27      0.033000
     17 C17         3.8860   -0.0700   -0.5760 c2        1 Z27     -0.207000
     18 C18         4.6790   -0.5010   -1.7140 c2        1 Z27     -0.207000
     19 S19         8.3990    1.5970   -0.7560 s6        1 Z27      2.777000
     20 O20         7.4180    1.1710   -1.6720 o         1 Z27     -0.906000
     21 O21         8.4570    2.9610   -0.4750 o         1 Z27     -0.906000
     22 C24         9.9680    1.0580   -1.3530 c3        1 Z27     -0.626000
     23 C25        10.3380    1.9650   -2.4800 c2        1 Z27     -0.143000
     24 C26        10.5470    1.5500   -3.6980 c1        1 Z27     -0.046000
     25 C27        10.7330    1.1680   -4.9250 c2        1 Z27     -0.168000
     26 C28        12.0880    0.7170   -5.4670 c3        1 Z27      0.466000
     27 F29        13.1150    1.5990   -5.2550 f         1 Z27     -0.153333
     28 F30        12.5300   -0.4720   -4.9410 f         1 Z27     -0.153333
     29 F31        12.0730    0.5120   -6.8240 f         1 Z27     -0.153333
     30 C32        11.9160    2.0650   -0.1670 c1        1 Z27      0.375000
     31 C33        11.0430    1.0620   -0.3290 c2        1 Z27     -0.445000
     32 CL34       11.2650   -0.3550    0.5940 cl        1 Z27      0.044000
     33 H6          2.1270   -0.8270    4.7340 ha        1 Z27      0.177000
     34 H8         -1.2890    1.5740    5.1080 hc        1 Z27      0.196000
     35 H9         -1.9890   -0.0730    4.9270 hc        1 Z27      0.196000
     36 H12         3.7900   -2.4430   -2.0180 ha        1 Z27      0.147000
     37 H14         7.1980   -0.4570    2.0480 h4        1 Z27      0.191000
     38 H18         5.4810    0.2070   -2.0260 ha        1 Z27      0.228000
     39 HN22        5.1180   -1.9420   -3.2210 ha        1 Z27      0.147000
     40 H25         9.8680    0.0050   -1.7560 h1        1 Z27      0.183000
     41 H26        10.4580    3.0370   -2.2190 ha        1 Z27      0.188000
     42 H32         9.9200    1.1420   -5.6730 ha        1 Z27      0.192000
     43 H222        9.0440    0.5130    1.1990 hn        1 Z27      0.273000
     44 N22         8.2460    0.7140    0.6300 n3        1 Z27     -0.803000
@<TRIPOS>BOND
     1    1    2 1   
     2    1    5 1   
     3    2    3 1   
     4    2   11 1   
     5    3    4 1   
     6    4    5 1   
     7    4    6 1   
     8    5    9 1   
     9    6    7 1   
    10    6   33 1   
    11    7    8 1   
    12    7   10 1   
    13    8    9 1   
    14    8   34 1   
    15    8   35 1   
    16   11   17 1   
    17   12   18 1   
    18   12   36 1   
    19   12   39 1   
    20   13   14 1   
    21   13   37 1   
    22   13   44 1   
    23   14   15 1   
    24   15   16 1   
    25   15   17 1   
    26   17   18 1   
    27   18   38 1   
    28   19   20 1   
    29   19   21 1   
    30   19   22 1   
    31   19   44 1   
    32   22   23 1   
    33   22   31 1   
    34   22   40 1   
    35   23   24 1   
    36   23   41 1   
    37   24   25 1   
    38   25   26 1   
    39   25   42 1   
    40   26   27 1   
    41   26   28 1   
    42   26   29 1   
    43   30   31 1   
    44   31   32 1   
    45   43   44 1   
@<TRIPOS>SUBSTRUCTURE
     1 Z27         1 TEMP              0 ****  ****    0 ROOT
