@<TRIPOS>MOLECULE
Z2M
   28    31     1     0     0
SMALL
bcc


@<TRIPOS>ATOM
      1 C          -0.0730    0.3820    0.1130 cc        1 Z2M      0.243600
      2 N           5.3160   -2.2890   -0.1820 nc        1 Z2M     -0.510100
      3 O           1.3200    0.3970    0.1180 os        1 Z2M     -0.348800
      4 C1          1.7150    0.0440    1.4190 cc        1 Z2M      0.278200
      5 N1          6.1340   -1.6680    0.6680 na        1 Z2M     -0.113800
      6 C2          3.1330    0.0190    1.7100 ca        1 Z2M     -0.015500
      7 N2          5.9350    0.0810    2.4460 nb        1 Z2M     -0.659000
      8 C3          4.0480   -0.8110    1.0490 ca        1 Z2M     -0.285200
      9 C4          4.0510   -1.8280    0.0010 cd        1 Z2M      0.401900
     10 C5          5.4470   -0.7340    1.4650 ca        1 Z2M      0.416800
     11 C6          5.0090    0.8400    3.0400 ca        1 Z2M      0.425200
     12 C7          3.6270    0.8470    2.7190 ca        1 Z2M     -0.262300
     13 C8          2.8800   -2.2960   -0.7350 cx        1 Z2M     -0.148000
     14 C9          3.0070   -2.8010   -2.1530 cx        1 Z2M     -0.115900
     15 C10         2.7100   -3.7650   -1.0480 cx        1 Z2M     -0.115900
     16 C11         0.5960   -0.1800    2.2040 cd        1 Z2M     -0.232300
     17 C12        -0.5560    0.0340    1.3580 cd        1 Z2M     -0.266300
     18 H          -0.5170    0.6440   -0.8430 h4        1 Z2M      0.056100
     19 H6          5.3890    1.5050    3.8380 h4        1 Z2M      0.028100
     20 H7          2.9520    1.5170    3.2690 ha        1 Z2M      0.152000
     21 H8          1.9720   -1.7120   -0.4740 hc        1 Z2M      0.100700
     22 H9          2.2100   -2.5380   -2.8710 hc        1 Z2M      0.076200
     23 H9A         4.0030   -2.8210   -2.6310 hc        1 Z2M      0.076200
     24 H10         1.6980   -4.2000   -0.9670 hc        1 Z2M      0.076200
     25 H10A        3.4940   -4.4750   -0.7300 hc        1 Z2M      0.076200
     26 H11         0.5730   -0.4700    3.2510 ha        1 Z2M      0.166000
     27 H12        -1.5930   -0.0650    1.6650 ha        1 Z2M      0.165000
     28 HN1         7.1120   -1.8400    0.6580 hn        1 Z2M      0.336700
@<TRIPOS>BOND
     1    1    3 1   
     2    1   17 2   
     3    1   18 1   
     4    2    5 1   
     5    2    9 2   
     6    3    4 1   
     7    4    6 1   
     8    4   16 2   
     9    5   10 1   
    10    5   28 1   
    11    6    8 ar  
    12    6   12 ar  
    13    7   10 ar  
    14    7   11 ar  
    15    8    9 1   
    16    8   10 ar  
    17    9   13 1   
    18   11   12 ar  
    19   11   19 1   
    20   12   20 1   
    21   13   14 1   
    22   13   15 1   
    23   13   21 1   
    24   14   15 1   
    25   14   22 1   
    26   14   23 1   
    27   15   24 1   
    28   15   25 1   
    29   16   17 1   
    30   16   26 1   
    31   17   27 1   
@<TRIPOS>SUBSTRUCTURE
     1 Z2M         1 TEMP              0 ****  ****    0 ROOT
