@<TRIPOS>MOLECULE
Z2M
   28    31     1     0     0
SMALL
bcc


@<TRIPOS>ATOM
      1 C           3.4600    0.6720    0.6220 cc        1 Z2M      0.243600
      2 N          -1.9800   -1.8700    0.1810 nc        1 Z2M     -0.510100
      3 O           2.1080    0.5740    0.9410 os        1 Z2M     -0.348800
      4 C1          1.4080    1.1990   -0.1030 cc        1 Z2M      0.278200
      5 N1         -2.8960   -0.9000    0.2150 na        1 Z2M     -0.113800
      6 C2         -0.0350    1.2690   -0.0000 ca        1 Z2M     -0.015500
      7 N2         -2.9090    1.6010    0.1700 nb        1 Z2M     -0.659000
      8 C3         -0.8650    0.1440    0.0810 ca        1 Z2M     -0.285200
      9 C4         -0.7450   -1.3120    0.0910 cd        1 Z2M      0.401900
     10 C5         -2.3050    0.3760    0.1650 ca        1 Z2M      0.416800
     11 C6         -2.0600    2.6300    0.0830 ca        1 Z2M      0.425200
     12 C7         -0.6490    2.5230   -0.0040 ca        1 Z2M     -0.262300
     13 C8          0.5040   -2.0640    0.0050 cx        1 Z2M     -0.148000
     14 C9          0.6350   -3.4220    0.6540 cx        1 Z2M     -0.115900
     15 C10         0.5870   -3.3150   -0.8380 cx        1 Z2M     -0.115900
     16 C11         2.3020    1.6770   -1.0460 cd        1 Z2M     -0.232300
     17 C12         3.6250    1.3330   -0.5790 cd        1 Z2M     -0.266300
     18 H           4.1250    0.2270    1.3570 h4        1 Z2M      0.056100
     19 H6         -2.5340    3.6300    0.0840 h4        1 Z2M      0.028100
     20 H7         -0.0440    3.4380   -0.0670 ha        1 Z2M      0.152000
     21 H8          1.3880   -1.3930    0.0280 hc        1 Z2M      0.100700
     22 H9          1.5920   -3.6700    1.1480 hc        1 Z2M      0.076200
     23 H9A        -0.2300   -3.8490    1.1920 hc        1 Z2M      0.076200
     24 H10        -0.3160   -3.6640   -1.3710 hc        1 Z2M      0.076200
     25 H10A        1.5070   -3.4880   -1.4240 hc        1 Z2M      0.076200
     26 H11         2.0690    2.2030   -1.9680 ha        1 Z2M      0.166000
     27 H12         4.5560    1.5600   -1.0900 ha        1 Z2M      0.165000
     28 HN1        -3.8600   -1.1090    0.3230 hn        1 Z2M      0.336700
@<TRIPOS>BOND
     1    1    3 1   
     2    1   17 2   
     3    1   18 1   
     4    2    5 1   
     5    2    9 2   
     6    3    4 1   
     7    4    6 1   
     8    4   16 2   
     9    5   10 1   
    10    5   28 1   
    11    6    8 ar  
    12    6   12 ar  
    13    7   10 ar  
    14    7   11 ar  
    15    8    9 1   
    16    8   10 ar  
    17    9   13 1   
    18   11   12 ar  
    19   11   19 1   
    20   12   20 1   
    21   13   14 1   
    22   13   15 1   
    23   13   21 1   
    24   14   15 1   
    25   14   22 1   
    26   14   23 1   
    27   15   24 1   
    28   15   25 1   
    29   16   17 1   
    30   16   26 1   
    31   17   27 1   
@<TRIPOS>SUBSTRUCTURE
     1 Z2M         1 TEMP              0 ****  ****    0 ROOT
