@<TRIPOS>MOLECULE
Z2T
   38    39     1     0     0
SMALL
bcc


@<TRIPOS>ATOM
      1 C1          0.0350   -0.1750   -0.0830 ca        1 Z2T      0.096100
      2 O1         -0.5660   -0.2620   -1.3190 oh        1 Z2T     -0.503100
      3 C2          1.4380    0.0030   -0.0820 ca        1 Z2T     -0.085300
      4 C3          2.1100    0.1300    1.1280 ca        1 Z2T     -0.090000
      5 C4          1.3930    0.0740    2.3390 ca        1 Z2T      0.103100
      6 O4          2.1700    0.2150    3.4730 os        1 Z2T     -0.319900
      7 C5          0.0090   -0.1070    2.3480 ca        1 Z2T     -0.159000
      8 C6         -0.6670   -0.2310    1.1300 ca        1 Z2T     -0.032600
      9 Cl6        -2.3540   -0.4560    1.1500 cl        1 Z2T     -0.085400
     10 C7          1.4840    0.1380    4.7180 c3        1 Z2T      0.110700
     11 C1'         2.1840    0.0370   -1.3840 c3        1 Z2T      0.167400
     12 C2'         2.3470    1.4800   -1.9050 c3        1 Z2T      0.088100
     13 O2'         1.1230    2.0340   -2.3580 oh        1 Z2T     -0.607800
     14 C3'         3.2760    1.5050   -3.1310 c3        1 Z2T      0.106100
     15 O3'         3.6200    2.8370   -3.4760 oh        1 Z2T     -0.608800
     16 C4'         4.5960    0.7820   -2.8200 c3        1 Z2T      0.123100
     17 O4'         5.3750    0.6400   -3.9940 oh        1 Z2T     -0.595800
     18 C5'         4.2850   -0.6290   -2.3030 c3        1 Z2T      0.099100
     19 O5'         3.4670   -0.5450   -1.1330 os        1 Z2T     -0.421600
     20 C6'         5.5630   -1.3490   -1.8630 c3        1 Z2T      0.140400
     21 O6'         5.3030   -2.6920   -1.5230 oh        1 Z2T     -0.595800
     22 HO1        -1.4920   -0.5230   -1.1930 ho        1 Z2T      0.436000
     23 H3          3.2040    0.2580    1.1450 ha        1 Z2T      0.174000
     24 H5         -0.5550   -0.1540    3.2910 ha        1 Z2T      0.157000
     25 H7          0.7370    0.9630    4.8080 h1        1 Z2T      0.048033
     26 H7A         0.9900   -0.8560    4.8360 h1        1 Z2T      0.048033
     27 H7B         2.3040    0.2640    5.4710 h1        1 Z2T      0.048033
     28 H1'         1.6370   -0.5760   -2.1580 h1        1 Z2T      0.079700
     29 H2'         2.7680    2.1340   -1.0920 h1        1 Z2T      0.064700
     30 HO2'        0.4220    1.7300   -1.7670 ho        1 Z2T      0.425000
     31 H3'         2.7620    1.0140   -4.0040 h1        1 Z2T      0.063700
     32 HO3'        2.7880    3.3150   -3.5910 ho        1 Z2T      0.428000
     33 H4'         5.1720    1.3650   -2.0490 h1        1 Z2T      0.061700
     34 HO4'        5.4610    1.5260   -4.3720 ho        1 Z2T      0.425000
     35 H5'         3.7560   -1.2260   -3.0960 h1        1 Z2T      0.071700
     36 H6'         6.2760   -1.3880   -2.7310 h1        1 Z2T      0.064200
     37 H6'A        6.0290   -0.8080   -0.9980 h1        1 Z2T      0.064200
     38 HO6'        4.6560   -2.6830   -0.8060 ho        1 Z2T      0.410000
@<TRIPOS>BOND
     1    1    2 1   
     2    1    3 ar  
     3    1    8 ar  
     4    2   22 1   
     5    3    4 ar  
     6    3   11 1   
     7    4    5 ar  
     8    4   23 1   
     9    5    6 1   
    10    5    7 ar  
    11    6   10 1   
    12    7    8 ar  
    13    7   24 1   
    14    8    9 1   
    15   10   25 1   
    16   10   26 1   
    17   10   27 1   
    18   11   12 1   
    19   11   19 1   
    20   11   28 1   
    21   12   13 1   
    22   12   14 1   
    23   12   29 1   
    24   13   30 1   
    25   14   15 1   
    26   14   16 1   
    27   14   31 1   
    28   15   32 1   
    29   16   17 1   
    30   16   18 1   
    31   16   33 1   
    32   17   34 1   
    33   18   19 1   
    34   18   20 1   
    35   18   35 1   
    36   20   21 1   
    37   20   36 1   
    38   20   37 1   
    39   21   38 1   
@<TRIPOS>SUBSTRUCTURE
     1 Z2T         1 TEMP              0 ****  ****    0 ROOT
