@<TRIPOS>MOLECULE
Z2T
   38    39     1     0     0
SMALL
bcc


@<TRIPOS>ATOM
      1 C1          1.6510   -0.8280   -0.7090 ca        1 Z2T      0.112100
      2 O1          1.3340   -1.9480   -1.4470 oh        1 Z2T     -0.504100
      3 C2          0.6470    0.0040   -0.1680 ca        1 Z2T     -0.101300
      4 C3          1.0010    1.1590    0.5220 ca        1 Z2T     -0.106000
      5 C4          2.3600    1.4990    0.6600 ca        1 Z2T      0.106100
      6 O4          2.5930    2.6670    1.3610 os        1 Z2T     -0.324900
      7 C5          3.3610    0.6900    0.1190 ca        1 Z2T     -0.176000
      8 C6          3.0040   -0.4800   -0.5600 ca        1 Z2T      0.024400
      9 CL6         4.2450   -1.4500   -1.1970 cl        1 Z2T     -0.070400
     10 C7          3.9540    3.0600    1.4900 c3        1 Z2T      0.111700
     11 C1'        -0.7970   -0.3550   -0.3550 c3        1 Z2T      0.193400
     12 C2'        -1.3240   -1.2320    0.8020 c3        1 Z2T      0.123100
     13 O2'        -0.6620   -2.4830    0.7190 oh        1 Z2T     -0.613800
     14 C3'        -2.8400   -1.4460    0.6450 c3        1 Z2T      0.067100
     15 O3'        -3.2680   -2.1330    1.8110 oh        1 Z2T     -0.604800
     16 C4'        -3.5520   -0.0910    0.5200 c3        1 Z2T      0.085100
     17 O4'        -4.9230   -0.2940    0.2140 oh        1 Z2T     -0.590800
     18 C5'        -2.9270    0.6910   -0.6440 c3        1 Z2T      0.100100
     19 O5'        -1.5310    0.8740   -0.3960 os        1 Z2T     -0.414600
     20 C6'        -3.5160    2.1020   -0.7460 c3        1 Z2T      0.141400
     21 O6'        -3.0610    2.7610   -1.9060 oh        1 Z2T     -0.592800
     22 HO1         0.6840   -2.4580   -0.9340 ho        1 Z2T      0.441000
     23 H3          0.2290    1.8200    0.9440 ha        1 Z2T      0.165000
     24 H5          4.4240    0.9550    0.2210 ha        1 Z2T      0.154000
     25 H7          4.4140    3.2310    0.4860 h1        1 Z2T      0.046367
     26 H7A         3.8940    4.0190    2.0650 h1        1 Z2T      0.046367
     27 H7B         4.5330    2.2940    2.0610 h1        1 Z2T      0.046367
     28 H1'        -0.9360   -0.9040   -1.3310 h1        1 Z2T      0.071700
     29 H2'        -1.1090   -0.7430    1.7910 h1        1 Z2T      0.071700
     30 HO2'       -1.0000   -3.0220    1.4460 ho        1 Z2T      0.432000
     31 H3'        -3.0460   -2.0700   -0.2690 h1        1 Z2T      0.066700
     32 HO3'       -4.1530   -2.4690    1.6240 ho        1 Z2T      0.411000
     33 H4'        -3.4400    0.4870    1.4780 h1        1 Z2T      0.064700
     34 HO4'       -5.3590   -0.5120    1.0470 ho        1 Z2T      0.407000
     35 H5'        -3.0760    0.1370   -1.6100 h1        1 Z2T      0.074700
     36 H6'        -4.6300    2.0240   -0.8600 h1        1 Z2T      0.061700
     37 H6'A       -3.2550    2.6930    0.1710 h1        1 Z2T      0.061700
     38 HO6'       -2.0970    2.8040   -1.8490 ho        1 Z2T      0.414000
@<TRIPOS>BOND
     1    1    2 1   
     2    1    3 ar  
     3    1    8 ar  
     4    2   22 1   
     5    3    4 ar  
     6    3   11 1   
     7    4    5 ar  
     8    4   23 1   
     9    5    6 1   
    10    5    7 ar  
    11    6   10 1   
    12    7    8 ar  
    13    7   24 1   
    14    8    9 1   
    15   10   25 1   
    16   10   26 1   
    17   10   27 1   
    18   11   12 1   
    19   11   19 1   
    20   11   28 1   
    21   12   13 1   
    22   12   14 1   
    23   12   29 1   
    24   13   30 1   
    25   14   15 1   
    26   14   16 1   
    27   14   31 1   
    28   15   32 1   
    29   16   17 1   
    30   16   18 1   
    31   16   33 1   
    32   17   34 1   
    33   18   19 1   
    34   18   20 1   
    35   18   35 1   
    36   20   21 1   
    37   20   36 1   
    38   20   37 1   
    39   21   38 1   
@<TRIPOS>SUBSTRUCTURE
     1 Z2T         1 TEMP              0 ****  ****    0 ROOT
