@<TRIPOS>MOLECULE
Z2T
   38    36     1     0     0
SMALL
bcc


@<TRIPOS>ATOM
      1 C1         -2.6170    0.0960    0.6130 c1        1 Z2T      0.114600
      2 O1         -3.3180    0.0970   -0.5570 oh        1 Z2T     -0.472600
      3 C2         -1.2130    0.0650    0.5860 c1        1 Z2T     -0.029100
      4 C3         -0.5010   -0.0210    1.7700 c1        1 Z2T     -0.036500
      5 C4         -1.1720   -0.0760    2.9760 c1        1 Z2T      0.078600
      6 O4         -0.4360   -0.0260    4.1990 os        1 Z2T     -0.307400
      7 C5         -2.5670   -0.0440    3.0010 c1        1 Z2T     -0.097500
      8 C6         -3.2840    0.0410    1.8150 c1        1 Z2T     -0.031100
      9 CL6        -5.0670    0.1950    1.8590 cl        1 Z2T     -0.104900
     10 C7         -0.6500   -1.1160    5.0300 c3        1 Z2T      0.111700
     11 C1'        -0.4530    0.0560   -0.7880 c3        1 Z2T      0.163200
     12 C2'         0.0200    1.3890   -1.0700 c3        1 Z2T      0.126100
     13 O2'        -1.2070    2.3050   -1.3020 oh        1 Z2T     -0.583800
     14 C3'         0.8470    1.4770   -2.1830 c3        1 Z2T      0.066100
     15 O3'         1.4360    2.9100   -2.2510 oh        1 Z2T     -0.604800
     16 C4'         1.9880    0.5010   -2.1610 c3        1 Z2T      0.078100
     17 O4'         2.6970    0.6160   -3.3630 oh        1 Z2T     -0.604800
     18 C5'         1.5420   -1.0280   -1.9690 c3        1 Z2T      0.102100
     19 O5'         0.6290   -0.9620   -0.7200 os        1 Z2T     -0.404600
     20 C6'         2.5950   -1.8120   -1.7430 c3        1 Z2T      0.143400
     21 O6'         2.9690   -2.4580   -2.9540 oh        1 Z2T     -0.596800
     22 HO1        -3.7800   -0.6770   -0.6330 ho        1 Z2T      0.431000
     23 H3          0.4420   -0.0420    1.7540 ha        1 Z2T      0.105500
     24 H5         -3.0260   -0.0820    3.8300 ha        1 Z2T      0.096500
     25 H7          0.1920   -1.3380    5.5100 h1        1 Z2T      0.045700
     26 H7A        -0.9540   -1.9410    4.4540 h1        1 Z2T      0.045700
     27 H7B        -1.3500   -0.8980    5.6820 h1        1 Z2T      0.045700
     28 H1'        -1.1080   -0.2160   -1.5190 h1        1 Z2T      0.087700
     29 H2'         0.5000    1.7120   -0.3060 h1        1 Z2T      0.061700
     30 HO2'       -1.0510    3.1130   -0.9440 ho        1 Z2T      0.418000
     31 H3'         0.3200    1.3220   -2.9650 h1        1 Z2T      0.067700
     32 HO3'        1.2380    3.2880   -3.0700 ho        1 Z2T      0.408000
     33 H4'         2.5940    0.7440   -1.4160 h1        1 Z2T      0.064700
     34 HO4'        3.4950    1.1210   -3.2140 ho        1 Z2T      0.410000
     35 H5'         1.0380   -1.3400   -2.7490 h1        1 Z2T      0.071700
     36 H6'         2.3490   -2.5140   -1.0450 h1        1 Z2T      0.058200
     37 H6'A        3.3980   -1.2330   -1.3940 h1        1 Z2T      0.058200
     38 HO6'        3.4650   -3.2240   -2.7600 ho        1 Z2T      0.416000
@<TRIPOS>BOND
     1    1    2 1   
     2    1    8 3   
     3    2   22 1   
     4    3    4 3   
     5    3   11 1   
     6    4   23 1   
     7    5    6 1   
     8    5    7 3   
     9    6   10 1   
    10    7   24 1   
    11    8    9 1   
    12   10   25 1   
    13   10   26 1   
    14   10   27 1   
    15   11   12 1   
    16   11   19 1   
    17   11   28 1   
    18   12   13 1   
    19   12   14 1   
    20   12   29 1   
    21   13   30 1   
    22   14   15 1   
    23   14   16 1   
    24   14   31 1   
    25   15   32 1   
    26   16   17 1   
    27   16   18 1   
    28   16   33 1   
    29   17   34 1   
    30   18   19 1   
    31   18   20 1   
    32   18   35 1   
    33   20   21 1   
    34   20   36 1   
    35   20   37 1   
    36   21   38 1   
@<TRIPOS>SUBSTRUCTURE
     1 Z2T         1 TEMP              0 ****  ****    0 ROOT
