@<TRIPOS>MOLECULE
Z30
   37    38     1     0     0
SMALL
bcc


@<TRIPOS>ATOM
      1 N1          2.3420   -1.8270   -0.1110 nc        1 Z30     -0.499800
      2 N2          1.2980   -2.6390   -0.0480 na        1 Z30      0.012400
      3 C3          0.0870   -1.9420    0.0250 cc        1 Z30     -0.124600
      4 C4         -1.2880   -2.4700    0.0900 c3        1 Z30     -0.008100
      5 C5         -2.2280   -1.3480    0.5160 c3        1 Z30     -0.072400
      6 C6         -1.9770   -0.0540   -0.2540 c3        1 Z30     -0.052700
      7 C7         -3.0830    0.9870   -0.0040 c3        1 Z30     -0.049000
      8 C8         -3.3860    1.1430    1.4780 c3        1 Z30     -0.088767
      9 C9         -2.6620    2.3400   -0.5660 c3        1 Z30     -0.088767
     10 C10        -4.3560    0.5560   -0.7260 c3        1 Z30     -0.088767
     11 C11        -0.5850    0.5000    0.0630 c3        1 Z30     -0.009100
     12 C12         0.4150   -0.5710    0.0040 cd        1 Z30     -0.173600
     13 C13         1.8570   -0.5410   -0.0840 cd        1 Z30      0.256800
     14 C14         2.6750    0.6850   -0.1590 c         1 Z30      0.569600
     15 N15         4.0400    0.5780    0.1470 n         1 Z30     -0.433300
     16 N16         4.9400    1.5780   -0.0590 n3        1 Z30     -0.629800
     17 O17         2.1680    1.7950   -0.4200 o         1 Z30     -0.607100
     18 HN2         1.4250   -3.6240   -0.0540 hn        1 Z30      0.325700
     19 H4         -1.5890   -2.8600   -0.9210 hc        1 Z30      0.054200
     20 H4A        -1.3630   -3.3210    0.8170 hc        1 Z30      0.054200
     21 H5         -3.2820   -1.6910    0.3570 hc        1 Z30      0.050200
     22 H5A        -2.0910   -1.1550    1.6130 hc        1 Z30      0.050200
     23 H6         -1.9970   -0.2990   -1.3550 hc        1 Z30      0.050700
     24 H8         -2.4510    1.3410    2.0540 hc        1 Z30      0.035589
     25 H8A        -4.0860    2.0000    1.6350 hc        1 Z30      0.035589
     26 H8B        -3.8670    0.2200    1.8830 hc        1 Z30      0.035589
     27 H9         -2.3020    2.2300   -1.6170 hc        1 Z30      0.035589
     28 H9A        -3.5290    3.0430   -0.5590 hc        1 Z30      0.035589
     29 H9B        -1.8450    2.7870    0.0500 hc        1 Z30      0.035589
     30 H10        -4.7280   -0.4220   -0.3370 hc        1 Z30      0.035589
     31 H10A       -5.1570    1.3190   -0.5720 hc        1 Z30      0.035589
     32 H10B       -4.1670    0.4560   -1.8210 hc        1 Z30      0.035589
     33 H11        -0.3080    1.3080   -0.6680 hc        1 Z30      0.072200
     34 H11A       -0.5770    0.9630    1.0880 hc        1 Z30      0.072200
     35 HN15        4.4720   -0.3240    0.0740 hn        1 Z30      0.339500
     36 HN16        4.7150    2.0850   -0.9120 hn        1 Z30      0.347800
     37 HN1A        4.8410    2.2490    0.6970 hn        1 Z30      0.347800
@<TRIPOS>BOND
     1    1    2 1   
     2    1   13 2   
     3    2    3 1   
     4    2   18 1   
     5    3    4 1   
     6    3   12 2   
     7    4    5 1   
     8    4   19 1   
     9    4   20 1   
    10    5    6 1   
    11    5   21 1   
    12    5   22 1   
    13    6    7 1   
    14    6   11 1   
    15    6   23 1   
    16    7    8 1   
    17    7    9 1   
    18    7   10 1   
    19    8   24 1   
    20    8   25 1   
    21    8   26 1   
    22    9   27 1   
    23    9   28 1   
    24    9   29 1   
    25   10   30 1   
    26   10   31 1   
    27   10   32 1   
    28   11   12 1   
    29   11   33 1   
    30   11   34 1   
    31   12   13 1   
    32   13   14 1   
    33   14   15 1   
    34   14   17 2   
    35   15   16 1   
    36   15   35 1   
    37   16   36 1   
    38   16   37 1   
@<TRIPOS>SUBSTRUCTURE
     1 Z30         1 TEMP              0 ****  ****    0 ROOT
