@<TRIPOS>MOLECULE
Z30
   39    39     1     0     0
SMALL
bcc


@<TRIPOS>ATOM
      1 N1        427.6590   -2.9760  262.6120 nc        1 Z30     -0.249700
      2 N2        428.1200   -2.9450  263.8230 na        1 Z30      0.111500
      3 C3        427.1110   -2.9200  264.8100 cd        1 Z30     -0.092300
      4 C4        427.2560   -2.8870  266.2780 c3        1 Z30     -0.031200
      5 C5        425.9210   -2.4770  266.8890 c3        1 Z30     -0.083400
      6 C6        424.7450   -3.2450  266.2950 c3        1 Z30     -0.051700
      7 C7        423.4410   -2.9990  267.0780 c3        1 Z30     -0.050000
      8 C8        423.2040   -1.5180  267.3320 c3        1 Z30     -0.093767
      9 C9        422.2540   -3.5660  266.3070 c3        1 Z30     -0.093767
     10 C10       423.5190   -3.7260  268.4180 c3        1 Z30     -0.093767
     11 C11       424.5780   -2.9160  264.8060 c3        1 Z30     -0.043200
     12 C12       425.8790   -2.9380  264.1290 cc        1 Z30     -0.016200
     13 C13       426.2520   -2.9740  262.7210 cc        1 Z30     -0.182500
     14 C14       425.4150   -3.0030  261.6390 c1        1 Z30      0.809600
     15 N15     -1937.3270   12.8690-1196.5650 n3        1 Z30     -0.673600
     16 N16     -1937.3880   13.3230-1197.8770 n4        1 Z30     -0.609400
     17 O17       424.6800   -3.0270  260.7410 o         1 Z30     -0.155500
     18 HN2       429.1150   -2.9400  263.9870 hn        1 Z30      0.373700
     19 H4        427.5550   -3.9070  266.6470 hc        1 Z30      0.086200
     20 H4A       428.0550   -2.1630  266.5920 hc        1 Z30      0.086200
     21 H5        425.9730   -2.6600  267.9950 hc        1 Z30      0.074200
     22 H5A       425.7660   -1.3760  266.7350 hc        1 Z30      0.074200
     23 H6        424.9740   -4.3470  266.3710 hc        1 Z30      0.062700
     24 H8        422.1900   -1.3700  267.7770 hc        1 Z30      0.043144
     25 H8A       423.9600   -1.1140  268.0480 hc        1 Z30      0.043144
     26 H8B       423.2600   -0.9340  266.3830 hc        1 Z30      0.043144
     27 H9        422.4590   -4.6150  265.9860 hc        1 Z30      0.043144
     28 H9A       421.3460   -3.5690  266.9580 hc        1 Z30      0.043144
     29 H9B       422.0290   -2.9440  265.4070 hc        1 Z30      0.043144
     30 H10       422.5660   -3.5800  268.9810 hc        1 Z30      0.043144
     31 H10A      423.6740   -4.8200  268.2610 hc        1 Z30      0.043144
     32 H10B      424.3540   -3.3300  269.0430 hc        1 Z30      0.043144
     33 H11       424.1140   -1.8960  264.6920 hc        1 Z30      0.084200
     34 H11A      423.8820   -3.6630  264.3340 hc        1 Z30      0.084200
     35 HN15    -1937.2870   13.6460-1195.9120 hn        1 Z30      0.429800
     36 HN16    -1936.5270   13.8730-1198.0620 hn        1 Z30      0.474800
     37 HN1A    -1937.3720   12.4930-1198.5000 hn        1 Z30      0.474800
     38 H152    -1938.1240   12.2790-1196.3470 hn        1 Z30      0.429800
     39 H163    -1938.2120   13.9020-1198.1130 hn        1 Z30      0.474800
@<TRIPOS>BOND
     1    1    2 2   
     2    1   13 1   
     3    2    3 1   
     4    2   18 1   
     5    3    4 1   
     6    3   12 2   
     7    4    5 1   
     8    4   19 1   
     9    4   20 1   
    10    5    6 1   
    11    5   21 1   
    12    5   22 1   
    13    6    7 1   
    14    6   11 1   
    15    6   23 1   
    16    7    8 1   
    17    7    9 1   
    18    7   10 1   
    19    8   24 1   
    20    8   25 1   
    21    8   26 1   
    22    9   27 1   
    23    9   28 1   
    24    9   29 1   
    25   10   30 1   
    26   10   31 1   
    27   10   32 1   
    28   11   12 1   
    29   11   33 1   
    30   11   34 1   
    31   12   13 1   
    32   13   14 2   
    33   14   17 2   
    34   15   16 1   
    35   15   35 1   
    36   15   38 1   
    37   16   36 1   
    38   16   37 1   
    39   16   39 1   
@<TRIPOS>SUBSTRUCTURE
     1 Z30         1 TEMP              0 ****  ****    0 ROOT
