@<TRIPOS>MOLECULE
Z30
   39    39     1     0     0
SMALL
bcc


@<TRIPOS>ATOM
      1 N1        260.6700   -0.9150  138.5880 nc        1 Z30     -0.249700
      2 N2        261.9230   -0.9350  138.9200 na        1 Z30      0.111500
      3 C3        262.1350   -1.0610  140.3100 cd        1 Z30     -0.092300
      4 C4        263.4110   -1.1230  141.0470 c3        1 Z30     -0.031200
      5 C5        263.1330   -0.8650  142.5230 c3        1 Z30     -0.083400
      6 C6        261.9540   -1.6780  143.0480 c3        1 Z30     -0.051700
      7 C7        261.8320   -1.5930  144.5810 c3        1 Z30     -0.050000
      8 C8        261.9180   -0.1570  145.0770 c3        1 Z30     -0.093767
      9 C9        260.5050   -2.1950  145.0330 c3        1 Z30     -0.093767
     10 C10       262.9560   -2.4050  145.2170 c3        1 Z30     -0.093767
     11 C11       260.6520   -1.2560  142.3550 c3        1 Z30     -0.043200
     12 C12       260.8620   -1.1260  140.9090 cc        1 Z30     -0.016200
     13 C13       259.9370   -1.0300  139.7870 cc        1 Z30     -0.182500
     14 C14       258.5690   -1.0460  139.8340 c1        1 Z30      0.809600
     15 N15     -1190.7000    5.8880 -634.3470 n8        1 Z30     -0.673600
     16 N16     -1192.0890    5.8510 -634.3880 nz        1 Z30     -0.609400
     17 O17       257.4110   -1.0620  139.9050 o         1 Z30     -0.155500
     18 HN2       262.6370   -0.8640  138.2120 hn        1 Z30      0.373700
     19 H4        264.1420   -0.3630  140.6600 hc        1 Z30      0.086200
     20 H4A       263.8720   -2.1410  140.9110 hc        1 Z30      0.086200
     21 H5        264.0580   -1.1230  143.1030 hc        1 Z30      0.074200
     22 H5A       262.9320    0.2290  142.6760 hc        1 Z30      0.074200
     23 H6        262.1350   -2.7610  142.7900 hc        1 Z30      0.062700
     24 H8        261.1870    0.4960  144.5450 hc        1 Z30      0.043144
     25 H8A       261.6900   -0.1220  146.1700 hc        1 Z30      0.043144
     26 H8B       262.9450    0.2540  144.9230 hc        1 Z30      0.043144
     27 H9        259.6520   -1.5290  144.7600 hc        1 Z30      0.043144
     28 H9A       260.5040   -2.3160  146.1440 hc        1 Z30      0.043144
     29 H9B       260.3510   -3.1990  144.5700 hc        1 Z30      0.043144
     30 H10       262.8580   -2.3780  146.3300 hc        1 Z30      0.043144
     31 H10A      263.9560   -1.9900  144.9480 hc        1 Z30      0.043144
     32 H10B      262.9060   -3.4700  144.8840 hc        1 Z30      0.043144
     33 H11       260.3020   -0.2700  142.7720 hc        1 Z30      0.084200
     34 H11A      259.8540   -2.0190  142.5640 hc        1 Z30      0.084200
     35 HN15    -1190.3010    5.0620 -634.7830 hn        1 Z30      0.429800
     36 HN16    -1192.4420    6.6870 -633.8840 hn        1 Z30      0.474800
     37 HN1A    -1192.3990    5.0110 -633.8630 hn        1 Z30      0.474800
     38 H152    -1190.3440    6.7220 -634.8040 hn        1 Z30      0.429800
     39 H163    -1192.5080    5.8290 -635.3330 hn        1 Z30      0.474800
@<TRIPOS>BOND
     1    1    2 2   
     2    1   13 1   
     3    2    3 1   
     4    2   18 1   
     5    3    4 1   
     6    3   12 2   
     7    4    5 1   
     8    4   19 1   
     9    4   20 1   
    10    5    6 1   
    11    5   21 1   
    12    5   22 1   
    13    6    7 1   
    14    6   11 1   
    15    6   23 1   
    16    7    8 1   
    17    7    9 1   
    18    7   10 1   
    19    8   24 1   
    20    8   25 1   
    21    8   26 1   
    22    9   27 1   
    23    9   28 1   
    24    9   29 1   
    25   10   30 1   
    26   10   31 1   
    27   10   32 1   
    28   11   12 1   
    29   11   33 1   
    30   11   34 1   
    31   12   13 1   
    32   13   14 2   
    33   14   17 2   
    34   15   16 1   
    35   15   35 1   
    36   15   38 1   
    37   16   36 1   
    38   16   37 1   
    39   16   39 1   
@<TRIPOS>SUBSTRUCTURE
     1 Z30         1 TEMP              0 ****  ****    0 ROOT
