@<TRIPOS>MOLECULE
Z31
   39    41     1     0     0
SMALL
bcc


@<TRIPOS>ATOM
      1 C1          0.6390    0.0760   -0.4210 c2        1 Z31     -0.063000
      2 C2          1.7570   -0.6310   -0.2360 c2        1 Z31     -0.305200
      3 C3          2.6330   -0.4560    0.9490 c3        1 Z31      0.172000
      4 N4          2.5680   -1.6900    1.8330 n4        1 Z31     -0.721700
      5 C5          3.5280   -1.6530    2.9270 cc        1 Z31      0.329300
      6 S6          4.9200   -2.6390    3.0320 ss        1 Z31      0.392700
      7 C7          5.3360   -1.9630    4.4630 cc        1 Z31     -0.288000
      8 C8          4.4010   -0.9710    4.8500 cd        1 Z31      0.428200
      9 N9          3.3560   -0.7840    3.9640 nd        1 Z31     -0.574000
     10 N10         4.4990   -0.1950    6.0800 n4        1 Z31     -0.800300
     11 C11         6.5190   -2.4120    5.2470 c         1 Z31      0.636300
     12 C12         7.2690   -3.4950    4.6120 ca        1 Z31     -0.186600
     13 C13         7.4610   -3.5260    3.2360 ca        1 Z31     -0.131000
     14 C14         8.1420   -4.6110    2.6350 ca        1 Z31     -0.035000
     15 C15         8.6340   -5.6650    3.4590 ca        1 Z31     -0.005000
     16 C16         8.4510   -5.5900    4.8630 ca        1 Z31     -0.066000
     17 C17         7.7890   -4.5270    5.4330 ca        1 Z31     -0.094000
     18 C18         8.3720   -4.6650    1.2310 ca        1 Z31     -0.141000
     19 C19         9.0470   -5.7230    0.6770 ca        1 Z31     -0.081000
     20 C20         9.5240   -6.7800    1.4960 ca        1 Z31     -0.083000
     21 C21         9.3230   -6.7530    2.8540 ca        1 Z31     -0.112000
     22 O22         6.7390   -1.9120    6.3550 o         1 Z31     -0.505100
     23 H1          0.2490    0.8020    0.3090 ha        1 Z31      0.155500
     24 H1A         0.0430   -0.0210   -1.3450 ha        1 Z31      0.155500
     25 H2          2.1280   -1.3270   -1.0080 ha        1 Z31      0.162000
     26 H3          2.3250    0.4250    1.5820 hx        1 Z31      0.112700
     27 H3A         3.7080   -0.3260    0.6320 hx        1 Z31      0.112700
     28 HN4         1.6100   -1.7650    2.2150 hn        1 Z31      0.473800
     29 HN10        5.2970   -0.5580    6.6460 hn        1 Z31      0.496800
     30 HN1A        3.6280   -0.2780    6.6240 hn        1 Z31      0.496800
     31 H13         7.2200   -2.6590    2.5930 ha        1 Z31      0.124000
     32 H16         8.8590   -6.3960    5.4980 ha        1 Z31      0.174000
     33 H17         7.6600   -4.4580    6.5260 ha        1 Z31      0.169000
     34 H18         8.0170   -3.8360    0.6010 ha        1 Z31      0.132000
     35 H19         9.2350   -5.7650   -0.4080 ha        1 Z31      0.163000
     36 H20        10.0640   -7.6190    1.0240 ha        1 Z31      0.170000
     37 H21         9.6980   -7.5660    3.4980 ha        1 Z31      0.165000
     38 H42         2.7470   -2.5260    1.2610 hn        1 Z31      0.473800
     39 H103        4.6640    0.7970    5.8560 hn        1 Z31      0.496800
@<TRIPOS>BOND
     1    1    2 2   
     2    1   23 1   
     3    1   24 1   
     4    2    3 1   
     5    2   25 1   
     6    3    4 1   
     7    3   26 1   
     8    3   27 1   
     9    4    5 1   
    10    4   28 1   
    11    4   38 1   
    12    5    6 1   
    13    5    9 2   
    14    6    7 1   
    15    7    8 2   
    16    7   11 1   
    17    8    9 1   
    18    8   10 1   
    19   10   29 1   
    20   10   30 1   
    21   10   39 1   
    22   11   12 1   
    23   11   22 2   
    24   12   13 ar  
    25   12   17 ar  
    26   13   14 ar  
    27   13   31 1   
    28   14   15 ar  
    29   14   18 ar  
    30   15   16 ar  
    31   15   21 ar  
    32   16   17 ar  
    33   16   32 1   
    34   17   33 1   
    35   18   19 ar  
    36   18   34 1   
    37   19   20 ar  
    38   19   35 1   
    39   20   21 ar  
    40   20   36 1   
    41   21   37 1   
@<TRIPOS>SUBSTRUCTURE
     1 Z31         1 TEMP              0 ****  ****    0 ROOT
