@<TRIPOS>MOLECULE
Z31
   37    39     1     0     0
SMALL
bcc


@<TRIPOS>ATOM
      1 C1         -0.0280   -0.2780   -0.0960 c2        1 Z31     -0.199000
      2 C2          1.2960   -0.2040    0.0030 c2        1 Z31     -0.193200
      3 C3          2.0070   -0.1570    1.3190 c3        1 Z31      0.223000
      4 N4          3.1180   -1.0870    1.3830 nu        1 Z31     -0.817900
      5 C5          3.8420   -1.2010    2.5560 cc        1 Z31      0.691300
      6 S6          5.0820   -2.4160    2.6930 ss        1 Z31     -0.138300
      7 C7          5.5170   -1.8430    4.2250 cc        1 Z31     -0.423000
      8 C8          4.7190   -0.7140    4.5720 cd        1 Z31      0.730200
      9 N9          3.7440   -0.3650    3.6130 nd        1 Z31     -0.772000
     10 N10         4.8690    0.0050    5.7200 nv        1 Z31     -0.940500
     11 C11         6.5150   -2.4490    5.0640 c         1 Z31      0.643300
     12 C12         7.2270   -3.6330    4.5160 ca        1 Z31     -0.145600
     13 C13         7.6600   -3.6870    3.2100 ca        1 Z31     -0.091000
     14 C14         8.3440   -4.8340    2.7220 ca        1 Z31     -0.045000
     15 C15         8.5770   -5.9270    3.5950 ca        1 Z31     -0.024000
     16 C16         8.1310   -5.8430    4.9420 ca        1 Z31     -0.126000
     17 C17         7.4800   -4.7230    5.3940 ca        1 Z31     -0.089000
     18 C18         8.8010   -4.9100    1.3770 ca        1 Z31     -0.113000
     19 C19         9.4550   -6.0300    0.9270 ca        1 Z31     -0.131000
     20 C20         9.6840   -7.1240    1.7980 ca        1 Z31     -0.122000
     21 C21         9.2560   -7.0750    3.1010 ca        1 Z31     -0.121000
     22 O22         6.7730   -2.0440    6.2150 o         1 Z31     -0.594100
     23 H1         -0.6900   -0.3480    0.7780 ha        1 Z31      0.117500
     24 H1A        -0.5420   -0.2630   -1.0660 ha        1 Z31      0.117500
     25 H2          1.9390   -0.1330   -0.8900 ha        1 Z31      0.134000
     26 H3          1.2780   -0.3450    2.1610 h1        1 Z31      0.063200
     27 H3A         2.4260    0.8830    1.4640 h1        1 Z31      0.063200
     28 HN4         2.9740   -1.9510    0.9040 hn        1 Z31      0.421800
     29 HN10        5.5100   -0.3310    6.4020 hn        1 Z31      0.456300
     30 HN1A        4.2270    0.7210    5.9500 hn        1 Z31      0.456300
     31 H13         7.5030   -2.8380    2.5220 ha        1 Z31      0.147000
     32 H16         8.3240   -6.6910    5.6170 ha        1 Z31      0.136000
     33 H17         7.1480   -4.6370    6.4410 ha        1 Z31      0.151000
     34 H18         8.6200   -4.0550    0.7090 ha        1 Z31      0.134000
     35 H19         9.8100   -6.0930   -0.1120 ha        1 Z31      0.133000
     36 H20        10.2110   -8.0100    1.4130 ha        1 Z31      0.133000
     37 H21         9.4310   -7.9180    3.7860 ha        1 Z31      0.134000
@<TRIPOS>BOND
     1    1    2 2   
     2    1   23 1   
     3    1   24 1   
     4    2    3 1   
     5    2   25 1   
     6    3    4 1   
     7    3   26 1   
     8    3   27 1   
     9    4    5 1   
    10    4   28 1   
    11    5    6 1   
    12    5    9 2   
    13    6    7 1   
    14    7    8 2   
    15    7   11 1   
    16    8    9 1   
    17    8   10 1   
    18   10   29 1   
    19   10   30 1   
    20   11   12 1   
    21   11   22 2   
    22   12   13 ar  
    23   12   17 ar  
    24   13   14 ar  
    25   13   31 1   
    26   14   15 ar  
    27   14   18 ar  
    28   15   16 ar  
    29   15   21 ar  
    30   16   17 ar  
    31   16   32 1   
    32   17   33 1   
    33   18   19 ar  
    34   18   34 1   
    35   19   20 ar  
    36   19   35 1   
    37   20   21 ar  
    38   20   36 1   
    39   21   37 1   
@<TRIPOS>SUBSTRUCTURE
     1 Z31         1 TEMP              0 ****  ****    0 ROOT
