@<TRIPOS>MOLECULE
Z31
   37    39     1     0     0
SMALL
bcc


@<TRIPOS>ATOM
      1 C1         -6.6930    2.4570   -1.0120 c2        1 Z31     -0.199000
      2 C2         -5.7150    2.2760   -0.1290 c2        1 Z31     -0.193200
      3 C3         -4.9780    0.9800    0.0060 c3        1 Z31      0.223000
      4 N4         -3.5400    1.1620    0.0460 nh        1 Z31     -0.817900
      5 C5         -2.7160    0.0530    0.1130 cc        1 Z31      0.691300
      6 S6         -0.9890    0.2510    0.0150 ss        1 Z31     -0.138300
      7 C7         -0.7540   -1.4040    0.2850 cc        1 Z31     -0.423000
      8 C8         -2.0070   -2.0540    0.4760 cd        1 Z31      0.730200
      9 N9         -3.1320   -1.2100    0.3560 nd        1 Z31     -0.772000
     10 N10        -2.1460   -3.3770    0.7710 nh        1 Z31     -0.940500
     11 C11         0.5290   -2.0530    0.2710 c         1 Z31      0.643300
     12 C12         1.7180   -1.1920    0.0390 ca        1 Z31     -0.145600
     13 C13         1.8570    0.0410    0.6380 ca        1 Z31     -0.091000
     14 C14         3.0110    0.8360    0.3990 ca        1 Z31     -0.045000
     15 C15         4.0220    0.3470   -0.4670 ca        1 Z31     -0.024000
     16 C16         3.8620   -0.9330   -1.0640 ca        1 Z31     -0.126000
     17 C17         2.7440   -1.6860   -0.8130 ca        1 Z31     -0.089000
     18 C18         3.1750    2.1100    1.0080 ca        1 Z31     -0.113000
     19 C19         4.2960    2.8620    0.7580 ca        1 Z31     -0.131000
     20 C20         5.3050    2.3760   -0.1100 ca        1 Z31     -0.122000
     21 C21         5.1730    1.1470   -0.7090 ca        1 Z31     -0.121000
     22 O22         0.6700   -3.2840    0.4110 o         1 Z31     -0.594100
     23 H1         -7.0010    1.6850   -1.7310 ha        1 Z31      0.117500
     24 H1A        -7.2600    3.3960   -1.0690 ha        1 Z31      0.117500
     25 H2         -5.4250    3.0660    0.5830 ha        1 Z31      0.134000
     26 H3         -5.2860    0.4890    0.9770 h1        1 Z31      0.063200
     27 H3A        -5.2690    0.2780   -0.8310 h1        1 Z31      0.063200
     28 HN4        -3.1910    1.8990   -0.5300 hn        1 Z31      0.421800
     29 HN10       -1.3310   -3.9470    0.7610 hn        1 Z31      0.456300
     30 HN1A       -3.0430   -3.7920    0.8020 hn        1 Z31      0.456300
     31 H13         1.0870    0.4280    1.3290 ha        1 Z31      0.147000
     32 H16         4.6560   -1.3100   -1.7270 ha        1 Z31      0.136000
     33 H17         2.6180   -2.6880   -1.2520 ha        1 Z31      0.151000
     34 H18         2.3870    2.4780    1.6820 ha        1 Z31      0.134000
     35 H19         4.4270    3.8480    1.2280 ha        1 Z31      0.133000
     36 H20         6.1940    2.9970   -0.2940 ha        1 Z31      0.133000
     37 H21         5.9520    0.7600   -1.3820 ha        1 Z31      0.134000
@<TRIPOS>BOND
     1    1    2 2   
     2    1   23 1   
     3    1   24 1   
     4    2    3 1   
     5    2   25 1   
     6    3    4 1   
     7    3   26 1   
     8    3   27 1   
     9    4    5 1   
    10    4   28 1   
    11    5    6 1   
    12    5    9 2   
    13    6    7 1   
    14    7    8 2   
    15    7   11 1   
    16    8    9 1   
    17    8   10 1   
    18   10   29 1   
    19   10   30 1   
    20   11   12 1   
    21   11   22 2   
    22   12   13 ar  
    23   12   17 ar  
    24   13   14 ar  
    25   13   31 1   
    26   14   15 ar  
    27   14   18 ar  
    28   15   16 ar  
    29   15   21 ar  
    30   16   17 ar  
    31   16   32 1   
    32   17   33 1   
    33   18   19 ar  
    34   18   34 1   
    35   19   20 ar  
    36   19   35 1   
    37   20   21 ar  
    38   20   36 1   
    39   21   37 1   
@<TRIPOS>SUBSTRUCTURE
     1 Z31         1 TEMP              0 ****  ****    0 ROOT
