@<TRIPOS>MOLECULE
Z34
   62    65     1     0     0
SMALL
bcc


@<TRIPOS>ATOM
      1 C1          0.9270   -0.3320   -1.0910 ca        1 Z34     -0.002400
      2 F1          0.1970    0.2040   -2.0910 f         1 Z34     -0.103900
      3 C2          2.3610   -0.3150   -1.1060 ca        1 Z34      0.139600
      4 C3          3.0070   -0.9810   -0.0290 ca        1 Z34     -0.030400
      5 F2          4.3500   -1.0380    0.0840 f         1 Z34     -0.107900
      6 C4          2.2110   -1.6040    0.9880 ca        1 Z34      0.619600
      7 N5          0.8660   -1.5460    1.0450 nb        1 Z34     -0.700000
      8 C6          0.2600   -0.9030    0.0210 ca        1 Z34      0.591600
      9 O11        -3.1720   -1.7230    1.7140 oh        1 Z34     -0.486100
     10 O1         -1.1390   -0.8290    0.0220 os        1 Z34     -0.363400
     11 C11        -1.6370    0.0380    1.0030 ca        1 Z34      0.006100
     12 C12        -1.1740    1.3500    1.1330 ca        1 Z34     -0.078000
     13 C13        -1.7740    2.1890    2.0720 ca        1 Z34     -0.223900
     14 C14        -2.8350    1.7220    2.8600 ca        1 Z34     -0.085000
     15 C15        -3.2940    0.4170    2.7360 ca        1 Z34     -0.155000
     16 C16        -2.6860   -0.4470    1.8070 ca        1 Z34      0.155100
     17 C17        -1.3000    3.5990    2.2350 ce        1 Z34      0.638800
     18 N11        -2.0730    4.6420    2.1790 n2        1 Z34     -0.828100
     19 N12         0.1020    3.7240    2.3970 nv        1 Z34     -0.893800
     20 O2          2.9620   -2.2560    1.9530 os        1 Z34     -0.349400
     21 C21         2.2800   -2.8030    3.0470 ca        1 Z34      0.087100
     22 C22         1.4650   -3.9300    2.8960 ca        1 Z34     -0.107000
     23 C23         0.9220   -4.5210    4.0360 ca        1 Z34     -0.124000
     24 C24         1.1830   -3.9910    5.2990 ca        1 Z34     -0.109000
     25 C25         1.9960   -2.8610    5.4320 ca        1 Z34     -0.102900
     26 C26         2.5550   -2.2520    4.3050 ca        1 Z34     -0.081000
     27 C27         2.2880   -2.3050    6.7680 ce        1 Z34      0.588800
     28 N21         1.2670   -1.5780    7.4950 nh        1 Z34     -0.718600
     29 C30        -0.0540   -2.1320    7.5620 c3        1 Z34      0.168100
     30 N22         3.4720   -2.3490    7.3400 n2        1 Z34     -0.590900
     31 C28         1.8910   -1.2220    8.7820 c3        1 Z34      0.130800
     32 C29         3.3760   -1.6920    8.6430 c3        1 Z34      0.074800
     33 N31         3.0440    0.3250   -2.1580 nh        1 Z34     -0.637000
     34 C32         2.7030    1.7100   -2.4020 c3        1 Z34      0.147800
     35 C33         2.8400    2.6450   -1.2130 c         1 Z34      0.596100
     36 O34         3.8250    3.2890   -0.8490 o         1 Z34     -0.533000
     37 O35         1.6920    2.7840   -0.4990 oh        1 Z34     -0.606100
     38 C36         4.4210   -0.0280   -2.4090 c3        1 Z34      0.172100
     39 H11        -2.5990   -2.2160    1.1020 ho        1 Z34      0.442000
     40 H12        -0.3470    1.7080    0.4950 ha        1 Z34      0.171000
     41 H14        -3.3080    2.3940    3.5940 ha        1 Z34      0.144000
     42 H15        -4.1220    0.0410    3.3540 ha        1 Z34      0.158000
     43 H111       -3.0240    4.4360    1.9600 hn        1 Z34      0.397400
     44 H121        0.4080    4.6280    2.6910 hn        1 Z34      0.395300
     45 H122        1.8130    3.4230    0.2240 ho        1 Z34      0.458000
     46 H22         1.2580   -4.3350    1.8950 ha        1 Z34      0.151000
     47 H23         0.2830   -5.4110    3.9370 ha        1 Z34      0.142000
     48 H24         0.7540   -4.4660    6.1950 ha        1 Z34      0.141000
     49 H26         3.2080   -1.3720    4.3980 ha        1 Z34      0.164000
     50 H301       -0.7270   -1.3740    8.0460 h1        1 Z34      0.041367
     51 H302       -0.1100   -3.0860    8.1540 h1        1 Z34      0.041367
     52 H303       -0.4210   -2.3330    6.5200 h1        1 Z34      0.041367
     53 H281        1.8280   -0.1110    8.9030 h1        1 Z34      0.054700
     54 H282        1.3880   -1.7160    9.6530 h1        1 Z34      0.054700
     55 H291        4.0750   -0.8170    8.6720 h1        1 Z34      0.070200
     56 H292        3.6620   -2.4120    9.4510 h1        1 Z34      0.070200
     57 H321        3.3750    2.1090   -3.2150 h1        1 Z34      0.099200
     58 H322        1.6320    1.7590   -2.7580 h1        1 Z34      0.099200
     59 H361        4.6710    0.2800   -3.4590 h1        1 Z34      0.056033
     60 H362        5.1340    0.4750   -1.7000 h1        1 Z34      0.056033
     61 H363        4.5400   -1.1400   -2.3200 h1        1 Z34      0.056033
     62 H123        0.4860    2.9900    2.9530 hn        1 Z34      0.395300
@<TRIPOS>BOND
     1    1    2 1   
     2    1    3 ar  
     3    1    8 ar  
     4    3    4 ar  
     5    3   33 1   
     6    4    5 1   
     7    4    6 ar  
     8    6    7 ar  
     9    6   20 1   
    10    7    8 ar  
    11    8   10 1   
    12    9   16 1   
    13    9   39 1   
    14   10   11 1   
    15   11   12 ar  
    16   11   16 ar  
    17   12   13 ar  
    18   12   40 1   
    19   13   14 ar  
    20   13   17 1   
    21   14   15 ar  
    22   14   41 1   
    23   15   16 ar  
    24   15   42 1   
    25   17   18 2   
    26   17   19 1   
    27   18   43 1   
    28   19   44 1   
    29   19   62 1   
    30   20   21 1   
    31   21   22 ar  
    32   21   26 ar  
    33   22   23 ar  
    34   22   46 1   
    35   23   24 ar  
    36   23   47 1   
    37   24   25 ar  
    38   24   48 1   
    39   25   26 ar  
    40   25   27 1   
    41   26   49 1   
    42   27   28 1   
    43   27   30 2   
    44   28   29 1   
    45   28   31 1   
    46   29   50 1   
    47   29   51 1   
    48   29   52 1   
    49   30   32 1   
    50   31   32 1   
    51   31   53 1   
    52   31   54 1   
    53   32   55 1   
    54   32   56 1   
    55   33   34 1   
    56   33   38 1   
    57   34   35 1   
    58   34   57 1   
    59   34   58 1   
    60   35   36 2   
    61   35   37 1   
    62   37   45 1   
    63   38   59 1   
    64   38   60 1   
    65   38   61 1   
@<TRIPOS>SUBSTRUCTURE
     1 Z34         1 TEMP              0 ****  ****    0 ROOT
