@<TRIPOS>MOLECULE
Z34
   61    64     1     0     0
SMALL
bcc


@<TRIPOS>ATOM
      1 C1          2.4010    0.3790    2.5310 ca        1 Z34     -0.110400
      2 F1          2.5450    0.7160    3.8340 f         1 Z34     -0.125900
      3 C2          3.5290    0.0430    1.6980 ca        1 Z34      0.233600
      4 C3          3.1940   -0.2590    0.3230 ca        1 Z34     -0.082400
      5 F2          4.1330   -0.6430   -0.5710 f         1 Z34     -0.114900
      6 C4          1.8470   -0.1890   -0.1000 ca        1 Z34      0.612600
      7 N5          0.7890    0.1220    0.6890 nb        1 Z34     -0.779000
      8 C6          1.0960    0.3840    1.9760 ca        1 Z34      0.620600
      9 O11        -1.2810    3.1420    2.9210 oh        1 Z34     -0.495100
     10 O1          0.1010    0.7260    2.8980 os        1 Z34     -0.367400
     11 C11        -1.2160    0.7480    2.4420 ca        1 Z34      0.026100
     12 C12        -1.8820   -0.4080    2.0330 ca        1 Z34     -0.045000
     13 C13        -3.2290   -0.3180    1.6760 ca        1 Z34     -0.178900
     14 C14        -3.9080    0.9030    1.7470 ca        1 Z34     -0.080000
     15 C15        -3.2500    2.0540    2.1680 ca        1 Z34     -0.169000
     16 C16        -1.8900    1.9860    2.5100 ca        1 Z34      0.145100
     17 C17        -3.9460   -1.5430    1.2040 ce        1 Z34      0.651800
     18 N11        -4.1370   -2.5190    2.0370 n2        1 Z34     -0.818100
     19 N12        -4.4070   -1.4520   -0.1340 nh        1 Z34     -0.948800
     20 O2          1.6300   -0.5760   -1.4250 os        1 Z34     -0.354400
     21 C21         0.5930    0.0580   -2.1040 ca        1 Z34      0.123100
     22 C22         0.3980    1.4440   -2.0530 ca        1 Z34     -0.125000
     23 C23        -0.5900    2.0140   -2.8540 ca        1 Z34     -0.122000
     24 C24        -1.3730    1.2210   -3.6900 ca        1 Z34     -0.126000
     25 C25        -1.1710   -0.1650   -3.7300 ca        1 Z34     -0.120900
     26 C26        -0.1840   -0.7600   -2.9380 ca        1 Z34     -0.104000
     27 C27        -1.9890   -1.0080   -4.6210 ce        1 Z34      0.598800
     28 N21        -3.4100   -0.7340   -4.7790 nh        1 Z34     -0.718600
     29 C30        -4.1810   -0.5470   -3.5820 c3        1 Z34      0.166100
     30 N22        -1.5160   -1.9840   -5.3670 n2        1 Z34     -0.596900
     31 C28        -3.9000   -1.7720   -5.7010 c3        1 Z34      0.127800
     32 C29        -2.6220   -2.5710   -6.1170 c3        1 Z34      0.075800
     33 N31         4.8090   -0.0140    2.1640 nh        1 Z34     -0.598000
     34 C32         5.9400    0.2040    1.2800 c3        1 Z34      0.057800
     35 C33         7.1760    0.8940    1.9510 c         1 Z34      0.913600
     36 O34         7.9040    0.1880    2.6980 o         1 Z34     -0.815800
     37 O35         7.3730    2.0990    1.6510 o         1 Z34     -0.815800
     38 C36         5.0800   -0.1180    3.5750 c3        1 Z34      0.176100
     39 H11        -0.3460    2.9410    3.1000 ho        1 Z34      0.445000
     40 H12        -1.3430   -1.3660    1.9880 ha        1 Z34      0.164000
     41 H14        -4.9720    0.9540    1.4710 ha        1 Z34      0.140000
     42 H15        -3.7720    3.0180    2.2330 ha        1 Z34      0.149000
     43 H111       -4.6060   -3.3230    1.6770 hn        1 Z34      0.375400
     44 H121       -4.5260   -2.3180   -0.6100 hn        1 Z34      0.390300
     45 H122       -3.9380   -0.7680   -0.6860 hn        1 Z34      0.390300
     46 H22         1.0150    2.0650   -1.3870 ha        1 Z34      0.157000
     47 H23        -0.7480    3.1030   -2.8280 ha        1 Z34      0.136000
     48 H24        -2.1420    1.6850   -4.3250 ha        1 Z34      0.143000
     49 H26         0.0040   -1.8430   -2.9720 ha        1 Z34      0.163000
     50 H301       -3.6690    0.2080   -2.9270 h1        1 Z34      0.039033
     51 H302       -5.1910   -0.1540   -3.8750 h1        1 Z34      0.039033
     52 H303       -4.3290   -1.4950   -2.9930 h1        1 Z34      0.039033
     53 H281       -4.6620   -2.4430   -5.2280 h1        1 Z34      0.050700
     54 H282       -4.3610   -1.2620   -6.5850 h1        1 Z34      0.050700
     55 H291       -2.7130   -3.6600   -5.8700 h1        1 Z34      0.065200
     56 H292       -2.4270   -2.4650   -7.2150 h1        1 Z34      0.065200
     57 H321        6.2700   -0.7950    0.8800 h1        1 Z34      0.047700
     58 H322        5.6200    0.8560    0.4210 h1        1 Z34      0.047700
     59 H361        6.1290   -0.5060    3.7120 h1        1 Z34      0.063033
     60 H362        4.9970    0.8860    4.0710 h1        1 Z34      0.063033
     61 H363        4.3530   -0.8260    4.0540 h1        1 Z34      0.063033
@<TRIPOS>BOND
     1    1    2 1   
     2    1    3 ar  
     3    1    8 ar  
     4    3    4 ar  
     5    3   33 1   
     6    4    5 1   
     7    4    6 ar  
     8    6    7 ar  
     9    6   20 1   
    10    7    8 ar  
    11    8   10 1   
    12    9   16 1   
    13    9   39 1   
    14   10   11 1   
    15   11   12 ar  
    16   11   16 ar  
    17   12   13 ar  
    18   12   40 1   
    19   13   14 ar  
    20   13   17 1   
    21   14   15 ar  
    22   14   41 1   
    23   15   16 ar  
    24   15   42 1   
    25   17   18 2   
    26   17   19 1   
    27   18   43 1   
    28   19   44 1   
    29   19   45 1   
    30   20   21 1   
    31   21   22 ar  
    32   21   26 ar  
    33   22   23 ar  
    34   22   46 1   
    35   23   24 ar  
    36   23   47 1   
    37   24   25 ar  
    38   24   48 1   
    39   25   26 ar  
    40   25   27 1   
    41   26   49 1   
    42   27   28 1   
    43   27   30 2   
    44   28   29 1   
    45   28   31 1   
    46   29   50 1   
    47   29   51 1   
    48   29   52 1   
    49   30   32 1   
    50   31   32 1   
    51   31   53 1   
    52   31   54 1   
    53   32   55 1   
    54   32   56 1   
    55   33   34 1   
    56   33   38 1   
    57   34   35 1   
    58   34   57 1   
    59   34   58 1   
    60   35   36 1   
    61   35   37 1   
    62   38   59 1   
    63   38   60 1   
    64   38   61 1   
@<TRIPOS>SUBSTRUCTURE
     1 Z34         1 TEMP              0 ****  ****    0 ROOT
