@<TRIPOS>MOLECULE
Z34
   63    66     1     0     0
SMALL
bcc


@<TRIPOS>ATOM
      1 C1          2.3960    1.1290   -0.6810 ca        1 Z34      0.104600
      2 F1          2.0740    2.1600   -1.4740 f         1 Z34     -0.060900
      3 C2          2.9170   -0.0850   -1.2140 ca        1 Z34     -0.039400
      4 C3          3.3550   -1.0800   -0.3050 ca        1 Z34      0.070600
      5 F2          3.9060   -2.2330   -0.7220 f         1 Z34     -0.090900
      6 C4          3.1510   -0.8530    1.0950 ca        1 Z34      0.604600
      7 N5          2.5280    0.2300    1.6020 nb        1 Z34     -0.655000
      8 C6          2.1620    1.1860    0.7240 ca        1 Z34      0.585600
      9 O11        -0.2770    1.6770   -0.7640 oh        1 Z34     -0.472100
     10 O1          1.4880    2.3160    1.2110 os        1 Z34     -0.326400
     11 C11         0.1570    2.0090    1.5240 ca        1 Z34      0.028100
     12 C12        -0.2420    2.0690    2.8520 ca        1 Z34     -0.054000
     13 C13        -1.5790    1.7930    3.1720 ca        1 Z34     -0.319900
     14 C14        -2.5040    1.4790    2.1630 ca        1 Z34     -0.032000
     15 C15        -2.1080    1.4250    0.8350 ca        1 Z34     -0.198000
     16 C16        -0.7680    1.6920    0.4910 ca        1 Z34      0.218100
     17 C17        -2.0220    1.8270    4.5750 ce        1 Z34      0.602800
     18 N11        -2.9460    2.4890    5.1610 n2        1 Z34     -0.727100
     19 N12        -1.2230    0.8800    5.4310 n4        1 Z34     -0.812600
     20 O2          3.6830   -1.8320    1.9230 os        1 Z34     -0.343400
     21 C21         2.8760   -2.2590    2.9890 ca        1 Z34      0.075100
     22 C22         2.3810   -3.5680    2.9070 ca        1 Z34     -0.092000
     23 C23         1.7220   -4.1020    4.0120 ca        1 Z34     -0.119000
     24 C24         1.5400   -3.3380    5.1650 ca        1 Z34     -0.105000
     25 C25         2.0080   -2.0200    5.2180 ca        1 Z34     -0.132900
     26 C26         2.7040   -1.4730    4.1320 ca        1 Z34     -0.082000
     27 C27         1.8570   -1.2140    6.4440 ce        1 Z34      0.561800
     28 N21         0.5290   -0.8570    6.9590 nh        1 Z34     -0.774600
     29 C30        -0.4200   -1.9310    7.1190 c3        1 Z34      0.135100
     30 N22         2.8710   -0.7120    7.1080 n2        1 Z34     -0.539900
     31 C28         0.8100   -0.1060    8.2040 c3        1 Z34      0.109800
     32 C29         2.3660    0.0150    8.2680 c3        1 Z34      0.069800
     33 N31         2.8170   -0.3320   -2.6550 n4        1 Z34     -0.541800
     34 C32         1.7810   -1.4000   -2.9020 c3        1 Z34     -0.039200
     35 C33         0.3760   -0.8420   -2.4720 c         1 Z34      0.910600
     36 O34         0.1350    0.3440   -2.8400 o         1 Z34     -0.782800
     37 O35        -0.3420   -1.5730   -1.7640 o         1 Z34     -0.782800
     38 C36         4.1190   -0.6330   -3.2890 c3        1 Z34      0.087100
     39 H11        -0.8920    1.2270   -1.3920 ho        1 Z34      0.509000
     40 H12         0.4980    2.3500    3.6170 ha        1 Z34      0.151000
     41 H14        -3.5540    1.2670    2.4230 ha        1 Z34      0.150000
     42 H15        -2.8280    1.1630    0.0420 ha        1 Z34      0.181000
     43 H111       -3.4770    3.1330    4.6110 hn        1 Z34      0.481400
     44 H121       -0.2230    1.0570    5.2740 hn        1 Z34      0.470133
     45 H122       -1.4290   -0.0830    5.1430 hn        1 Z34      0.470133
     46 H22         2.5380   -4.1640    1.9950 ha        1 Z34      0.166000
     47 H23         1.3510   -5.1390    3.9780 ha        1 Z34      0.158000
     48 H24         1.0520   -3.7910    6.0420 ha        1 Z34      0.145000
     49 H26         3.1280   -0.4580    4.1840 ha        1 Z34      0.170000
     50 H301       -0.0650   -2.7530    7.7980 h1        1 Z34      0.050700
     51 H302       -0.6460   -2.3710    6.1110 h1        1 Z34      0.050700
     52 H303       -1.3650   -1.5070    7.5520 h1        1 Z34      0.050700
     53 H281        0.3340    0.9040    8.1130 h1        1 Z34      0.057200
     54 H282        0.4090   -0.6160    9.1170 h1        1 Z34      0.057200
     55 H291        2.6930    1.0860    8.2130 h1        1 Z34      0.091700
     56 H292        2.7810   -0.4400    9.2050 h1        1 Z34      0.091700
     57 H321        2.0410   -2.3200   -2.3190 hx        1 Z34      0.099200
     58 H322        1.7700   -1.6210   -4.0010 hx        1 Z34      0.099200
     59 H361        4.5110   -1.6120   -2.9060 hx        1 Z34      0.100033
     60 H362        4.8510    0.1850   -3.0570 hx        1 Z34      0.100033
     61 H363        3.9650   -0.7010   -4.4000 hx        1 Z34      0.100033
     62 H123       -1.4290    0.9800    6.4320 hn        1 Z34      0.470133
     63 H311        2.4080    0.5310   -3.0840 hn        1 Z34      0.492800
@<TRIPOS>BOND
     1    1    2 1   
     2    1    3 ar  
     3    1    8 ar  
     4    3    4 ar  
     5    3   33 1   
     6    4    5 1   
     7    4    6 ar  
     8    6    7 ar  
     9    6   20 1   
    10    7    8 ar  
    11    8   10 1   
    12    9   16 1   
    13    9   39 1   
    14   10   11 1   
    15   11   12 ar  
    16   11   16 ar  
    17   12   13 ar  
    18   12   40 1   
    19   13   14 ar  
    20   13   17 1   
    21   14   15 ar  
    22   14   41 1   
    23   15   16 ar  
    24   15   42 1   
    25   17   18 2   
    26   17   19 1   
    27   18   43 1   
    28   19   44 1   
    29   19   45 1   
    30   19   62 1   
    31   20   21 1   
    32   21   22 ar  
    33   21   26 ar  
    34   22   23 ar  
    35   22   46 1   
    36   23   24 ar  
    37   23   47 1   
    38   24   25 ar  
    39   24   48 1   
    40   25   26 ar  
    41   25   27 1   
    42   26   49 1   
    43   27   28 1   
    44   27   30 2   
    45   28   29 1   
    46   28   31 1   
    47   29   50 1   
    48   29   51 1   
    49   29   52 1   
    50   30   32 1   
    51   31   32 1   
    52   31   53 1   
    53   31   54 1   
    54   32   55 1   
    55   32   56 1   
    56   33   34 1   
    57   33   38 1   
    58   33   63 1   
    59   34   35 1   
    60   34   57 1   
    61   34   58 1   
    62   35   36 1   
    63   35   37 1   
    64   38   59 1   
    65   38   60 1   
    66   38   61 1   
@<TRIPOS>SUBSTRUCTURE
     1 Z34         1 TEMP              0 ****  ****    0 ROOT
