@<TRIPOS>MOLECULE
Z3E
   29    29     1     0     0
SMALL
bcc


@<TRIPOS>ATOM
      1 C           2.5090   -0.8570    0.6130 c         1 Z3E      0.882600
      2 N           2.6950    0.5860   -1.4760 n3        1 Z3E     -0.894800
      3 O           2.5380   -1.8620   -0.1530 o         1 Z3E     -0.842800
      4 C1         -1.7340   -0.0970    0.0970 ca        1 Z3E     -0.056300
      5 C2         -2.4090   -1.3100    0.2960 ca        1 Z3E     -0.125500
      6 C3         -3.7940   -1.3720    0.1630 ca        1 Z3E     -0.141000
      7 C4         -4.5190   -0.2270   -0.1700 ca        1 Z3E     -0.155000
      8 C5         -3.8520    0.9800   -0.3700 ca        1 Z3E     -0.141000
      9 C6         -2.4650    1.0470   -0.2380 ca        1 Z3E     -0.125500
     10 C7         -0.2490   -0.0820    0.2510 c3        1 Z3E      0.143700
     11 CA          2.6360    0.5670   -0.0230 c3        1 Z3E     -0.004500
     12 CB          1.5340    1.4710    0.5630 c3        1 Z3E      0.147100
     13 OG1         0.2460    1.2280   -0.0270 os        1 Z3E     -0.449600
     14 CG2         1.8120    2.9430    0.3150 c3        1 Z3E     -0.084100
     15 OXT         2.3820   -0.9220    1.8690 o         1 Z3E     -0.842800
     16 H2          3.0800   -0.2960   -1.7760 hn        1 Z3E      0.339300
     17 H           1.7580    0.6340   -1.8370 hn        1 Z3E      0.339300
     18 H8         -1.8330   -2.2110    0.5570 ha        1 Z3E      0.146500
     19 H3         -4.3160   -2.3260    0.3200 ha        1 Z3E      0.115000
     20 H4         -5.6110   -0.2790   -0.2750 ha        1 Z3E      0.112000
     21 H5         -4.4190    1.8840   -0.6330 ha        1 Z3E      0.115000
     22 H6         -1.9330    1.9980   -0.3960 ha        1 Z3E      0.146500
     23 H7          0.0410   -0.4010    1.2930 h1        1 Z3E      0.083700
     24 H7A         0.2280   -0.8020   -0.4740 h1        1 Z3E      0.083700
     25 HA          3.6230    0.9790    0.3420 h1        1 Z3E      0.049700
     26 HB          1.4770    1.2600    1.6690 h1        1 Z3E      0.068700
     27 HG2         1.8340    3.1580   -0.7790 hc        1 Z3E      0.030033
     28 HG2A        1.0180    3.5710    0.7850 hc        1 Z3E      0.030033
     29 HG2B        2.8010    3.2080    0.7580 hc        1 Z3E      0.030033
@<TRIPOS>BOND
     1    1    3 1   
     2    1   11 1   
     3    1   15 1   
     4    2   11 1   
     5    2   16 1   
     6    2   17 1   
     7    4    5 ar  
     8    4    9 ar  
     9    4   10 1   
    10    5    6 ar  
    11    5   18 1   
    12    6    7 ar  
    13    6   19 1   
    14    7    8 ar  
    15    7   20 1   
    16    8    9 ar  
    17    8   21 1   
    18    9   22 1   
    19   10   13 1   
    20   10   23 1   
    21   10   24 1   
    22   11   12 1   
    23   11   25 1   
    24   12   13 1   
    25   12   14 1   
    26   12   26 1   
    27   14   27 1   
    28   14   28 1   
    29   14   29 1   
@<TRIPOS>SUBSTRUCTURE
     1 Z3E         1 TEMP              0 ****  ****    0 ROOT
