@<TRIPOS>MOLECULE
Z3R
   27    29     1     0     0
SMALL
bcc


@<TRIPOS>ATOM
      1 C1          0.0020    0.2800    0.0880 ca        1 Z3R     -0.120000
      2 C2          1.3820    0.0040    0.1030 ca        1 Z3R     -0.091000
      3 C3          2.0520   -0.2220    1.2950 ca        1 Z3R     -0.094000
      4 C4          1.3390   -0.1740    2.4950 ca        1 Z3R     -0.076100
      5 C5         -0.0710    0.1070    2.4870 ca        1 Z3R      0.071400
      6 C6         -0.7320    0.3350    1.2590 ca        1 Z3R     -0.062000
      7 N7         -0.6660    0.1260    3.7500 nc        1 Z3R     -0.493100
      8 C8          0.2560   -0.1290    4.6780 cd        1 Z3R      0.350800
      9 S9          1.8600   -0.4060    4.0830 ss        1 Z3R      0.013900
     10 C10        -0.0400   -0.1870    6.0900 cd        1 Z3R     -0.106900
     11 C11         0.8950   -0.0690    7.1200 cd        1 Z3R     -0.012000
     12 C12         0.2940   -0.1550    8.4220 cc        1 Z3R     -0.733600
     13 S13        -1.3470   -0.3900    8.2260 ss        1 Z3R      0.451200
     14 C14        -1.3400   -0.3690    6.6270 cc        1 Z3R     -0.125100
     15 S15         1.1940   -0.1240    9.6970 sy        1 Z3R      1.557200
     16 O16         0.5680   -0.4630   10.8750 o         1 Z3R     -0.575300
     17 O17         2.5350   -0.3590    9.4990 o         1 Z3R     -0.575300
     18 N18         1.2740    1.8090    9.9430 nz        1 Z3R     -0.781500
     19 H1         -0.4980    0.4540   -0.8780 ha        1 Z3R      0.153000
     20 H2          1.9340   -0.0330   -0.8500 ha        1 Z3R      0.153000
     21 H6         -1.8110    0.5490    1.2470 ha        1 Z3R      0.160000
     22 H3          3.1310   -0.4390    1.2990 ha        1 Z3R      0.152000
     23 H11         1.9770    0.0510    6.9670 ha        1 Z3R      0.195000
     24 H14        -2.2220   -0.4840    5.9770 h4        1 Z3R      0.238000
     25 H181        2.2440    2.1150    9.9540 hn        1 Z3R      0.450133
     26 H182        0.8540    2.0690   10.8310 hn        1 Z3R      0.450133
     27 H183        0.7950    2.3120    9.2050 hn        1 Z3R      0.450133
@<TRIPOS>BOND
     1    1    2 ar  
     2    1    6 ar  
     3    1   19 1   
     4    2    3 ar  
     5    2   20 1   
     6    3    4 ar  
     7    3   22 1   
     8    4    5 ar  
     9    4    9 1   
    10    5    6 ar  
    11    5    7 1   
    12    6   21 1   
    13    7    8 2   
    14    8    9 1   
    15    8   10 1   
    16   10   11 1   
    17   10   14 2   
    18   11   12 2   
    19   11   23 1   
    20   12   13 1   
    21   12   15 1   
    22   13   14 1   
    23   14   24 1   
    24   15   16 2   
    25   15   17 2   
    26   15   18 1   
    27   18   25 1   
    28   18   26 1   
    29   18   27 1   
@<TRIPOS>SUBSTRUCTURE
     1 Z3R         1 TEMP              0 ****  ****    0 ROOT
