@<TRIPOS>MOLECULE
Z3R
   27    29     1     0     0
SMALL
bcc


@<TRIPOS>ATOM
      1 C1          0.0190    0.3080    0.0870 ca        1 Z3R     -0.120000
      2 C2          1.3940    0.0130    0.1040 ca        1 Z3R     -0.091000
      3 C3          2.0580   -0.2280    1.2980 ca        1 Z3R     -0.094000
      4 C4          1.3420   -0.1740    2.4960 ca        1 Z3R     -0.076100
      5 C5         -0.0640    0.1270    2.4850 ca        1 Z3R      0.071400
      6 C6         -0.7180    0.3690    1.2560 ca        1 Z3R     -0.062000
      7 N7         -0.6620    0.1490    3.7460 nc        1 Z3R     -0.493100
      8 C8          0.2530   -0.1230    4.6760 cd        1 Z3R      0.350800
      9 S9          1.8550   -0.4210    4.0840 ss        1 Z3R      0.013900
     10 C10        -0.0470   -0.1830    6.0870 cd        1 Z3R     -0.106900
     11 C11         0.8860   -0.0800    7.1200 cd        1 Z3R     -0.012000
     12 C12         0.2800   -0.1640    8.4200 cc        1 Z3R     -0.733600
     13 S13        -1.3630   -0.3770    8.2180 ss        1 Z3R      0.451200
     14 C14        -1.3510   -0.3510    6.6190 cc        1 Z3R     -0.125100
     15 S15         1.1760   -0.1490    9.6970 sy        1 Z3R      1.557200
     16 O16         0.5420   -0.4840   10.8730 o         1 Z3R     -0.575300
     17 O17         2.5150   -0.3990    9.5030 o         1 Z3R     -0.575300
     18 N18         1.2790    1.7820    9.9510 n4        1 Z3R     -0.781500
     19 H1         -0.4760    0.4930   -0.8800 ha        1 Z3R      0.153000
     20 H2          1.9480   -0.0280   -0.8470 ha        1 Z3R      0.153000
     21 H6         -1.7940    0.5990    1.2420 ha        1 Z3R      0.160000
     22 H3          3.1330   -0.4610    1.3030 ha        1 Z3R      0.152000
     23 H11         1.9690    0.0270    6.9700 ha        1 Z3R      0.195000
     24 H14        -2.2330   -0.4520    5.9660 h4        1 Z3R      0.238000
     25 H181        2.2530    2.0760    9.9660 hn        1 Z3R      0.450133
     26 H182        0.8600    2.0440   10.8390 hn        1 Z3R      0.450133
     27 H183        0.8080    2.2940    9.2140 hn        1 Z3R      0.450133
@<TRIPOS>BOND
     1    1    2 ar  
     2    1    6 ar  
     3    1   19 1   
     4    2    3 ar  
     5    2   20 1   
     6    3    4 ar  
     7    3   22 1   
     8    4    5 ar  
     9    4    9 1   
    10    5    6 ar  
    11    5    7 1   
    12    6   21 1   
    13    7    8 2   
    14    8    9 1   
    15    8   10 1   
    16   10   11 1   
    17   10   14 2   
    18   11   12 2   
    19   11   23 1   
    20   12   13 1   
    21   12   15 1   
    22   13   14 1   
    23   14   24 1   
    24   15   16 2   
    25   15   17 2   
    26   15   18 1   
    27   18   25 1   
    28   18   26 1   
    29   18   27 1   
@<TRIPOS>SUBSTRUCTURE
     1 Z3R         1 TEMP              0 ****  ****    0 ROOT
