@<TRIPOS>MOLECULE
Z3R
   26    28     1     0     0
SMALL
bcc


@<TRIPOS>ATOM
      1 C1         -5.8490    0.5720   -0.1350 ca        1 Z3R     -0.130000
      2 C2         -5.8020   -0.8250    0.0200 ca        1 Z3R     -0.119000
      3 C3         -4.5900   -1.4880    0.1300 ca        1 Z3R     -0.089000
      4 C4         -3.4030   -0.7530    0.0860 ca        1 Z3R     -0.092100
      5 C5         -3.4450    0.6740   -0.0730 ca        1 Z3R      0.086400
      6 C6         -4.6910    1.3270   -0.1830 ca        1 Z3R     -0.076000
      7 N7         -2.1900    1.2950   -0.1040 nc        1 Z3R     -0.527100
      8 C8         -1.2370    0.3780    0.0260 cd        1 Z3R      0.437800
      9 S9         -1.7990   -1.2640    0.1930 ss        1 Z3R     -0.021100
     10 C10         0.1770    0.6570    0.0400 cd        1 Z3R     -0.173900
     11 C11         1.1880   -0.3410    0.0210 cd        1 Z3R     -0.012000
     12 C12         2.4740    0.2120    0.0390 cc        1 Z3R     -0.496600
     13 S13         2.3780    1.8640    0.0900 ss        1 Z3R      0.294200
     14 C14         0.7500    1.9330    0.0740 cc        1 Z3R     -0.145100
     15 S15         3.8170   -0.7810    0.0530 sy        1 Z3R      1.564200
     16 O16         4.8300   -0.1570    0.8110 o         1 Z3R     -0.658300
     17 O17         3.4060   -2.0710    0.4450 o         1 Z3R     -0.658300
     18 N18         4.2770   -0.8140   -1.4820 n3        1 Z3R     -1.026700
     19 H1         -6.8280    1.0690   -0.2190 ha        1 Z3R      0.137000
     20 H2         -6.7430   -1.3950    0.0550 ha        1 Z3R      0.137000
     21 H6         -4.7280    2.4200   -0.3040 ha        1 Z3R      0.151000
     22 H3         -4.5590   -2.5810    0.2530 ha        1 Z3R      0.141000
     23 H11         0.9860   -1.4200    0.0140 ha        1 Z3R      0.183000
     24 H14         0.1630    2.8550    0.0920 h4        1 Z3R      0.201000
     25 H181        3.8860   -1.4170   -2.1600 hn        1 Z3R      0.446800
     26 H182        5.0030   -0.2490   -1.8460 hn        1 Z3R      0.446800
@<TRIPOS>BOND
     1    1    2 ar  
     2    1    6 ar  
     3    1   19 1   
     4    2    3 ar  
     5    2   20 1   
     6    3    4 ar  
     7    3   22 1   
     8    4    5 ar  
     9    4    9 1   
    10    5    6 ar  
    11    5    7 1   
    12    6   21 1   
    13    7    8 2   
    14    8    9 1   
    15    8   10 1   
    16   10   11 1   
    17   10   14 2   
    18   11   12 2   
    19   11   23 1   
    20   12   13 1   
    21   12   15 1   
    22   13   14 1   
    23   14   24 1   
    24   15   16 2   
    25   15   17 2   
    26   15   18 1   
    27   18   25 1   
    28   18   26 1   
@<TRIPOS>SUBSTRUCTURE
     1 Z3R         1 TEMP              0 ****  ****    0 ROOT
