@<TRIPOS>MOLECULE
Z46
   34    31     1     0     0
SMALL
bcc


@<TRIPOS>ATOM
      1 N1         -1.0170   -1.0140   -3.3620 n2        1 Z46     -0.098000
      2 N2          0.4110   -1.0130   -3.3090 n2        1 Z46     -0.098000
      3 C3          0.7820   -0.6140   -2.0840 c1        1 Z46     -0.127000
      4 C4         -0.4380   -0.3450   -1.3090 c1        1 Z46     -0.100000
      5 C5         -1.5030   -0.5960   -2.1100 c1        1 Z46     -0.127000
      6 C6         -2.9580   -0.4160   -1.7370 c1        1 Z46      0.353000
      7 N7         -3.9730   -0.6750   -2.6940 n3        1 Z46     -0.312000
      8 N8         -5.1630   -1.2620   -2.2990 n3        1 Z46     -0.189000
      9 O9         -3.2580   -0.0770   -0.6100 o         1 Z46     -0.369000
     10 C10         2.1940   -0.2770   -1.3980 c2        1 Z46     -0.094000
     11 C11         2.1490    0.3900   -0.1660 c3        1 Z46     -0.150000
     12 C12         1.0460    0.0300    0.7490 c3        1 Z46     -0.104000
     13 C13        -0.2680    0.0850    0.2170 c2        1 Z46     -0.091000
     14 C14         1.1090    1.0470    2.0350 c3        1 Z46     -0.156000
     15 C15         1.6510    0.3060    3.2370 c3        1 Z46     -0.159000
     16 C16         1.8700    1.2810    4.3730 c3        1 Z46     -0.211000
     17 HN2         0.9720   -1.2430   -3.9900 DU        1 Z46      0.276000
     18 HN7        -3.8480   -0.4400   -3.5660 hn        1 Z46      0.254000
     19 HN8        -5.8500   -0.6670   -2.4110 hn        1 Z46      0.142500
     20 HN8A       -5.3190   -2.0080   -2.8070 hn        1 Z46      0.142500
     21 H10         2.7100    0.2750   -2.0220 ha        1 Z46      0.093500
     22 H10A        2.6750   -1.1200   -1.2670 ha        1 Z46      0.093500
     23 H11         2.9940    0.2210    0.3000 hc        1 Z46      0.088000
     24 H11A        2.0880    1.3510   -0.3460 hc        1 Z46      0.088000
     25 H12         1.2050   -0.8800    1.0700 hc        1 Z46      0.093000
     26 H13        -0.8380   -0.4970    0.7610 ha        1 Z46      0.109500
     27 H13A       -0.5930    1.0040    0.3110 ha        1 Z46      0.109500
     28 H14         0.2110    1.3780    2.2330 hc        1 Z46      0.085000
     29 H14A        1.6960    1.8010    1.8260 hc        1 Z46      0.085000
     30 H15         1.0100   -0.3790    3.5140 hc        1 Z46      0.077000
     31 H15A        2.5010   -0.1180    3.0030 hc        1 Z46      0.077000
     32 H16         2.5510    1.9360    4.1150 hc        1 Z46      0.072667
     33 H16A        1.0290    1.7440    4.5730 hc        1 Z46      0.072667
     34 H16B        2.1710    0.7930    5.1680 hc        1 Z46      0.072667
@<TRIPOS>BOND
     1    1    2 1   
     2    1    5 1   
     3    2    3 1   
     4    3    4 1   
     5    4    5 1   
     6    6    7 1   
     7    6    9 1   
     8    7    8 1   
     9    7   18 1   
    10    8   19 1   
    11    8   20 1   
    12   10   11 1   
    13   10   21 1   
    14   10   22 1   
    15   11   12 1   
    16   11   23 1   
    17   11   24 1   
    18   12   13 1   
    19   12   14 1   
    20   12   25 1   
    21   13   26 1   
    22   13   27 1   
    23   14   15 1   
    24   14   28 1   
    25   14   29 1   
    26   15   16 1   
    27   15   30 1   
    28   15   31 1   
    29   16   32 1   
    30   16   33 1   
    31   16   34 1   
@<TRIPOS>SUBSTRUCTURE
     1 Z46         1 TEMP              0 ****  ****    0 ROOT
