@<TRIPOS>MOLECULE
Z46
   34    35     1     0     0
SMALL
bcc


@<TRIPOS>ATOM
      1 N1          2.2960   -1.7170   -0.0650 nc        1 Z46     -0.497800
      2 N2          1.2570   -2.5360   -0.0060 na        1 Z46      0.013400
      3 C3          0.0410   -1.8480    0.0830 cc        1 Z46     -0.124600
      4 C4          0.3630   -0.4750    0.0810 cd        1 Z46     -0.172600
      5 C5          1.8040   -0.4340   -0.0180 cd        1 Z46      0.256800
      6 C6          2.6080    0.8020   -0.0660 c         1 Z46      0.569600
      7 N7          3.9710    0.6860   -0.3740 n         1 Z46     -0.435300
      8 N8          4.8580    1.7140   -0.2760 n3        1 Z46     -0.628800
      9 O9          2.0880    1.9250    0.0980 o         1 Z46     -0.608100
     10 C10        -1.3280   -2.3910    0.1440 c3        1 Z46     -0.008100
     11 C11        -2.2850   -1.2870    0.5790 c3        1 Z46     -0.071400
     12 C12        -2.0340    0.0290   -0.1480 c3        1 Z46     -0.064700
     13 C13        -0.6440    0.5860    0.1760 c3        1 Z46     -0.005100
     14 C14        -3.0910    1.0620    0.2130 c3        1 Z46     -0.077400
     15 C15        -4.3980    0.8300   -0.5150 c3        1 Z46     -0.080400
     16 C16        -5.4190    1.8800   -0.1560 c3        1 Z46     -0.093100
     17 HN2         1.3900   -3.5200   -0.0230 hn        1 Z46      0.325700
     18 HN7         4.4170   -0.2000   -0.2350 hn        1 Z46      0.340500
     19 HN8         4.7380    2.3110   -1.0890 hn        1 Z46      0.347300
     20 HN8A        4.6370    2.2940    0.5300 hn        1 Z46      0.347300
     21 H10        -1.6230   -2.7750   -0.8700 hc        1 Z46      0.054200
     22 H10A       -1.3920   -3.2500    0.8630 hc        1 Z46      0.054200
     23 H11        -3.3350   -1.6280    0.3840 hc        1 Z46      0.048700
     24 H11A       -2.1800   -1.1210    1.6830 hc        1 Z46      0.048700
     25 H12        -2.0810   -0.1670   -1.2560 hc        1 Z46      0.053700
     26 H13        -0.6380    1.0130    1.2160 hc        1 Z46      0.070200
     27 H13A       -0.3890    1.4270   -0.5230 hc        1 Z46      0.070200
     28 H14        -3.2670    1.0470    1.3210 hc        1 Z46      0.045700
     29 H14A       -2.7060    2.0850   -0.0470 hc        1 Z46      0.045700
     30 H15        -4.2180    0.8440   -1.6220 hc        1 Z46      0.037700
     31 H15A       -4.8000   -0.1860   -0.2590 hc        1 Z46      0.037700
     32 H16        -6.3750    1.6930   -0.7020 hc        1 Z46      0.033367
     33 H16A       -5.6300    1.8670    0.9400 hc        1 Z46      0.033367
     34 H16B       -5.0500    2.8980   -0.4290 hc        1 Z46      0.033367
@<TRIPOS>BOND
     1    1    2 1   
     2    1    5 2   
     3    2    3 1   
     4    2   17 1   
     5    3    4 2   
     6    3   10 1   
     7    4    5 1   
     8    4   13 1   
     9    5    6 1   
    10    6    7 1   
    11    6    9 2   
    12    7    8 1   
    13    7   18 1   
    14    8   19 1   
    15    8   20 1   
    16   10   11 1   
    17   10   21 1   
    18   10   22 1   
    19   11   12 1   
    20   11   23 1   
    21   11   24 1   
    22   12   13 1   
    23   12   14 1   
    24   12   25 1   
    25   13   26 1   
    26   13   27 1   
    27   14   15 1   
    28   14   28 1   
    29   14   29 1   
    30   15   16 1   
    31   15   30 1   
    32   15   31 1   
    33   16   32 1   
    34   16   33 1   
    35   16   34 1   
@<TRIPOS>SUBSTRUCTURE
     1 Z46         1 TEMP              0 ****  ****    0 ROOT
