@<TRIPOS>MOLECULE
Z46
   36    36     1     0     0
SMALL
bcc


@<TRIPOS>ATOM
      1 N1        283.0710   -3.0730  156.2840 nc        1 Z46     -0.248700
      2 N2        284.3150   -3.0570  155.9180 na        1 Z46      0.110500
      3 C3        285.2160   -3.3320  156.9700 cd        1 Z46     -0.090300
      4 C4        284.4360   -3.5440  158.1230 cc        1 Z46     -0.017200
      5 C5        283.0650   -3.3730  157.6620 cc        1 Z46     -0.181500
      6 C6        281.9190   -3.4770  158.4040 c1        1 Z46      0.809600
      7 N7      -1179.9680   16.1460 -642.8520 n8        1 Z46     -0.673600
      8 N8      -1181.3430   15.9860 -642.7230 nz        1 Z46     -0.609400
      9 O9        280.9650   -3.5720  159.0570 o         1 Z46     -0.153500
     10 C10       286.6890   -3.4090  156.9200 c3        1 Z46     -0.031200
     11 C11       287.2340   -3.3710  158.3420 c3        1 Z46     -0.082400
     12 C12       286.4720   -4.2880  159.2910 c3        1 Z46     -0.062700
     13 C13       285.0100   -3.8490  159.4380 c3        1 Z46     -0.043200
     14 C14       287.1260   -4.3160  160.6650 c3        1 Z46     -0.080400
     15 C15       288.3610   -5.1930  160.6940 c3        1 Z46     -0.079400
     16 C16       288.9730   -5.2230  162.0710 c3        1 Z46     -0.097100
     17 HN2       284.5590   -2.8600  154.9600 hn        1 Z46      0.374700
     18 HN7     -1179.7450   17.0400 -643.2790 hn        1 Z46      0.429800
     19 HN8     -1181.6940   16.7470 -642.1120 hn        1 Z46      0.474800
     20 HN8A    -1181.8790   15.9930 -643.6080 hn        1 Z46      0.474800
     21 H10       287.1190   -2.5580  156.3260 hc        1 Z46      0.086700
     22 H10A      286.9940   -4.3660  156.4140 hc        1 Z46      0.086700
     23 H11       288.3120   -3.6810  158.3150 hc        1 Z46      0.074200
     24 H11A      287.1960   -2.3190  158.7300 hc        1 Z46      0.074200
     25 H12       286.4820   -5.3300  158.8630 hc        1 Z46      0.066700
     26 H13       284.9590   -2.9310  160.0890 hc        1 Z46      0.082200
     27 H13A      284.4280   -4.6610  159.9510 hc        1 Z46      0.082200
     28 H14       287.3960   -3.2720  160.9750 hc        1 Z46      0.051700
     29 H14A      286.3870   -4.7060  161.4170 hc        1 Z46      0.051700
     30 H15       288.0890   -6.2360  160.3800 hc        1 Z46      0.043200
     31 H15A      289.1160   -4.8110  159.9580 hc        1 Z46      0.043200
     32 H16       289.8820   -5.8720  162.0730 hc        1 Z46      0.043700
     33 H16A      288.2480   -5.6300  162.8180 hc        1 Z46      0.043700
     34 H16B      289.2720   -4.1970  162.3950 hc        1 Z46      0.043700
     35 H72     -1179.5640   15.3940 -643.4010 hn        1 Z46      0.429800
     36 H83     -1181.5130   15.0860 -642.2360 hn        1 Z46      0.474800
@<TRIPOS>BOND
     1    1    2 2   
     2    1    5 1   
     3    2    3 1   
     4    2   17 1   
     5    3    4 2   
     6    3   10 1   
     7    4    5 1   
     8    4   13 1   
     9    5    6 2   
    10    6    9 2   
    11    7    8 1   
    12    7   18 1   
    13    7   35 1   
    14    8   19 1   
    15    8   20 1   
    16    8   36 1   
    17   10   11 1   
    18   10   21 1   
    19   10   22 1   
    20   11   12 1   
    21   11   23 1   
    22   11   24 1   
    23   12   13 1   
    24   12   14 1   
    25   12   25 1   
    26   13   26 1   
    27   13   27 1   
    28   14   15 1   
    29   14   28 1   
    30   14   29 1   
    31   15   16 1   
    32   15   30 1   
    33   15   31 1   
    34   16   32 1   
    35   16   33 1   
    36   16   34 1   
@<TRIPOS>SUBSTRUCTURE
     1 Z46         1 TEMP              0 ****  ****    0 ROOT
