@<TRIPOS>MOLECULE
Z46
   36    36     1     0     0
SMALL
bcc


@<TRIPOS>ATOM
      1 N1        340.7270    3.3960  180.1160 nc        1 Z46     -0.248700
      2 N2        341.5510    3.1780  179.1390 na        1 Z46      0.110500
      3 C3        341.9320    1.8240  179.0160 cd        1 Z46     -0.090300
      4 C4        341.2630    1.1220  180.0370 cc        1 Z46     -0.017200
      5 C5        340.4970    2.1480  180.7310 cc        1 Z46     -0.181500
      6 C6        339.6700    1.9830  181.8090 c1        1 Z46      0.809600
      7 N7      -1411.9360    1.5590 -725.4320 n3        1 Z46     -0.673600
      8 N8      -1412.2450    2.0840 -726.6820 n4        1 Z46     -0.609400
      9 O9        338.9750    1.8120  182.7230 o         1 Z46     -0.153500
     10 C10       342.8360    1.2120  178.0230 c3        1 Z46     -0.031200
     11 C11       343.2220   -0.1830  178.4990 c3        1 Z46     -0.082400
     12 C12       342.0310   -0.9810  179.0130 c3        1 Z46     -0.062700
     13 C13       341.4090   -0.3210  180.2500 c3        1 Z46     -0.043200
     14 C14       342.4370   -2.4070  179.3590 c3        1 Z46     -0.080400
     15 C15       342.5830   -3.2760  178.1260 c3        1 Z46     -0.079400
     16 C16       342.9580   -4.6880  178.4990 c3        1 Z46     -0.097100
     17 HN2       341.8590    3.9400  178.5550 hn        1 Z46      0.374700
     18 HN7     -1411.1890    2.0870 -724.9910 hn        1 Z46      0.429800
     19 HN8     -1412.9720    1.4790 -727.1090 hn        1 Z46      0.474800
     20 HN8A    -1412.5800    3.0620 -726.6860 hn        1 Z46      0.474800
     21 H10       343.7610    1.8330  177.8790 hc        1 Z46      0.086700
     22 H10A      342.3100    1.1500  177.0300 hc        1 Z46      0.086700
     23 H11       343.9950   -0.1020  179.3090 hc        1 Z46      0.074200
     24 H11A      343.6920   -0.7320  177.6390 hc        1 Z46      0.074200
     25 H12       341.2480   -1.0130  178.2040 hc        1 Z46      0.066700
     26 H13       340.4140   -0.7970  180.4640 hc        1 Z46      0.082200
     27 H13A      342.0710   -0.5020  181.1430 hc        1 Z46      0.082200
     28 H14       341.6590   -2.8590  180.0300 hc        1 Z46      0.051700
     29 H14A      343.4030   -2.3950  179.9290 hc        1 Z46      0.051700
     30 H15       343.3690   -2.8470  177.4490 hc        1 Z46      0.043200
     31 H15A      341.6180   -3.2810  177.5530 hc        1 Z46      0.043200
     32 H16       343.0630   -5.3120  177.5780 hc        1 Z46      0.043700
     33 H16A      343.9280   -4.7080  179.0510 hc        1 Z46      0.043700
     34 H16B      342.1740   -5.1470  179.1480 hc        1 Z46      0.043700
     35 H72     -1412.7530    1.5510 -724.8290 hn        1 Z46      0.429800
     36 H83     -1411.3930    2.0190 -727.2710 hn        1 Z46      0.474800
@<TRIPOS>BOND
     1    1    2 2   
     2    1    5 1   
     3    2    3 1   
     4    2   17 1   
     5    3    4 2   
     6    3   10 1   
     7    4    5 1   
     8    4   13 1   
     9    5    6 2   
    10    6    9 2   
    11    7    8 1   
    12    7   18 1   
    13    7   35 1   
    14    8   19 1   
    15    8   20 1   
    16    8   36 1   
    17   10   11 1   
    18   10   21 1   
    19   10   22 1   
    20   11   12 1   
    21   11   23 1   
    22   11   24 1   
    23   12   13 1   
    24   12   14 1   
    25   12   25 1   
    26   13   26 1   
    27   13   27 1   
    28   14   15 1   
    29   14   28 1   
    30   14   29 1   
    31   15   16 1   
    32   15   30 1   
    33   15   31 1   
    34   16   32 1   
    35   16   33 1   
    36   16   34 1   
@<TRIPOS>SUBSTRUCTURE
     1 Z46         1 TEMP              0 ****  ****    0 ROOT
