@<TRIPOS>MOLECULE
Z48
   54    57     1     0     0
SMALL
bcc


@<TRIPOS>ATOM
      1 C1         -1.8820    3.6910    0.0800 c3        1 Z48     -0.033800
      2 C2         -2.6660    2.4600   -0.1250 ca        1 Z48     -0.357900
      3 C3         -4.0750    2.5050   -0.0660 ca        1 Z48      0.457200
      4 N4         -4.8720    1.4420   -0.2240 nb        1 Z48     -0.729000
      5 C5         -4.2280    0.2320   -0.4570 ca        1 Z48      0.862900
      6 N6         -4.9960   -0.9250   -0.7260 nh        1 Z48     -0.702300
      7 C7         -6.3340   -1.0430   -0.2790 ca        1 Z48      0.126600
      8 C8         -7.3400   -0.1690   -0.7390 ca        1 Z48     -0.135500
      9 C9         -8.6620   -0.3600   -0.3430 ca        1 Z48     -0.119500
     10 C10        -9.0100   -1.4170    0.4960 ca        1 Z48     -0.140000
     11 C11        -8.0230   -2.2920    0.9470 ca        1 Z48     -0.119500
     12 C12        -6.6960   -2.1120    0.5720 ca        1 Z48     -0.135500
     13 N13        -2.8530    0.0730   -0.5120 nb        1 Z48     -0.745000
     14 C14        -2.0890    1.1840   -0.3620 ca        1 Z48      0.573800
     15 C15        -0.6480    1.0030   -0.4310 cc        1 Z48     -0.248500
     16 C16         0.3010    1.8990   -0.9700 cd        1 Z48     -0.099300
     17 N17         1.5590    1.3450   -0.8390 na        1 Z48     -0.158100
     18 C19         1.4350    0.0810   -0.2430 cd        1 Z48     -0.206900
     19 C20         0.0740   -0.1560    0.0140 cc        1 Z48     -0.062000
     20 C21         2.5510   -0.8370    0.0530 c         1 Z48      0.692700
     21 O22         2.3590   -2.0640    0.1640 o         1 Z48     -0.592100
     22 N23         3.8280   -0.2860    0.1470 n         1 Z48     -0.543900
     23 C24         4.9510   -1.1150    0.5370 c3        1 Z48      0.138000
     24 C26         5.1590   -1.2080    2.0680 c3        1 Z48      0.102400
     25 O27         5.1300    0.0980    2.6240 oh        1 Z48     -0.614800
     26 C28         6.2200   -0.6530   -0.1380 ca        1 Z48     -0.096300
     27 C29         6.8250    0.5560    0.2180 ca        1 Z48     -0.114500
     28 C30         7.9950    0.9680   -0.4180 ca        1 Z48     -0.135000
     29 C31         8.5650    0.1760   -1.4150 ca        1 Z48     -0.124000
     30 C32         7.9620   -1.0290   -1.7750 ca        1 Z48     -0.135000
     31 C33         6.7900   -1.4420   -1.1420 ca        1 Z48     -0.114500
     32 H1         -1.6190    4.1570   -0.9050 hc        1 Z48      0.042367
     33 H1A        -2.4680    4.4410    0.6690 hc        1 Z48      0.042367
     34 H1B        -0.9330    3.4740    0.6320 hc        1 Z48      0.042367
     35 H3         -4.5980    3.4620    0.1260 h4        1 Z48      0.025100
     36 HN6        -4.4750   -1.7800   -0.6670 hn        1 Z48      0.435800
     37 H8         -7.0920    0.6680   -1.4090 ha        1 Z48      0.143000
     38 H9         -9.4370    0.3320   -0.7050 ha        1 Z48      0.132500
     39 H10       -10.0570   -1.5600    0.8000 ha        1 Z48      0.132000
     40 H11        -8.2910   -3.1300    1.6070 ha        1 Z48      0.132500
     41 H12        -5.9320   -2.8130    0.9420 ha        1 Z48      0.143000
     42 H16         0.1500    2.8730   -1.4410 h4        1 Z48      0.176000
     43 H20        -0.3470   -1.0540    0.4620 ha        1 Z48      0.182000
     44 HN23        3.9060    0.6640    0.4320 hn        1 Z48      0.307500
     45 H24         4.7240   -2.1750    0.1970 h1        1 Z48      0.095700
     46 H26         4.3370   -1.8280    2.5170 h1        1 Z48      0.040200
     47 H26A        6.1500   -1.6920    2.2740 h1        1 Z48      0.040200
     48 HO27        5.2330   -0.0070    3.5760 ho        1 Z48      0.408000
     49 H29         6.3790    1.1710    1.0170 ha        1 Z48      0.143000
     50 H30         8.4680    1.9190   -0.1320 ha        1 Z48      0.132500
     51 H31         9.4880    0.5020   -1.9170 ha        1 Z48      0.132000
     52 H32         8.4090   -1.6540   -2.5620 ha        1 Z48      0.132500
     53 H33         6.3140   -2.3900   -1.4370 ha        1 Z48      0.143000
     54 HN17        2.3950    1.7190   -1.2080 hn        1 Z48      0.305700
@<TRIPOS>BOND
     1    1    2 1   
     2    1   32 1   
     3    1   33 1   
     4    1   34 1   
     5    2    3 ar  
     6    2   14 ar  
     7    3    4 ar  
     8    3   35 1   
     9    4    5 ar  
    10    5    6 1   
    11    5   13 ar  
    12    6    7 1   
    13    6   36 1   
    14    7    8 ar  
    15    7   12 ar  
    16    8    9 ar  
    17    8   37 1   
    18    9   10 ar  
    19    9   38 1   
    20   10   11 ar  
    21   10   39 1   
    22   11   12 ar  
    23   11   40 1   
    24   12   41 1   
    25   13   14 ar  
    26   14   15 1   
    27   15   16 2   
    28   15   19 1   
    29   16   17 1   
    30   16   42 1   
    31   17   18 1   
    32   17   54 1   
    33   18   19 2   
    34   18   20 1   
    35   19   43 1   
    36   20   21 2   
    37   20   22 1   
    38   22   23 1   
    39   22   44 1   
    40   23   24 1   
    41   23   26 1   
    42   23   45 1   
    43   24   25 1   
    44   24   46 1   
    45   24   47 1   
    46   25   48 1   
    47   26   27 ar  
    48   26   31 ar  
    49   27   28 ar  
    50   27   49 1   
    51   28   29 ar  
    52   28   50 1   
    53   29   30 ar  
    54   29   51 1   
    55   30   31 ar  
    56   30   52 1   
    57   31   53 1   
@<TRIPOS>SUBSTRUCTURE
     1 Z48         1 TEMP              0 ****  ****    0 ROOT
