@<TRIPOS>MOLECULE
Z48
   55    58     1     0     0
SMALL
bcc


@<TRIPOS>ATOM
      1 C1         -0.2010    0.1800    0.4280 c3        1 Z48     -0.037800
      2 C2          1.2510   -0.0070    0.2690 ca        1 Z48     -0.356900
      3 C3          2.0760   -0.1250    1.4170 ca        1 Z48      0.474200
      4 N4          3.3980   -0.2860    1.3790 nb        1 Z48     -0.707000
      5 C5          3.9770   -0.3320    0.1080 ca        1 Z48      0.884900
      6 N6          5.3510   -0.5860   -0.0140 nu        1 Z48     -0.702300
      7 C7          6.2490   -0.4200    1.0710 ca        1 Z48      0.112600
      8 C8          6.1300   -1.1940    2.2420 ca        1 Z48     -0.129000
      9 C9          7.0710   -1.0580    3.2610 ca        1 Z48     -0.116500
     10 C10         8.1370   -0.1700    3.1320 ca        1 Z48     -0.126000
     11 C11         8.2650    0.5930    1.9720 ca        1 Z48     -0.116500
     12 C12         7.3320    0.4790    0.9460 ca        1 Z48     -0.129000
     13 N13         3.2650   -0.2030   -1.0750 nb        1 Z48     -0.765000
     14 C14         1.9190   -0.0610   -0.9740 ca        1 Z48      0.537800
     15 C15         1.1940    0.0510   -2.2350 cc        1 Z48     -0.217500
     16 C16        -0.0900   -0.4710   -2.5320 cd        1 Z48     -0.019300
     17 N17        -0.3940   -0.2100   -3.8500 na        1 Z48     -0.172100
     18 C19         0.6770    0.5140   -4.4190 cd        1 Z48     -0.304900
     19 C20         1.6810    0.6700   -3.4210 cc        1 Z48      0.030000
     20 C21         0.8110    0.9940   -5.7620 c         1 Z48      0.599700
     21 O22         1.6890    1.7270   -6.2050 o         1 Z48     -0.451100
     22 N23        -0.2370    0.5160   -6.7530 ny        1 Z48     -0.677800
     23 C24        -0.0630    1.0540   -8.1560 c3        1 Z48      0.155800
     24 C26        -0.6990    2.4600   -8.2790 c3        1 Z48      0.115400
     25 O27        -2.0010    2.4650   -7.7350 oh        1 Z48     -0.615800
     26 C28        -0.6260    0.0820   -9.1470 ca        1 Z48     -0.181300
     27 C29        -1.9800   -0.2780   -9.1180 ca        1 Z48     -0.113500
     28 C30        -2.4870   -1.1660  -10.0630 ca        1 Z48     -0.114500
     29 C31        -1.6460   -1.6980  -11.0440 ca        1 Z48     -0.085000
     30 C32        -0.2980   -1.3410  -11.0750 ca        1 Z48     -0.114500
     31 C33         0.2160   -0.4570  -10.1270 ca        1 Z48     -0.113500
     32 H1         -0.6130    0.8470   -0.3710 hc        1 Z48      0.045367
     33 H1A        -0.4330    0.6450    1.4190 hc        1 Z48      0.045367
     34 H1B        -0.7320   -0.8050    0.3800 hc        1 Z48      0.045367
     35 H3          1.6310   -0.0820    2.4310 h4        1 Z48      0.039100
     36 HN6         5.7440   -0.3900   -0.9130 hn        1 Z48      0.442800
     37 H8          5.3000   -1.9070    2.3630 ha        1 Z48      0.141000
     38 H9          6.9670   -1.6640    4.1740 ha        1 Z48      0.140000
     39 H10         8.8750   -0.0710    3.9420 ha        1 Z48      0.141000
     40 H11         9.1070    1.2940    1.8640 ha        1 Z48      0.140000
     41 H12         7.4500    1.0910    0.0390 ha        1 Z48      0.141000
     42 H16        -0.7780   -1.0220   -1.8800 h4        1 Z48      0.205000
     43 H20         2.6460    1.1630   -3.5580 ha        1 Z48      0.202000
     44 HN23       -0.2120   -0.5080   -6.7890 hn        1 Z48      0.458300
     45 H24         1.0520    1.1750   -8.3310 hx        1 Z48      0.130700
     46 H26        -0.1050    3.1950   -7.6660 h1        1 Z48      0.093200
     47 H26A       -0.6780    2.7600   -9.3580 h1        1 Z48      0.093200
     48 HO27       -2.6350    2.4160   -8.4630 ho        1 Z48      0.435000
     49 H29        -2.6520    0.1520   -8.3580 ha        1 Z48      0.139000
     50 H30        -3.5520   -1.4450  -10.0410 ha        1 Z48      0.159000
     51 H31        -2.0500   -2.3970  -11.7950 ha        1 Z48      0.161000
     52 H32         0.3660   -1.7570  -11.8510 ha        1 Z48      0.159000
     53 H33         1.2820   -0.1800  -10.1610 ha        1 Z48      0.139000
     54 HN17       -1.2730   -0.3670   -4.2690 hn        1 Z48      0.300700
     55 H232       -1.1660    0.8160   -6.4260 hn        1 Z48      0.458300
@<TRIPOS>BOND
     1    1    2 1   
     2    1   32 1   
     3    1   33 1   
     4    1   34 1   
     5    2    3 ar  
     6    2   14 ar  
     7    3    4 ar  
     8    3   35 1   
     9    4    5 ar  
    10    5    6 1   
    11    5   13 ar  
    12    6    7 1   
    13    6   36 1   
    14    7    8 ar  
    15    7   12 ar  
    16    8    9 ar  
    17    8   37 1   
    18    9   10 ar  
    19    9   38 1   
    20   10   11 ar  
    21   10   39 1   
    22   11   12 ar  
    23   11   40 1   
    24   12   41 1   
    25   13   14 ar  
    26   14   15 1   
    27   15   16 2   
    28   15   19 1   
    29   16   17 1   
    30   16   42 1   
    31   17   18 1   
    32   17   54 1   
    33   18   19 2   
    34   18   20 1   
    35   19   43 1   
    36   20   21 2   
    37   20   22 1   
    38   22   23 1   
    39   22   44 1   
    40   22   55 1   
    41   23   24 1   
    42   23   26 1   
    43   23   45 1   
    44   24   25 1   
    45   24   46 1   
    46   24   47 1   
    47   25   48 1   
    48   26   27 ar  
    49   26   31 ar  
    50   27   28 ar  
    51   27   49 1   
    52   28   29 ar  
    53   28   50 1   
    54   29   30 ar  
    55   29   51 1   
    56   30   31 ar  
    57   30   52 1   
    58   31   53 1   
@<TRIPOS>SUBSTRUCTURE
     1 Z48         1 TEMP              0 ****  ****    0 ROOT
