@<TRIPOS>MOLECULE
Z48
   56    59     1     0     0
SMALL
bcc


@<TRIPOS>ATOM
      1 C1          0.3980    2.3580   -0.3180 c3        1 Z48     -0.072800
      2 C2          1.8080    1.9390   -0.2300 ca        1 Z48     -0.237900
      3 C3          2.5610    2.2710    0.9260 ca        1 Z48      0.461200
      4 N4          3.8530    1.9470    1.0840 nb        1 Z48     -0.651000
      5 C5          4.4150    1.2620    0.0320 ca        1 Z48      0.710900
      6 N6          5.8580    0.8860    0.1870 n4        1 Z48     -0.603100
      7 C7          6.0300   -0.2380    1.1150 ca        1 Z48     -0.064400
      8 C8          6.1800   -1.5400    0.6030 ca        1 Z48     -0.092500
      9 C9          6.3880   -2.5920    1.4910 ca        1 Z48     -0.105500
     10 C10         6.4380   -2.3600    2.8670 ca        1 Z48     -0.063000
     11 C11         6.2780   -1.0660    3.3660 ca        1 Z48     -0.105500
     12 C12         6.0690    0.0060    2.5000 ca        1 Z48     -0.092500
     13 N13         3.8040    0.8820   -1.1270 nb        1 Z48     -0.675000
     14 C14         2.4860    1.2240   -1.2540 ca        1 Z48      0.546800
     15 C15         1.8270    0.8430   -2.4910 cc        1 Z48     -0.272500
     16 C16         0.4780    0.4150   -2.6450 cd        1 Z48     -0.014300
     17 N17         0.2450    0.1240   -3.9650 na        1 Z48     -0.138100
     18 C19         1.4240    0.3710   -4.6940 cd        1 Z48     -0.275900
     19 C20         2.4240    0.8090   -3.7850 cc        1 Z48      0.013000
     20 C21         1.6550    0.2180   -6.1090 c         1 Z48      0.591700
     21 O22         2.6470    0.6030   -6.7230 o         1 Z48     -0.434100
     22 N23         0.6360   -0.5150   -6.9440 n4        1 Z48     -0.672800
     23 C24        -0.2550    0.4220   -7.7390 c3        1 Z48      0.168800
     24 C26        -1.3650    1.0310   -6.8540 c3        1 Z48      0.112400
     25 O27        -1.9330    0.0480   -6.0130 oh        1 Z48     -0.651800
     26 C28        -0.8110   -0.3040   -8.9240 ca        1 Z48     -0.199300
     27 C29        -1.6660   -1.4030   -8.7600 ca        1 Z48     -0.108500
     28 C30        -2.1900   -2.0510   -9.8750 ca        1 Z48     -0.110500
     29 C31        -1.8670   -1.6040  -11.1600 ca        1 Z48     -0.072000
     30 C32        -1.0160   -0.5110  -11.3250 ca        1 Z48     -0.110500
     31 C33        -0.4820    0.1370  -10.2110 ca        1 Z48     -0.108500
     32 H1          0.2100    3.2600    0.3200 hc        1 Z48      0.074700
     33 H1A        -0.2730    1.5360    0.0460 hc        1 Z48      0.074700
     34 H1B         0.1170    2.6110   -1.3710 hc        1 Z48      0.074700
     35 H3          2.1020    2.8320    1.7670 h4        1 Z48      0.077100
     36 HN6         6.2440    0.6300   -0.7340 hn        1 Z48      0.478300
     37 H8          6.1430   -1.7410   -0.4800 ha        1 Z48      0.161500
     38 H9          6.5170   -3.6150    1.0990 ha        1 Z48      0.174500
     39 H10         6.6070   -3.2010    3.5620 ha        1 Z48      0.176000
     40 H11         6.3180   -0.8820    4.4540 ha        1 Z48      0.174500
     41 H12         5.9370    1.0220    2.9090 ha        1 Z48      0.161500
     42 H16        -0.3000    0.2920   -1.8820 h4        1 Z48      0.208000
     43 H20         3.4510    1.0690   -4.0500 ha        1 Z48      0.197000
     44 HN23        1.1410   -1.1070   -7.6230 hn        1 Z48      0.466300
     45 H24         0.4100    1.2710   -8.0920 hx        1 Z48      0.124700
     46 H26        -2.1230    1.5120   -7.5260 h1        1 Z48      0.093200
     47 H26A       -0.9250    1.8060   -6.1670 h1        1 Z48      0.093200
     48 HO27       -2.7950   -0.2080   -6.3710 ho        1 Z48      0.456000
     49 H29        -1.9330   -1.7540   -7.7510 ha        1 Z48      0.136500
     50 H30        -2.8630   -2.9140   -9.7460 ha        1 Z48      0.166000
     51 H31        -2.2880   -2.1160  -12.0420 ha        1 Z48      0.170000
     52 H32        -0.7620   -0.1570  -12.3380 ha        1 Z48      0.166000
     53 H33         0.1890    0.9990  -10.3540 ha        1 Z48      0.136500
     54 HN17       -0.6410   -0.1180   -4.3490 hn        1 Z48      0.340700
     55 H62         6.3670    1.7050    0.5540 hn        1 Z48      0.478300
     56 H232        0.0380   -1.1170   -6.3690 hn        1 Z48      0.466300
@<TRIPOS>BOND
     1    1    2 1   
     2    1   32 1   
     3    1   33 1   
     4    1   34 1   
     5    2    3 ar  
     6    2   14 ar  
     7    3    4 ar  
     8    3   35 1   
     9    4    5 ar  
    10    5    6 1   
    11    5   13 ar  
    12    6    7 1   
    13    6   36 1   
    14    6   55 1   
    15    7    8 ar  
    16    7   12 ar  
    17    8    9 ar  
    18    8   37 1   
    19    9   10 ar  
    20    9   38 1   
    21   10   11 ar  
    22   10   39 1   
    23   11   12 ar  
    24   11   40 1   
    25   12   41 1   
    26   13   14 ar  
    27   14   15 1   
    28   15   16 2   
    29   15   19 1   
    30   16   17 1   
    31   16   42 1   
    32   17   18 1   
    33   17   54 1   
    34   18   19 2   
    35   18   20 1   
    36   19   43 1   
    37   20   21 2   
    38   20   22 1   
    39   22   23 1   
    40   22   44 1   
    41   22   56 1   
    42   23   24 1   
    43   23   26 1   
    44   23   45 1   
    45   24   25 1   
    46   24   46 1   
    47   24   47 1   
    48   25   48 1   
    49   26   27 ar  
    50   26   31 ar  
    51   27   28 ar  
    52   27   49 1   
    53   28   29 ar  
    54   28   50 1   
    55   29   30 ar  
    56   29   51 1   
    57   30   31 ar  
    58   30   52 1   
    59   31   53 1   
@<TRIPOS>SUBSTRUCTURE
     1 Z48         1 TEMP              0 ****  ****    0 ROOT
