@<TRIPOS>MOLECULE
Z57
   35    33     1     0     0
SMALL
bcc


@<TRIPOS>ATOM
      1 C1         -1.5920   -1.1180    0.5610 c1        1 Z57      0.057600
      2 O1         -2.2980   -1.1840   -0.6570 oh        1 Z57     -0.511600
      3 C2         -0.1670   -1.0070    0.5550 c1        1 Z57     -0.048100
      4 C3          0.5270   -0.9220    1.7620 c1        1 Z57     -0.064500
      5 C4         -0.1600   -0.9460    2.9560 c1        1 Z57      0.132600
      6 O4          0.5730   -0.9580    4.2170 oh        1 Z57     -0.469600
      7 C5         -1.5800   -1.0570    2.9580 c1        1 Z57     -0.002200
      8 BR5        -2.5270   -0.9080    4.5790 br        1 Z57     -0.175800
      9 C6         -2.2760   -1.1420    1.7570 c1        1 Z57     -0.035500
     10 C1'         0.6270   -1.2220   -0.7870 c3        1 Z57      0.157200
     11 C2'        -0.2100   -0.8170   -1.8850 c3        1 Z57      0.110100
     12 O2'         0.4790   -1.2660   -3.2180 oh        1 Z57     -0.602800
     13 C3'        -0.4420    0.5500   -1.9530 c3        1 Z57      0.081100
     14 O3'        -1.2990    0.9340   -0.8170 oh        1 Z57     -0.608800
     15 C4'         0.8360    1.3840   -1.9080 c3        1 Z57      0.096100
     16 O4'         1.5610    1.1300   -3.0580 oh        1 Z57     -0.591800
     17 C5'         1.7670    1.0820   -0.6500 c3        1 Z57      0.074100
     18 O5'         1.9120   -0.4760   -0.6990 os        1 Z57     -0.397600
     19 C6'         1.1830    1.4660    0.4820 c3        1 Z57      0.104400
     20 O6'         2.1630    1.5920    1.4980 oh        1 Z57     -0.581800
     21 HO1        -3.1340   -1.0620   -0.5110 ho        1 Z57      0.435000
     22 H3          1.5340   -0.8400    1.7600 ha        1 Z57      0.115500
     23 HO4         0.3240   -0.2310    4.7260 ho        1 Z57      0.430000
     24 H6         -3.2570   -1.2210    1.7620 ha        1 Z57      0.102500
     25 H1'         0.8310   -2.2010   -0.8840 h1        1 Z57      0.107700
     26 H2'        -1.0950   -1.2910   -1.8050 h1        1 Z57      0.097700
     27 HO2'       -0.0680   -1.8670   -3.6630 ho        1 Z57      0.411000
     28 H3'        -0.9150    0.7490   -2.7830 h1        1 Z57      0.053700
     29 HO3'       -1.8510    1.5390   -1.0680 ho        1 Z57      0.415000
     30 H4'         0.5980    2.3090   -1.8960 h1        1 Z57      0.076700
     31 HO4'        1.8510    1.9510   -3.4390 ho        1 Z57      0.431000
     32 H5'         2.6140    1.5020   -0.7510 h1        1 Z57      0.088700
     33 H6'         0.7550    2.2980    0.3510 h1        1 Z57      0.055700
     34 H6'A        0.5180    0.7940    0.7510 h1        1 Z57      0.055700
     35 HO6'        2.2190    2.4560    1.7570 ho        1 Z57      0.398000
@<TRIPOS>BOND
     1    1    2 1   
     2    1    9 3   
     3    2   21 1   
     4    3    4 3   
     5    3   10 1   
     6    4   22 1   
     7    5    6 1   
     8    5    7 3   
     9    6   23 1   
    10    7    8 1   
    11    9   24 1   
    12   10   11 1   
    13   10   18 1   
    14   10   25 1   
    15   11   12 1   
    16   11   13 1   
    17   11   26 1   
    18   12   27 1   
    19   13   14 1   
    20   13   15 1   
    21   13   28 1   
    22   14   29 1   
    23   15   16 1   
    24   15   17 1   
    25   15   30 1   
    26   16   31 1   
    27   17   18 1   
    28   17   19 1   
    29   17   32 1   
    30   19   20 1   
    31   19   33 1   
    32   19   34 1   
    33   20   35 1   
@<TRIPOS>SUBSTRUCTURE
     1 Z57         1 TEMP              0 ****  ****    0 ROOT
