@<TRIPOS>MOLECULE
Z57
   35    36     1     0     0
SMALL
bcc


@<TRIPOS>ATOM
      1 C1          0.8880   -0.9810   -1.0140 ca        1 Z57      0.111100
      2 O1          0.4850   -1.9130   -1.9450 oh        1 Z57     -0.509100
      3 C2         -0.0130   -0.1800   -0.2830 ca        1 Z57     -0.102300
      4 C3          0.4910    0.7650    0.6050 ca        1 Z57     -0.106000
      5 C4          1.8800    0.9300    0.7540 ca        1 Z57      0.123100
      6 O4          2.2550    1.8950    1.6590 oh        1 Z57     -0.492100
      7 C5          2.7760    0.1410    0.0130 ca        1 Z57     -0.079900
      8 BR5         4.6350    0.3300    0.1700 br        1 Z57     -0.081100
      9 C6          2.2710   -0.8190   -0.8660 ca        1 Z57     -0.100000
     10 C1'        -1.4930   -0.3310   -0.4740 c3        1 Z57      0.193400
     11 C2'        -2.0900   -1.3910    0.4790 c3        1 Z57      0.123100
     12 O2'        -1.5830   -2.6510    0.0740 oh        1 Z57     -0.614800
     13 C3'        -3.6230   -1.3970    0.3610 c3        1 Z57      0.068100
     14 O3'        -4.0960   -2.2830    1.3640 oh        1 Z57     -0.604800
     15 C4'        -4.1750    0.0190    0.5820 c3        1 Z57      0.085100
     16 O4'        -5.5680    0.0390    0.3130 oh        1 Z57     -0.590800
     17 C5'        -3.4950    0.9750   -0.4090 c3        1 Z57      0.099100
     18 O5'        -2.0820    0.9450   -0.2010 os        1 Z57     -0.414600
     19 C6'        -3.9190    2.4260   -0.1630 c3        1 Z57      0.141400
     20 O6'        -3.4250    3.2790   -1.1710 oh        1 Z57     -0.591800
     21 HO1        -0.3210   -2.3390   -1.6130 ho        1 Z57      0.441000
     22 H3         -0.1890    1.4070    1.1860 ha        1 Z57      0.168000
     23 HO4         3.2240    1.9410    1.6750 ho        1 Z57      0.430000
     24 H6          2.9440   -1.4560   -1.4610 ha        1 Z57      0.166000
     25 H1'        -1.7190   -0.6220   -1.5410 h1        1 Z57      0.067700
     26 H2'        -1.7900   -1.1730    1.5400 h1        1 Z57      0.072700
     27 HO2'       -1.9570   -3.3050    0.6790 ho        1 Z57      0.433000
     28 H3'        -3.9280   -1.7690   -0.6570 h1        1 Z57      0.066700
     29 HO3'       -5.0220   -2.4620    1.1600 ho        1 Z57      0.412000
     30 H4'        -3.9690    0.3470    1.6380 h1        1 Z57      0.065700
     31 HO4'       -6.0040   -0.3020    1.1030 ho        1 Z57      0.408000
     32 H5'        -3.7350    0.6740   -1.4660 h1        1 Z57      0.073700
     33 H6'        -5.0380    2.4960   -0.2310 h1        1 Z57      0.062700
     34 H6'A       -3.5650    2.7620    0.8470 h1        1 Z57      0.062700
     35 HO6'       -2.4610    3.2120   -1.1530 ho        1 Z57      0.413000
@<TRIPOS>BOND
     1    1    2 1   
     2    1    3 ar  
     3    1    9 ar  
     4    2   21 1   
     5    3    4 ar  
     6    3   10 1   
     7    4    5 ar  
     8    4   22 1   
     9    5    6 1   
    10    5    7 ar  
    11    6   23 1   
    12    7    8 1   
    13    7    9 ar  
    14    9   24 1   
    15   10   11 1   
    16   10   18 1   
    17   10   25 1   
    18   11   12 1   
    19   11   13 1   
    20   11   26 1   
    21   12   27 1   
    22   13   14 1   
    23   13   15 1   
    24   13   28 1   
    25   14   29 1   
    26   15   16 1   
    27   15   17 1   
    28   15   30 1   
    29   16   31 1   
    30   17   18 1   
    31   17   19 1   
    32   17   32 1   
    33   19   20 1   
    34   19   33 1   
    35   19   34 1   
    36   20   35 1   
@<TRIPOS>SUBSTRUCTURE
     1 Z57         1 TEMP              0 ****  ****    0 ROOT
