@<TRIPOS>MOLECULE
Z57
   35    36     1     0     0
SMALL
bcc


@<TRIPOS>ATOM
      1 C1          0.1150   -0.0890   -0.0060 ca        1 Z57      0.084100
      2 O1         -0.5480   -0.1990   -1.2120 oh        1 Z57     -0.506100
      3 C2          1.5180    0.0690   -0.0630 ca        1 Z57     -0.074300
      4 C3          2.2210    0.2130    1.1260 ca        1 Z57     -0.097000
      5 C4          1.5440    0.1980    2.3620 ca        1 Z57      0.129100
      6 O4          2.3520    0.3520    3.4620 oh        1 Z57     -0.485100
      7 C5          0.1510    0.0360    2.4120 ca        1 Z57     -0.076900
      8 Br5        -0.7960    0.0040    4.0270 br        1 Z57     -0.073100
      9 C6         -0.5600   -0.1070    1.2160 ca        1 Z57     -0.150000
     10 C1'         2.2240    0.0620   -1.3870 c3        1 Z57      0.165400
     11 C2'         2.3730    1.4880   -1.9570 c3        1 Z57      0.088100
     12 O2'         1.1350    2.0280   -2.3910 oh        1 Z57     -0.606800
     13 C3'         3.2650    1.4740   -3.2100 c3        1 Z57      0.106100
     14 O3'         3.6010    2.7940   -3.6030 oh        1 Z57     -0.607800
     15 C4'         4.5920    0.7570   -2.9170 c3        1 Z57      0.123100
     16 O4'         5.3350    0.5780   -4.1100 oh        1 Z57     -0.595800
     17 C5'         4.2940   -0.6380   -2.3500 c3        1 Z57      0.099100
     18 O5'         3.5130   -0.5170   -1.1590 os        1 Z57     -0.420600
     19 C6'         5.5830   -1.3490   -1.9290 c3        1 Z57      0.140400
     20 O6'         5.3300   -2.6820   -1.5460 oh        1 Z57     -0.594800
     21 HO1        -1.4680   -0.4400   -1.0280 ho        1 Z57      0.429000
     22 H3          3.3170    0.3260    1.1150 ha        1 Z57      0.177000
     23 HO4         1.8000    0.3150    4.2600 ho        1 Z57      0.432000
     24 H6         -1.6530   -0.2380    1.2330 ha        1 Z57      0.153000
     25 H1'         1.6510   -0.5720   -2.1240 h1        1 Z57      0.080700
     26 H2'         2.8180    2.1660   -1.1760 h1        1 Z57      0.065700
     27 HO2'        0.4560    1.7590   -1.7590 ho        1 Z57      0.425000
     28 H3'         2.7240    0.9590   -4.0520 h1        1 Z57      0.064700
     29 HO3'        2.7680    3.2710   -3.7120 ho        1 Z57      0.428000
     30 H4'         5.1930    1.3600   -2.1810 h1        1 Z57      0.061700
     31 HO4'        5.4140    1.4530   -4.5140 ho        1 Z57      0.425000
     32 H5'         3.7390   -1.2560   -3.1090 h1        1 Z57      0.072700
     33 H6'         6.0760   -0.7850   -1.0930 h1        1 Z57      0.064700
     34 H6'A        6.2690   -1.4140   -2.8160 h1        1 Z57      0.064700
     35 HO6'        4.7100   -2.6510   -0.8060 ho        1 Z57      0.410000
@<TRIPOS>BOND
     1    1    2 1   
     2    1    3 ar  
     3    1    9 ar  
     4    2   21 1   
     5    3    4 ar  
     6    3   10 1   
     7    4    5 ar  
     8    4   22 1   
     9    5    6 1   
    10    5    7 ar  
    11    6   23 1   
    12    7    8 1   
    13    7    9 ar  
    14    9   24 1   
    15   10   11 1   
    16   10   18 1   
    17   10   25 1   
    18   11   12 1   
    19   11   13 1   
    20   11   26 1   
    21   12   27 1   
    22   13   14 1   
    23   13   15 1   
    24   13   28 1   
    25   14   29 1   
    26   15   16 1   
    27   15   17 1   
    28   15   30 1   
    29   16   31 1   
    30   17   18 1   
    31   17   19 1   
    32   17   32 1   
    33   19   20 1   
    34   19   33 1   
    35   19   34 1   
    36   20   35 1   
@<TRIPOS>SUBSTRUCTURE
     1 Z57         1 TEMP              0 ****  ****    0 ROOT
