@<TRIPOS>MOLECULE
Z59
   48    50     1     0     0
SMALL
bcc


@<TRIPOS>ATOM
      1 C1         -1.2560   -0.1850   -1.9470 c         1 Z59      0.619100
      2 N2         -1.2060    0.7960   -0.9650 n         1 Z59     -0.451800
      3 C3          0.0500   -0.8460   -2.4120 c3        1 Z59      0.053100
      4 C4          0.1820   -2.2240   -1.7180 c3        1 Z59      0.048100
      5 C5         -2.4510    1.4460   -0.5270 c3        1 Z59      0.131000
      6 C6          1.3490   -2.1950   -0.7230 c         1 Z59      0.624100
      7 C7         -3.0180    0.8020    0.7130 ca        1 Z59     -0.091300
      8 N8          1.1070   -1.6710    0.5280 n         1 Z59     -0.550900
      9 S9          4.1940    0.3640    1.4820 ss        1 Z59      0.073200
     10 C10         2.6100   -0.1250    1.7170 cc        1 Z59     -0.165400
     11 O11        -2.3380   -0.6120   -2.3950 o         1 Z59     -0.591100
     12 C12        -2.3810    0.9370    1.9510 ca        1 Z59     -0.115500
     13 C13         3.9010    1.9360    1.9410 cc        1 Z59     -0.178100
     14 O14         2.4510   -2.6780   -1.0530 o         1 Z59     -0.603100
     15 C15         1.8220    0.9270    2.1500 cd        1 Z59     -0.162000
     16 C16         2.5770    2.1320    2.2800 cd        1 Z59     -0.161000
     17 O17         0.0160   -1.0100   -3.8100 oh        1 Z59     -0.574800
     18 C18         2.1490   -1.5230    1.5100 c3        1 Z59      0.161300
     19 O19         0.3970   -3.2200   -2.6890 oh        1 Z59     -0.570800
     20 C20        -0.0780    1.7080   -0.8500 c3        1 Z59      0.070000
     21 C21        -2.9290    0.3490    3.0900 ca        1 Z59     -0.133500
     22 C23        -2.1230    2.9390   -0.2880 c3        1 Z59     -0.091400
     23 C24        -4.2010    0.0600    0.6220 ca        1 Z59     -0.115500
     24 C25        -0.6090    3.0710   -0.3780 c3        1 Z59     -0.091400
     25 C26        -4.7470   -0.5250    1.7640 ca        1 Z59     -0.133500
     26 C27        -4.1140   -0.3800    2.9980 ca        1 Z59     -0.124000
     27 H3          0.9560   -0.2060   -2.2260 h1        1 Z59      0.096700
     28 H4         -0.7830   -2.5240   -1.2190 h1        1 Z59      0.113700
     29 H5         -3.2180    1.3560   -1.3550 h1        1 Z59      0.082700
     30 HN8         0.2720   -1.1520    0.6750 hn        1 Z59      0.320500
     31 H12        -1.4450    1.5120    2.0200 ha        1 Z59      0.136500
     32 H13         4.6760    2.7010    1.9650 h4        1 Z59      0.174000
     33 H15         0.7560    0.8590    2.3780 ha        1 Z59      0.152000
     34 H16         2.1450    3.0770    2.6120 ha        1 Z59      0.153000
     35 HO17       -0.7170   -1.6130   -4.0160 ho        1 Z59      0.436000
     36 H18         1.7440   -1.9110    2.4930 h1        1 Z59      0.075700
     37 H18A        3.0230   -2.1740    1.2090 h1        1 Z59      0.075700
     38 HO19        1.2900   -3.0990   -3.0470 ho        1 Z59      0.433000
     39 H20         0.6470    1.2870   -0.0960 h1        1 Z59      0.054200
     40 H20A        0.4580    1.8210   -1.8320 h1        1 Z59      0.054200
     41 H21        -2.4260    0.4620    4.0610 ha        1 Z59      0.133000
     42 H23        -2.6230    3.5600   -1.0710 hc        1 Z59      0.060700
     43 H23A       -2.5020    3.2730    0.7090 hc        1 Z59      0.060700
     44 H24        -4.6940   -0.0710   -0.3540 ha        1 Z59      0.136500
     45 H25        -0.1700    3.3260    0.6190 hc        1 Z59      0.055200
     46 H25A       -0.3150    3.8740   -1.0970 hc        1 Z59      0.055200
     47 H26        -5.6790   -1.1060    1.6880 ha        1 Z59      0.133000
     48 H27        -4.5470   -0.8430    3.8970 ha        1 Z59      0.133000
@<TRIPOS>BOND
     1    1    2 1   
     2    1    3 1   
     3    1   11 2   
     4    2    5 1   
     5    2   20 1   
     6    3    4 1   
     7    3   17 1   
     8    3   27 1   
     9    4    6 1   
    10    4   19 1   
    11    4   28 1   
    12    5    7 1   
    13    5   22 1   
    14    5   29 1   
    15    6    8 1   
    16    6   14 2   
    17    7   12 ar  
    18    7   23 ar  
    19    8   18 1   
    20    8   30 1   
    21    9   10 1   
    22    9   13 1   
    23   10   15 2   
    24   10   18 1   
    25   12   21 ar  
    26   12   31 1   
    27   13   16 2   
    28   13   32 1   
    29   15   16 1   
    30   15   33 1   
    31   16   34 1   
    32   17   35 1   
    33   18   36 1   
    34   18   37 1   
    35   19   38 1   
    36   20   24 1   
    37   20   39 1   
    38   20   40 1   
    39   21   26 ar  
    40   21   41 1   
    41   22   24 1   
    42   22   42 1   
    43   22   43 1   
    44   23   25 ar  
    45   23   44 1   
    46   24   45 1   
    47   24   46 1   
    48   25   26 ar  
    49   25   47 1   
    50   26   48 1   
@<TRIPOS>SUBSTRUCTURE
     1 Z59         1 TEMP              0 ****  ****    0 ROOT
