@<TRIPOS>MOLECULE
Z59
   49    51     1     0     0
SMALL
bcc


@<TRIPOS>ATOM
      1 C1          0.1670    0.6290    0.1300 c         1 Z59      0.633100
      2 N2         -0.7400    1.4330    0.7460 n         1 Z59     -0.426800
      3 C3          1.6770    0.9050    0.2680 c3        1 Z59      0.033100
      4 C4          2.2700   -0.2000    1.1750 c3        1 Z59      0.061100
      5 C5         -2.1890    1.1800    0.6520 c3        1 Z59      0.149000
      6 C6          3.7370    0.1340    1.4500 c         1 Z59      0.548100
      7 C7         -2.6590    0.1400    1.6340 ca        1 Z59     -0.120300
      8 N8          4.6680   -0.1760    0.3140 n4        1 Z59     -0.674800
      9 S9          7.2810    1.8760   -1.2470 ss        1 Z59      0.122200
     10 C10         6.5020    1.4740    0.1820 cc        1 Z59     -0.276400
     11 O11        -0.1390   -0.3950   -0.5270 o         1 Z59     -0.627100
     12 C12        -2.6470    0.3960    3.0100 ca        1 Z59     -0.111500
     13 C13         7.4100    3.4800   -0.8610 cc        1 Z59     -0.130100
     14 O14         4.1740    0.6350    2.4720 o         1 Z59     -0.407100
     15 C15         6.3430    2.5940    0.9950 cd        1 Z59     -0.091000
     16 C16         6.8680    3.7630    0.3820 cd        1 Z59     -0.158000
     17 O17         2.3030    0.8390   -0.9960 oh        1 Z59     -0.614800
     18 C18         6.1240    0.1100    0.5700 c3        1 Z59      0.224100
     19 O19         2.2630   -1.4580    0.5290 oh        1 Z59     -0.626800
     20 C20        -0.4570    2.7760    1.2240 c3        1 Z59      0.080000
     21 C21        -3.1110   -0.5670    3.9050 ca        1 Z59     -0.130500
     22 C23        -2.8790    2.5420    0.8930 c3        1 Z59     -0.090400
     23 C24        -3.1300   -1.0890    1.1630 ca        1 Z59     -0.111500
     24 C25        -1.8020    3.5030    1.3830 c3        1 Z59     -0.089400
     25 C26        -3.5970   -2.0490    2.0610 ca        1 Z59     -0.130500
     26 C27        -3.5880   -1.7890    3.4310 ca        1 Z59     -0.111000
     27 H3          1.9150    1.9260    0.6760 h1        1 Z59      0.111700
     28 H4          1.7280   -0.2490    2.1630 h1        1 Z59      0.124700
     29 H5         -2.4090    0.8130   -0.3960 h1        1 Z59      0.085700
     30 HN8         4.3350    0.3720   -0.5000 hn        1 Z59      0.479300
     31 H12        -2.2800    1.3640    3.3820 ha        1 Z59      0.136000
     32 H13         7.8790    4.2160   -1.5180 h4        1 Z59      0.198000
     33 H15         5.8840    2.5820    1.9890 ha        1 Z59      0.169000
     34 H16         6.8490    4.7520    0.8490 ha        1 Z59      0.180000
     35 HO17        1.8310    0.1810   -1.5370 ho        1 Z59      0.456000
     36 H18         6.3150   -0.0550    1.6720 hx        1 Z59      0.111700
     37 H18A        6.7100   -0.6550   -0.0190 hx        1 Z59      0.111700
     38 HO19        1.3400   -1.6730    0.2960 ho        1 Z59      0.486000
     39 H20         0.0800    2.7150    2.2110 h1        1 Z59      0.049200
     40 H20A        0.2010    3.3240    0.4940 h1        1 Z59      0.049200
     41 H21        -3.1060   -0.3590    4.9860 ha        1 Z59      0.142500
     42 H23        -3.7010    2.4380    1.6430 hc        1 Z59      0.074700
     43 H23A       -3.3300    2.9060   -0.0640 hc        1 Z59      0.074700
     44 H24        -3.1310   -1.3020    0.0820 ha        1 Z59      0.136000
     45 H25        -1.8040    4.4490    0.7890 hc        1 Z59      0.068200
     46 H25A       -1.9670    3.7700    2.4570 hc        1 Z59      0.068200
     47 H26        -3.9760   -3.0110    1.6850 ha        1 Z59      0.142500
     48 H27        -3.9620   -2.5460    4.1380 ha        1 Z59      0.143000
     49 H82         4.5400   -1.1750    0.0940 hn        1 Z59      0.479300
@<TRIPOS>BOND
     1    1    2 1   
     2    1    3 1   
     3    1   11 2   
     4    2    5 1   
     5    2   20 1   
     6    3    4 1   
     7    3   17 1   
     8    3   27 1   
     9    4    6 1   
    10    4   19 1   
    11    4   28 1   
    12    5    7 1   
    13    5   22 1   
    14    5   29 1   
    15    6    8 1   
    16    6   14 2   
    17    7   12 ar  
    18    7   23 ar  
    19    8   18 1   
    20    8   30 1   
    21    8   49 1   
    22    9   10 1   
    23    9   13 1   
    24   10   15 2   
    25   10   18 1   
    26   12   21 ar  
    27   12   31 1   
    28   13   16 2   
    29   13   32 1   
    30   15   16 1   
    31   15   33 1   
    32   16   34 1   
    33   17   35 1   
    34   18   36 1   
    35   18   37 1   
    36   19   38 1   
    37   20   24 1   
    38   20   39 1   
    39   20   40 1   
    40   21   26 ar  
    41   21   41 1   
    42   22   24 1   
    43   22   42 1   
    44   22   43 1   
    45   23   25 ar  
    46   23   44 1   
    47   24   45 1   
    48   24   46 1   
    49   25   26 ar  
    50   25   47 1   
    51   26   48 1   
@<TRIPOS>SUBSTRUCTURE
     1 Z59         1 TEMP              0 ****  ****    0 ROOT
