@<TRIPOS>MOLECULE
Z59
   48    43     1     0     0
SMALL
bcc


@<TRIPOS>ATOM
      1 C1         -0.6270    0.5380    0.7250 c1        1 Z59      0.317000
      2 N2         -1.3000    1.6210    1.3950 n2        1 Z59     -0.301000
      3 C3          0.9110    0.4420    0.7750 c3        1 Z59     -0.005000
      4 C4          1.3490   -0.9760    0.4290 c3        1 Z59     -0.006000
      5 C5         -2.8620    1.9680    1.3280 c3        1 Z59      0.060000
      6 C6          2.8320   -0.9940    0.1660 c2        1 Z59      0.299000
      7 C7         -3.6800    0.6980    0.9290 c2        1 Z59     -0.087000
      8 N8          3.3410   -1.6930   -0.9510 n         1 Z59     -0.334000
      9 S9          4.8370   -1.8050   -4.0700 ss        1 Z59      0.599000
     10 C10         5.0240   -2.2950   -2.6110 c1        1 Z59     -0.437000
     11 O11        -1.2670   -0.2330    0.0120 o         1 Z59     -0.389000
     12 C12        -4.5550   -0.0080    1.7710 c1        1 Z59     -0.114000
     13 C13         5.7890   -2.6450   -4.9750 c1        1 Z59     -0.437000
     14 O14         3.5770   -0.4600    0.9230 o         1 Z59     -0.391000
     15 C15         6.0190   -3.3580   -2.6210 c1        1 Z59     -0.151500
     16 C16         6.5030   -3.5780   -4.1260 c1        1 Z59     -0.151500
     17 O17         1.4590    1.3300   -0.1370 oh        1 Z59     -0.319000
     18 C18         4.5390   -1.2280   -1.6070 c2        1 Z59      0.032000
     19 O19         0.6640   -1.4140   -0.7230 oh        1 Z59     -0.330000
     20 C20        -0.7660    2.4990    2.1650 c3        1 Z59     -0.039000
     21 C21        -5.8360   -0.3330    1.3300 c1        1 Z59     -0.130500
     22 C23        -3.1930    2.3570    2.4990 c3        1 Z59     -0.169000
     23 C24        -4.0900    1.0710   -0.3380 c2        1 Z59     -0.107000
     24 C25        -1.8910    2.9380    3.1100 c3        1 Z59     -0.171000
     25 C26        -5.3830    0.7430   -0.7820 c1        1 Z59     -0.134000
     26 C27        -6.2500    0.0430    0.0530 c1        1 Z59     -0.130500
     27 H3          1.2170    0.6630    1.6620 h1        1 Z59      0.118000
     28 H4          1.1480   -1.5610    1.1620 h1        1 Z59      0.116000
     29 H5         -3.0210    2.7080    0.6590 h1        1 Z59      0.117000
     30 HN8         2.9380   -2.5050   -1.2250 hn        1 Z59      0.236000
     31 H12        -4.2680   -0.2700    2.6580 ha        1 Z59      0.131000
     32 H13         5.8880   -2.5580   -5.9500 DU        1 Z59      0.159333
     33 H15         6.3310   -3.8450   -1.8520 DU        1 Z59      0.159333
     34 H16         7.1680   -4.2310   -4.4250 DU        1 Z59      0.159333
     35 HO17        1.6990    2.0870    0.2890 ho        1 Z59      0.235000
     36 H18         4.3470   -0.3900   -2.0870 h4        1 Z59      0.113500
     37 H18A        5.2580   -1.0620   -0.9180 h4        1 Z59      0.113500
     38 HO19        0.5080   -2.2850   -0.6610 ho        1 Z59      0.247000
     39 H20        -0.0290    2.1020    2.6750 h1        1 Z59      0.100000
     40 H20A       -0.4440    3.2660    1.6380 h1        1 Z59      0.100000
     41 H21        -6.4530   -0.8310    1.9240 ha        1 Z59      0.131000
     42 H23        -3.5200    1.5780    3.0470 hc        1 Z59      0.098500
     43 H23A       -3.8810    3.0490    2.4470 hc        1 Z59      0.098500
     44 H24        -3.4850    1.5600   -0.9200 ha        1 Z59      0.141000
     45 H25        -1.9400    3.9190    3.1470 hc        1 Z59      0.093000
     46 H25A       -1.7410    2.5680    4.0140 hc        1 Z59      0.093000
     47 H26        -5.6740    1.0070   -1.6800 ha        1 Z59      0.132000
     48 H27        -7.1890   -0.1950   -0.2700 ha        1 Z59      0.131000
@<TRIPOS>BOND
     1    1    3 1   
     2    1   11 1   
     3    2    5 1   
     4    2   20 1   
     5    3    4 1   
     6    3   17 1   
     7    3   27 1   
     8    4    6 1   
     9    4   19 1   
    10    4   28 1   
    11    5    7 1   
    12    5   22 1   
    13    5   29 1   
    14    6    8 1   
    15    6   14 1   
    16    7   12 1   
    17    7   23 1   
    18    8   18 1   
    19    8   30 1   
    20    9   10 1   
    21    9   13 1   
    22   10   15 1   
    23   12   31 1   
    24   13   16 1   
    25   15   16 1   
    26   17   35 1   
    27   18   36 1   
    28   18   37 1   
    29   19   38 1   
    30   20   24 1   
    31   20   39 1   
    32   20   40 1   
    33   21   26 1   
    34   21   41 1   
    35   22   24 1   
    36   22   42 1   
    37   22   43 1   
    38   23   25 1   
    39   23   44 1   
    40   24   45 1   
    41   24   46 1   
    42   25   47 1   
    43   26   48 1   
@<TRIPOS>SUBSTRUCTURE
     1 Z59         1 TEMP              0 ****  ****    0 ROOT
