@<TRIPOS>MOLECULE
Z59
   49    51     1     0     0
SMALL
bcc


@<TRIPOS>ATOM
      1 C1          0.1500    0.6790    0.1330 c         1 Z59      0.633100
      2 N2         -0.7370    1.4680    0.7940 n         1 Z59     -0.426800
      3 C3          1.6650    0.9300    0.2600 c3        1 Z59      0.033100
      4 C4          2.2570   -0.2170    1.1150 c3        1 Z59      0.061100
      5 C5         -2.1910    1.2370    0.7110 c3        1 Z59      0.149000
      6 C6          3.7320    0.0870    1.3810 c         1 Z59      0.548100
      7 C7         -2.6600    0.1650    1.6580 ca        1 Z59     -0.120300
      8 N8          4.6430   -0.1920    0.2210 ny        1 Z59     -0.674800
      9 S9          7.2610    1.8820   -1.3000 ss        1 Z59      0.122200
     10 C10         6.4970    1.4380    0.1240 cc        1 Z59     -0.276400
     11 O11        -0.1780   -0.3150   -0.5600 o         1 Z59     -0.627100
     12 C12        -2.6260    0.3640    3.0430 ca        1 Z59     -0.111500
     13 C13         7.4180    3.4690   -0.8560 cc        1 Z59     -0.130100
     14 O14         4.1900    0.5430    2.4140 o         1 Z59     -0.407100
     15 C15         6.3650    2.5280    0.9810 cd        1 Z59     -0.091000
     16 C16         6.8980    3.7120    0.4040 cd        1 Z59     -0.158000
     17 O17         2.2730    0.9040   -1.0150 oh        1 Z59     -0.614800
     18 C18         6.1050    0.0650    0.4660 c3        1 Z59      0.224100
     19 O19         2.2230   -1.4490    0.4210 oh        1 Z59     -0.626800
     20 C20        -0.4300    2.7880    1.3210 c3        1 Z59      0.080000
     21 C21        -3.0880   -0.6270    3.9050 ca        1 Z59     -0.130500
     22 C23        -2.8600    2.5970    1.0170 c3        1 Z59     -0.090400
     23 C24        -3.1540   -1.0390    1.1450 ca        1 Z59     -0.111500
     24 C25        -1.7640    3.5240    1.5300 c3        1 Z59     -0.089400
     25 C26        -3.6210   -2.0280    2.0100 ca        1 Z59     -0.130500
     26 C27        -3.5890   -1.8240    3.3900 ca        1 Z59     -0.111000
     27 H3          1.9230    1.9310    0.7030 h1        1 Z59      0.111700
     28 H4          1.7280   -0.2970    2.1080 h1        1 Z59      0.124700
     29 H5         -2.4310    0.9160   -0.3470 h1        1 Z59      0.085700
     30 HN8         4.4970   -1.1790   -0.0360 hn        1 Z59      0.479300
     31 H12        -2.2400    1.3120    3.4480 ha        1 Z59      0.136000
     32 H13         7.8880    4.2230   -1.4920 h4        1 Z59      0.198000
     33 H15         5.9200    2.4850    1.9800 ha        1 Z59      0.169000
     34 H16         6.8990    4.6840    0.9070 ha        1 Z59      0.180000
     35 HO17        1.7840    0.2750   -1.5740 ho        1 Z59      0.456000
     36 H18         6.3090   -0.1430    1.5590 hx        1 Z59      0.111700
     37 H18A        6.6730   -0.6850   -0.1600 hx        1 Z59      0.111700
     38 HO19        1.2950   -1.6430    0.1930 ho        1 Z59      0.486000
     39 H20         0.1200    2.6800    2.2970 h1        1 Z59      0.049200
     40 H20A        0.2240    3.3560    0.6040 h1        1 Z59      0.049200
     41 H21        -3.0660   -0.4630    4.9930 ha        1 Z59      0.142500
     42 H23        -3.6720    2.4730    1.7750 hc        1 Z59      0.074700
     43 H23A       -3.3190    3.0050    0.0820 hc        1 Z59      0.074700
     44 H24        -3.1740   -1.2080    0.0570 ha        1 Z59      0.136000
     45 H25        -1.9090    3.7490    2.6150 hc        1 Z59      0.068200
     46 H25A       -1.7620    4.4930    0.9740 hc        1 Z59      0.068200
     47 H26        -4.0180   -2.9700    1.6020 ha        1 Z59      0.142500
     48 H27        -3.9620   -2.6040    4.0710 ha        1 Z59      0.143000
     49 H82         4.3050    0.3920   -0.5670 hn        1 Z59      0.479300
@<TRIPOS>BOND
     1    1    2 1   
     2    1    3 1   
     3    1   11 2   
     4    2    5 1   
     5    2   20 1   
     6    3    4 1   
     7    3   17 1   
     8    3   27 1   
     9    4    6 1   
    10    4   19 1   
    11    4   28 1   
    12    5    7 1   
    13    5   22 1   
    14    5   29 1   
    15    6    8 1   
    16    6   14 2   
    17    7   12 ar  
    18    7   23 ar  
    19    8   18 1   
    20    8   30 1   
    21    8   49 1   
    22    9   10 1   
    23    9   13 1   
    24   10   15 2   
    25   10   18 1   
    26   12   21 ar  
    27   12   31 1   
    28   13   16 2   
    29   13   32 1   
    30   15   16 1   
    31   15   33 1   
    32   16   34 1   
    33   17   35 1   
    34   18   36 1   
    35   18   37 1   
    36   19   38 1   
    37   20   24 1   
    38   20   39 1   
    39   20   40 1   
    40   21   26 ar  
    41   21   41 1   
    42   22   24 1   
    43   22   42 1   
    44   22   43 1   
    45   23   25 ar  
    46   23   44 1   
    47   24   45 1   
    48   24   46 1   
    49   25   26 ar  
    50   25   47 1   
    51   26   48 1   
@<TRIPOS>SUBSTRUCTURE
     1 Z59         1 TEMP              0 ****  ****    0 ROOT
