@<TRIPOS>MOLECULE
Z5K
   42    41     1     0     0
SMALL
bcc


@<TRIPOS>ATOM
      1 O01         3.4140   -0.3730   -0.8150 o         1 Z5K     -0.421400
      2 S02         3.7890   -1.6680   -0.9580 s4        1 Z5K      1.687300
      3 N03         3.8330   -1.7980    1.5680 n8        1 Z5K     -0.984800
      4 C04         4.3470   -0.5450    2.0860 c3        1 Z5K      0.110800
      5 C05         4.4020   -0.4620    3.6280 c3        1 Z5K      0.068800
      6 N06         4.9910    0.8130    4.1360 nx        1 Z5K     -0.689400
      7 C07         3.9870    1.9370    4.0920 c3        1 Z5K      0.111800
      8 C08         4.6260    3.3090    4.0620 c3        1 Z5K     -0.139600
      9 C09         5.5240    0.6330    5.5360 c3        1 Z5K      0.111800
     10 C10         6.8650   -0.0650    5.5870 c3        1 Z5K     -0.139600
     11 C11         2.7020   -2.7180   -1.3070 ca        1 Z5K     -0.631500
     12 C12         1.3270   -2.3660   -1.3900 ca        1 Z5K      0.071000
     13 C13         0.3690   -3.2990   -1.7460 ca        1 Z5K     -0.195300
     14 C14        -1.1070   -2.8710   -1.8210 c3        1 Z5K      0.696200
     15 F15        -1.4380   -2.2880   -3.0140 f         1 Z5K     -0.205633
     16 F16        -1.9850   -3.9060   -1.6530 f         1 Z5K     -0.205633
     17 F17        -1.4400   -1.9480   -0.8610 f         1 Z5K     -0.205633
     18 C18         0.7340   -4.6200   -2.0510 ca        1 Z5K      0.087000
     19 C19         2.0830   -4.9920   -1.9800 ca        1 Z5K     -0.145000
     20 C20         3.0440   -4.0670   -1.6160 ca        1 Z5K      0.048000
     21 O21         5.0840   -2.0590   -0.9470 o         1 Z5K     -0.421400
     22 H03         4.4450   -2.5610    1.8090 hn        1 Z5K      0.400300
     23 H041        5.3880   -0.4020    1.6690 h1        1 Z5K      0.097700
     24 H042        3.6930    0.2830    1.6810 h1        1 Z5K      0.097700
     25 H051        3.3640   -0.5600    4.0610 hx        1 Z5K      0.110700
     26 H052        5.0310   -1.3130    4.0240 hx        1 Z5K      0.110700
     27 H071        3.3580    1.7980    3.1660 hx        1 Z5K      0.107700
     28 H072        3.3200    1.8340    4.9960 hx        1 Z5K      0.107700
     29 H091        4.7530    0.0600    6.1260 hx        1 Z5K      0.107700
     30 H092        5.6230    1.6650    5.9880 hx        1 Z5K      0.107700
     31 H081        5.2090    3.5250    4.9900 hc        1 Z5K      0.085367
     32 H082        5.2930    3.4400    3.1750 hc        1 Z5K      0.085367
     33 H083        3.8020    4.0680    3.9910 hc        1 Z5K      0.085367
     34 H101        7.1940   -0.0940    6.6600 hc        1 Z5K      0.085367
     35 H102        7.6460    0.4870    5.0060 hc        1 Z5K      0.085367
     36 H103        6.8110   -1.1170    5.2170 hc        1 Z5K      0.085367
     37 H12         1.0150   -1.3240   -1.1710 ha        1 Z5K      0.188000
     38 H20         4.1090   -4.3740   -1.5730 ha        1 Z5K      0.184000
     39 H18        -0.0420   -5.3570   -2.3430 ha        1 Z5K      0.208000
     40 H19         2.3760   -6.0310   -2.2250 ha        1 Z5K      0.203000
     41 H032        2.9170   -1.9900    1.9390 hn        1 Z5K      0.400300
     42 H061        5.7840    1.0710    3.5320 hn        1 Z5K      0.448800
@<TRIPOS>BOND
     1    1    2 1   
     2    2   11 1   
     3    2   21 1   
     4    3    4 1   
     5    3   22 1   
     6    3   41 1   
     7    4    5 1   
     8    4   23 1   
     9    4   24 1   
    10    5    6 1   
    11    5   25 1   
    12    5   26 1   
    13    6    7 1   
    14    6    9 1   
    15    6   42 1   
    16    7    8 1   
    17    7   27 1   
    18    7   28 1   
    19    8   31 1   
    20    8   32 1   
    21    8   33 1   
    22    9   10 1   
    23    9   29 1   
    24    9   30 1   
    25   10   34 1   
    26   10   35 1   
    27   10   36 1   
    28   11   12 ar  
    29   11   20 ar  
    30   12   13 ar  
    31   12   37 1   
    32   13   14 1   
    33   13   18 ar  
    34   14   15 1   
    35   14   16 1   
    36   14   17 1   
    37   18   19 ar  
    38   18   39 1   
    39   19   20 ar  
    40   19   40 1   
    41   20   38 1   
@<TRIPOS>SUBSTRUCTURE
     1 Z5K         1 TEMP              0 ****  ****    0 ROOT
