@<TRIPOS>MOLECULE
Z5K
   42    41     1     0     0
SMALL
bcc


@<TRIPOS>ATOM
      1 O01         3.5370   -0.4370   -0.8290 o         1 Z5K     -0.421400
      2 S02         3.8440   -1.7530   -0.9270 s4        1 Z5K      1.687300
      3 N03         3.7930   -1.8210    1.6010 n3        1 Z5K     -0.984800
      4 C04         4.3540   -0.5830    2.1080 c3        1 Z5K      0.110800
      5 C05         4.3620   -0.4650    3.6490 c3        1 Z5K      0.068800
      6 N06         4.9990    0.7910    4.1460 n4        1 Z5K     -0.689400
      7 C07         4.0560    1.9620    4.0420 c3        1 Z5K      0.111800
      8 C08         4.7650    3.2990    4.0030 c3        1 Z5K     -0.139600
      9 C09         5.4750    0.6190    5.5680 c3        1 Z5K      0.111800
     10 C10         6.7760   -0.1450    5.6810 c3        1 Z5K     -0.139600
     11 C11         2.7130   -2.7500   -1.2910 ca        1 Z5K     -0.631500
     12 C12         1.3640   -2.3260   -1.4320 ca        1 Z5K      0.071000
     13 C13         0.3680   -3.2130   -1.8010 ca        1 Z5K     -0.195300
     14 C14        -1.0780   -2.7060   -1.9390 c3        1 Z5K      0.696200
     15 F15        -1.3330   -2.1370   -3.1570 f         1 Z5K     -0.205633
     16 F16        -2.0180   -3.6870   -1.7800 f         1 Z5K     -0.205633
     17 F17        -1.3930   -1.7420   -1.0150 f         1 Z5K     -0.205633
     18 C18         0.6690   -4.5590   -2.0610 ca        1 Z5K      0.087000
     19 C19         1.9920   -5.0040   -1.9320 ca        1 Z5K     -0.145000
     20 C20         2.9900   -4.1240   -1.5550 ca        1 Z5K      0.048000
     21 O21         5.1140   -2.2150   -0.8600 o         1 Z5K     -0.421400
     22 H03         4.3560   -2.6080    1.8820 hn        1 Z5K      0.400300
     23 H041        5.4150   -0.5050    1.7240 h1        1 Z5K      0.097700
     24 H042        3.7580    0.2670    1.6610 h1        1 Z5K      0.097700
     25 H051        3.3070   -0.4990    4.0470 hx        1 Z5K      0.110700
     26 H052        4.9330   -1.3370    4.0850 hx        1 Z5K      0.110700
     27 H071        3.4520    1.8330    3.0990 hx        1 Z5K      0.107700
     28 H072        3.3550    1.9160    4.9250 hx        1 Z5K      0.107700
     29 H091        4.6570    0.1000    6.1440 hx        1 Z5K      0.107700
     30 H092        5.6120    1.6550    5.9990 hx        1 Z5K      0.107700
     31 H081        5.3290    3.5080    4.9450 hc        1 Z5K      0.085367
     32 H082        5.4680    3.3740    3.1360 hc        1 Z5K      0.085367
     33 H083        3.9850    4.0970    3.8870 hc        1 Z5K      0.085367
     34 H101        7.0670   -0.1640    6.7650 hc        1 Z5K      0.085367
     35 H102        7.6030    0.3520    5.1150 hc        1 Z5K      0.085367
     36 H103        6.6800   -1.2020    5.3340 hc        1 Z5K      0.085367
     37 H12         1.1030   -1.2620   -1.2500 ha        1 Z5K      0.188000
     38 H20         4.0340   -4.4880   -1.4660 ha        1 Z5K      0.184000
     39 H18        -0.1360   -5.2600   -2.3640 ha        1 Z5K      0.208000
     40 H19         2.2350   -6.0630   -2.1420 ha        1 Z5K      0.203000
     41 H032        2.8570   -1.9550    1.9440 hn        1 Z5K      0.400300
     42 H061        5.8240    0.9930    3.5640 hn        1 Z5K      0.448800
@<TRIPOS>BOND
     1    1    2 1   
     2    2   11 1   
     3    2   21 1   
     4    3    4 1   
     5    3   22 1   
     6    3   41 1   
     7    4    5 1   
     8    4   23 1   
     9    4   24 1   
    10    5    6 1   
    11    5   25 1   
    12    5   26 1   
    13    6    7 1   
    14    6    9 1   
    15    6   42 1   
    16    7    8 1   
    17    7   27 1   
    18    7   28 1   
    19    8   31 1   
    20    8   32 1   
    21    8   33 1   
    22    9   10 1   
    23    9   29 1   
    24    9   30 1   
    25   10   34 1   
    26   10   35 1   
    27   10   36 1   
    28   11   12 ar  
    29   11   20 ar  
    30   12   13 ar  
    31   12   37 1   
    32   13   14 1   
    33   13   18 ar  
    34   14   15 1   
    35   14   16 1   
    36   14   17 1   
    37   18   19 ar  
    38   18   39 1   
    39   19   20 ar  
    40   19   40 1   
    41   20   38 1   
@<TRIPOS>SUBSTRUCTURE
     1 Z5K         1 TEMP              0 ****  ****    0 ROOT
