@<TRIPOS>MOLECULE
Z5K
   40    40     1     0     0
SMALL
bcc


@<TRIPOS>ATOM
      1 O01        -0.3970    2.2490    1.4140 o         1 Z5K     -0.650300
      2 S02         0.1360    1.5670    0.3010 sy        1 Z5K      1.515200
      3 N03         1.0530    0.3530    0.8280 n3        1 Z5K     -0.924100
      4 C04         2.1480   -0.2240    0.1020 c3        1 Z5K      0.220800
      5 C05         3.4900   -0.1470    0.8740 c3        1 Z5K      0.159800
      6 N06         4.5740   -0.7460    0.1100 n3        1 Z5K     -0.748600
      7 C07         5.1610    0.1820   -0.8500 c3        1 Z5K      0.172800
      8 C08         5.8290   -0.5010   -2.0340 c3        1 Z5K     -0.093600
      9 C09         5.5690   -1.4030    0.9470 c3        1 Z5K      0.172800
     10 C10         5.1050   -2.7270    1.5340 c3        1 Z5K     -0.093600
     11 C11        -1.1470    0.7690   -0.4820 ca        1 Z5K     -0.373500
     12 C12        -2.2760    0.3640    0.2350 ca        1 Z5K      0.027000
     13 C13        -3.3330   -0.2730   -0.4150 ca        1 Z5K     -0.195300
     14 C14        -4.5620   -0.7030    0.3760 c3        1 Z5K      0.690200
     15 F15        -5.5490    0.2500    0.4450 f         1 Z5K     -0.233967
     16 F16        -5.2010   -1.8110   -0.1280 f         1 Z5K     -0.233967
     17 F17        -4.3110   -1.0260    1.6870 f         1 Z5K     -0.233967
     18 C18        -3.2780   -0.5070   -1.7920 ca        1 Z5K     -0.024000
     19 C19        -2.1600   -0.0950   -2.5150 ca        1 Z5K     -0.159000
     20 C20        -1.1050    0.5390   -1.8620 ca        1 Z5K      0.007000
     21 O21         0.8240    2.3270   -0.6680 o         1 Z5K     -0.650300
     22 H03         0.9130   -0.0520    1.7230 hn        1 Z5K      0.450800
     23 H041        1.9220   -1.3060   -0.1210 h1        1 Z5K      0.059200
     24 H042        2.2520    0.3210   -0.8810 h1        1 Z5K      0.059200
     25 H051        3.7050    0.9310    1.1300 h1        1 Z5K      0.038700
     26 H052        3.3690   -0.7040    1.8450 h1        1 Z5K      0.038700
     27 H071        4.3370    0.8410   -1.2500 h1        1 Z5K      0.032700
     28 H072        5.9160    0.8600   -0.3530 h1        1 Z5K      0.032700
     29 H091        6.4770   -1.6060    0.3090 h1        1 Z5K      0.032700
     30 H092        5.9020   -0.7300    1.7930 h1        1 Z5K      0.032700
     31 H081        6.7320   -1.0760   -1.7200 hc        1 Z5K      0.038700
     32 H082        5.1260   -1.2010   -2.5440 hc        1 Z5K      0.038700
     33 H083        6.1460    0.2830   -2.7640 hc        1 Z5K      0.038700
     34 H101        4.7640   -3.4240    0.7320 hc        1 Z5K      0.038700
     35 H102        5.9620   -3.1960    2.0750 hc        1 Z5K      0.038700
     36 H103        4.2670   -2.5850    2.2570 hc        1 Z5K      0.038700
     37 H12        -2.3390    0.5620    1.3220 ha        1 Z5K      0.169000
     38 H20        -0.2260    0.8820   -2.4390 ha        1 Z5K      0.161000
     39 H18        -4.1160   -1.0160   -2.2970 ha        1 Z5K      0.156000
     40 H19        -2.1130   -0.2680   -3.6010 ha        1 Z5K      0.151000
@<TRIPOS>BOND
     1    1    2 2   
     2    2    3 1   
     3    2   11 1   
     4    2   21 2   
     5    3    4 1   
     6    3   22 1   
     7    4    5 1   
     8    4   23 1   
     9    4   24 1   
    10    5    6 1   
    11    5   25 1   
    12    5   26 1   
    13    6    7 1   
    14    6    9 1   
    15    7    8 1   
    16    7   27 1   
    17    7   28 1   
    18    8   31 1   
    19    8   32 1   
    20    8   33 1   
    21    9   10 1   
    22    9   29 1   
    23    9   30 1   
    24   10   34 1   
    25   10   35 1   
    26   10   36 1   
    27   11   12 ar  
    28   11   20 ar  
    29   12   13 ar  
    30   12   37 1   
    31   13   14 1   
    32   13   18 ar  
    33   14   15 1   
    34   14   16 1   
    35   14   17 1   
    36   18   19 ar  
    37   18   39 1   
    38   19   20 ar  
    39   19   40 1   
    40   20   38 1   
@<TRIPOS>SUBSTRUCTURE
     1 Z5K         1 TEMP              0 ****  ****    0 ROOT
