@<TRIPOS>MOLECULE
Z5P
   24    18     1     0     0
SMALL
bcc


@<TRIPOS>ATOM
      1 N13        -1.9520    1.9650   -1.3450 n3        1 Z5P     -0.903800
      2 C10        -0.0470    2.1390    1.0440 c1        1 Z5P     -0.062000
      3 N4          0.2830   -1.3080   -0.4700 ne        1 Z5P     -0.309400
      4 C9          0.6230    1.8500    2.2230 c1        1 Z5P     -0.062000
      5 C8          1.1530    0.5860    2.4270 c1        1 Z5P     -0.062000
      6 C7          1.0120   -0.3900    1.4530 c1        1 Z5P     -0.062000
      7 C6          0.3420   -0.1020    0.2740 c1        1 Z5P      0.061000
      8 C3          1.0010   -2.0550   -1.3350 c1        1 Z5P      0.081900
      9 C12        -0.5350    1.8640   -1.2240 c3        1 Z5P      0.167900
     10 C2          0.3690   -3.2550   -1.4800 c1        1 Z5P     -0.234000
     11 C1         -0.7480   -3.2410   -0.6960 c1        1 Z5P      0.081900
     12 C11        -0.1880    1.1630    0.0700 c1        1 Z5P     -0.088100
     13 N5         -0.8040   -2.0450   -0.0730 ne        1 Z5P     -0.309400
     14 H9          0.7220    2.5370    2.9090 ha        1 Z5P      0.085000
     15 H8          1.6250    0.3820    3.2570 ha        1 Z5P      0.085000
     16 H10        -0.4210    3.0290    0.9010 ha        1 Z5P      0.085000
     17 H7          1.3850   -1.2810    1.5970 ha        1 Z5P      0.085000
     18 H2          0.6630   -3.9940   -2.0460 DU        1 Z5P      0.176333
     19 H1         -1.3930   -3.9670   -0.6010 DU        1 Z5P      0.176333
     20 H3          1.8270   -1.7840   -1.7780 DU        1 Z5P      0.176333
     21 H121       -0.1430    2.7620   -1.2250 h1        1 Z5P      0.058200
     22 H122       -0.1780    1.3510   -1.9790 h1        1 Z5P      0.058200
     23 H131       -2.3360    1.1670   -1.1090 hn        1 Z5P      0.356300
     24 H132       -2.2590    2.6270   -0.7930 hn        1 Z5P      0.356300
@<TRIPOS>BOND
     1    1    9 1   
     2    1   23 1   
     3    1   24 1   
     4    2    4 3   
     5    2   16 1   
     6    3    8 2   
     7    3   13 1   
     8    4   14 1   
     9    5    6 3   
    10    5   15 1   
    11    6   17 1   
    12    7   12 3   
    13    8   10 2   
    14    9   12 1   
    15    9   21 1   
    16    9   22 1   
    17   10   11 2   
    18   11   13 2   
@<TRIPOS>SUBSTRUCTURE
     1 Z5P         1 TEMP              0 ****  ****    0 ROOT
