@<TRIPOS>MOLECULE
Z5P
   25    26     1     0     0
SMALL
bcc


@<TRIPOS>ATOM
      1 N13         0.1390    0.1590   -0.2380 n4        1 Z5P     -0.852600
      2 C10         2.3830    0.4180    2.3140 ca        1 Z5P     -0.088000
      3 N4          1.5090   -2.8180    0.6390 na        1 Z5P      0.121300
      4 C9          2.7810   -0.0370    3.5660 ca        1 Z5P     -0.120000
      5 C8          2.7460   -1.4040    3.8480 ca        1 Z5P     -0.064000
      6 C7          2.3120   -2.3110    2.8870 ca        1 Z5P     -0.141000
      7 C6          1.9160   -1.8610    1.6070 ca        1 Z5P      0.059800
      8 C3          2.0040   -4.1400    0.5760 cc        1 Z5P     -0.090300
      9 C12         1.6170    0.0820   -0.0190 c3        1 Z5P      0.181100
     10 C2          1.2200   -4.8210   -0.3560 cd        1 Z5P     -0.273300
     11 C1          0.2430   -3.8480   -0.8030 cd        1 Z5P      0.364200
     12 C11         1.9540   -0.4760    1.3220 ca        1 Z5P     -0.180300
     13 N5          0.4370   -2.6650   -0.1750 nc        1 Z5P     -0.632800
     14 H9          3.1240    0.6780    4.3310 ha        1 Z5P      0.167000
     15 H8          3.0590   -1.7700    4.8400 ha        1 Z5P      0.168000
     16 H10         2.4230    1.4980    2.0930 ha        1 Z5P      0.147000
     17 H7          2.2770   -3.3850    3.1360 ha        1 Z5P      0.165000
     18 H2          1.3110   -5.8510   -0.6900 ha        1 Z5P      0.195000
     19 H1         -0.5530   -3.9970   -1.5360 h4        1 Z5P      0.061100
     20 H3          2.8680   -4.4590    1.1630 h4        1 Z5P      0.199000
     21 H121        2.0540   -0.5520   -0.8450 hx        1 Z5P      0.111200
     22 H122        2.0290    1.1290   -0.1230 hx        1 Z5P      0.111200
     23 H131       -0.3030    0.6850    0.5190 hn        1 Z5P      0.464133
     24 H132       -0.2560   -0.8040   -0.2500 hn        1 Z5P      0.464133
     25 H133       -0.0600    0.6140   -1.1300 hn        1 Z5P      0.464133
@<TRIPOS>BOND
     1    1    9 1   
     2    1   23 1   
     3    1   24 1   
     4    1   25 1   
     5    2    4 ar  
     6    2   12 ar  
     7    2   16 1   
     8    3    7 1   
     9    3    8 1   
    10    3   13 1   
    11    4    5 ar  
    12    4   14 1   
    13    5    6 ar  
    14    5   15 1   
    15    6    7 ar  
    16    6   17 1   
    17    7   12 ar  
    18    8   10 2   
    19    8   20 1   
    20    9   12 1   
    21    9   21 1   
    22    9   22 1   
    23   10   11 1   
    24   10   18 1   
    25   11   13 2   
    26   11   19 1   
@<TRIPOS>SUBSTRUCTURE
     1 Z5P         1 TEMP              0 ****  ****    0 ROOT
