@<TRIPOS>MOLECULE
Z5P
   25    26     1     0     0
SMALL
bcc


@<TRIPOS>ATOM
      1 N13         0.2610    0.1830   -0.3290 nz        1 Z5P     -0.852600
      2 C10         2.3900    0.4100    2.3230 ca        1 Z5P     -0.088000
      3 N4          1.4890   -2.8220    0.6530 na        1 Z5P      0.121300
      4 C9          2.7130   -0.0380    3.5980 ca        1 Z5P     -0.120000
      5 C8          2.6190   -1.3990    3.8970 ca        1 Z5P     -0.064000
      6 C7          2.2020   -2.3060    2.9300 ca        1 Z5P     -0.141000
      7 C6          1.8810   -1.8640    1.6270 ca        1 Z5P      0.059800
      8 C3          1.9430   -4.1600    0.6330 cc        1 Z5P     -0.090300
      9 C12         1.7240    0.0620   -0.0390 c3        1 Z5P      0.181100
     10 C2          1.1810   -4.8300   -0.3260 cd        1 Z5P     -0.273300
     11 C1          0.2590   -3.8320   -0.8320 cd        1 Z5P      0.364200
     12 C11         1.9790   -0.4850    1.3250 ca        1 Z5P     -0.180300
     13 N5          0.4620   -2.6470   -0.2130 nc        1 Z5P     -0.632800
     14 H9          3.0420    0.6770    4.3690 ha        1 Z5P      0.167000
     15 H8          2.8730   -1.7600    4.9090 ha        1 Z5P      0.168000
     16 H10         2.4750    1.4840    2.0900 ha        1 Z5P      0.147000
     17 H7          2.1190   -3.3740    3.1920 ha        1 Z5P      0.165000
     18 H2          1.2540   -5.8670   -0.6400 ha        1 Z5P      0.195000
     19 H1         -0.5060   -3.9680   -1.6000 h4        1 Z5P      0.061100
     20 H3          2.7670   -4.4980    1.2640 h4        1 Z5P      0.199000
     21 H121        2.1780   -0.5990   -0.8350 hx        1 Z5P      0.111200
     22 H122        2.1750    1.0940   -0.1380 hx        1 Z5P      0.111200
     23 H131       -0.1980    0.7360    0.3990 hn        1 Z5P      0.464133
     24 H132       -0.1650   -0.7650   -0.3460 hn        1 Z5P      0.464133
     25 H133        0.1190    0.6320   -1.2350 hn        1 Z5P      0.464133
@<TRIPOS>BOND
     1    1    9 1   
     2    1   23 1   
     3    1   24 1   
     4    1   25 1   
     5    2    4 ar  
     6    2   12 ar  
     7    2   16 1   
     8    3    7 1   
     9    3    8 1   
    10    3   13 1   
    11    4    5 ar  
    12    4   14 1   
    13    5    6 ar  
    14    5   15 1   
    15    6    7 ar  
    16    6   17 1   
    17    7   12 ar  
    18    8   10 2   
    19    8   20 1   
    20    9   12 1   
    21    9   21 1   
    22    9   22 1   
    23   10   11 1   
    24   10   18 1   
    25   11   13 2   
    26   11   19 1   
@<TRIPOS>SUBSTRUCTURE
     1 Z5P         1 TEMP              0 ****  ****    0 ROOT
