@<TRIPOS>MOLECULE
Z5P
   24    25     1     0     0
SMALL
bcc


@<TRIPOS>ATOM
      1 N13        -0.0690   -2.9430    0.4240 n3        1 Z5P     -0.905800
      2 C10        -2.4390   -0.6800   -0.1390 ca        1 Z5P     -0.118000
      3 N4          1.1140    0.4830   -0.0020 na        1 Z5P      0.145300
      4 C9         -3.1080    0.4900    0.2010 ca        1 Z5P     -0.129000
      5 C8         -2.3800    1.6500    0.4680 ca        1 Z5P     -0.118000
      6 C7         -0.9920    1.6330    0.4050 ca        1 Z5P     -0.141000
      7 C6         -0.3090    0.4450    0.0600 ca        1 Z5P      0.025800
      8 C3          1.8410    1.5430   -0.5790 cc        1 Z5P     -0.134300
      9 C12        -0.4080   -2.0310   -0.6350 c3        1 Z5P      0.207100
     10 C2          3.1930    1.2680   -0.3560 cd        1 Z5P     -0.298300
     11 C1          3.1970    0.0210    0.3810 cd        1 Z5P      0.300200
     12 C11        -1.0410   -0.7260   -0.2240 ca        1 Z5P     -0.109300
     13 N5          1.9300   -0.4160    0.5820 nc        1 Z5P     -0.510800
     14 H9         -4.2060    0.5020    0.2590 ha        1 Z5P      0.138000
     15 H8         -2.9020    2.5800    0.7370 ha        1 Z5P      0.138000
     16 H10        -3.0150   -1.5950   -0.3530 ha        1 Z5P      0.140000
     17 H7         -0.4270    2.5510    0.6320 ha        1 Z5P      0.143000
     18 H2          4.0560    1.8450   -0.6630 ha        1 Z5P      0.168000
     19 H1          4.0620   -0.5330    0.7470 h4        1 Z5P      0.045100
     20 H3          1.3450    2.3630   -1.0950 h4        1 Z5P      0.179000
     21 H121        0.5140   -1.8360   -1.2520 h1        1 Z5P      0.060200
     22 H122       -1.1420   -2.5680   -1.3090 h1        1 Z5P      0.060200
     23 H131        0.7410   -2.6450    0.9310 hn        1 Z5P      0.357300
     24 H132       -0.8310   -3.0500    1.0630 hn        1 Z5P      0.357300
@<TRIPOS>BOND
     1    1    9 1   
     2    1   23 1   
     3    1   24 1   
     4    2    4 ar  
     5    2   12 ar  
     6    2   16 1   
     7    3    7 1   
     8    3    8 1   
     9    3   13 1   
    10    4    5 ar  
    11    4   14 1   
    12    5    6 ar  
    13    5   15 1   
    14    6    7 ar  
    15    6   17 1   
    16    7   12 ar  
    17    8   10 2   
    18    8   20 1   
    19    9   12 1   
    20    9   21 1   
    21    9   22 1   
    22   10   11 1   
    23   10   18 1   
    24   11   13 2   
    25   11   19 1   
@<TRIPOS>SUBSTRUCTURE
     1 Z5P         1 TEMP              0 ****  ****    0 ROOT
