@<TRIPOS>MOLECULE
Z60
   30    28     1     0     0
SMALL
bcc


@<TRIPOS>ATOM
      1 CL       -471.0290 -121.5510  846.1730 cl        1 Z60      0.041400
      2 N1       -478.7210 -121.1790  845.9370 nc        1 Z60     -0.606000
      3 C2       -478.3850 -121.2890  844.5860 cc        1 Z60      0.405200
      4 N3       -479.4200 -121.3080  843.5610 n4        1 Z60     -0.798300
      5 C4       -477.0060 -121.3770  844.3120 cd        1 Z60     -0.306000
      6 C6       -474.9740 -121.5640  843.0950 cg        1 Z60     -0.181200
      7 O7       -477.0560 -121.5380  841.9420 o         1 Z60     -0.522100
      8 S8       -476.1560 -121.3210  845.7510 ss        1 Z60      0.212700
      9 C9       -477.5820 -121.1880  846.6420 cd        1 Z60      0.339300
     10 N10       972.2530  242.1380-1691.7730 nh        1 Z60     -0.321100
     11 C11       972.1900  243.2310-1691.0760 c2        1 Z60      0.438100
     12 C12       969.8590  243.1600-1689.9500 c1        1 Z60     -0.164500
     13 C13       969.6640  243.7880-1690.9540 c1        1 Z60     -0.164500
     14 S14      -473.8550 -121.3950  846.3720 s         1 Z60     -0.204400
     15 C15      -472.5770 -121.5200  845.4920 c         1 Z60      0.248000
     16 C16      -472.5110 -121.6260  843.9910 c3        1 Z60     -0.088300
     17 C17      -473.8220 -121.5990  843.4210 c1        1 Z60     -0.003100
     18 H1N3     -479.9660 -120.4380  843.6060 hn        1 Z60      0.479467
     19 H2N3     -480.0480 -122.1060  843.7180 hn        1 Z60      0.479467
     20 HN10      972.4090  241.2370-1691.3490 hn        1 Z60      0.336700
     21 H111      972.1320  242.1280-1692.7730 hn        1 Z60      0.336700
     22 H211      972.0440  244.2190-1691.5720 h4        1 Z60      0.080800
     23 H112      972.3550  243.2180-1689.9740 h4        1 Z60      0.080800
     24 H113      969.9600  242.6190-1689.0370 ha        1 Z60      0.188500
     25 H213      969.4190  244.3590-1691.8210 ha        1 Z60      0.188500
     26 H16      -471.8880 -120.7760  843.5760 hc        1 Z60      0.136700
     27 H17      -471.9790 -122.5830  843.7010 hc        1 Z60      0.136700
     28 H33      -478.9730 -121.3920  842.6300 hn        1 Z60      0.479467
     29 H102     -477.6440 -121.1100  847.7380 h5        1 Z60      0.088100
     30 C5       -476.3890 -121.5000  842.9830 c         1 Z60      0.663900
@<TRIPOS>BOND
     1    1   15 1   
     2    2    3 1   
     3    2    9 2   
     4    3    4 1   
     5    3    5 2   
     6    4   18 1   
     7    4   19 1   
     8    4   28 1   
     9    5    8 1   
    10    5   30 1   
    11    6   17 3   
    12    6   30 1   
    13    7   30 2   
    14    8    9 1   
    15    9   29 1   
    16   10   11 2   
    17   10   20 1   
    18   10   21 1   
    19   11   22 1   
    20   11   23 1   
    21   12   13 3   
    22   12   24 1   
    23   13   25 1   
    24   14   15 2   
    25   15   16 1   
    26   16   17 1   
    27   16   26 1   
    28   16   27 1   
@<TRIPOS>SUBSTRUCTURE
     1 Z60         1 TEMP              0 ****  ****    0 ROOT
