@<TRIPOS>MOLECULE
Z60
   28    29     1     0     0
SMALL
bcc


@<TRIPOS>ATOM
      1 CL         -3.7270    2.5900    0.5610 cl        1 Z60     -0.032400
      2 N1          2.7830   -1.3970   -0.0560 nc        1 Z60     -0.777000
      3 C2          1.6370   -2.2250   -0.0370 cc        1 Z60      0.750200
      4 N3          1.7330   -3.5770    0.0760 nh        1 Z60     -0.941500
      5 C4          0.4040   -1.5300   -0.1290 cd        1 Z60     -0.433000
      6 C6         -1.9750   -1.0860    0.1220 cc        1 Z60     -0.185700
      7 O7         -1.1510   -3.3140    0.0290 o         1 Z60     -0.583100
      8 S8          0.6660    0.1350   -0.3490 ss        1 Z60     -0.188300
      9 C9          2.4040   -0.1100   -0.2000 cd        1 Z60      0.725300
     10 N10         3.2590    0.9570   -0.3470 nh        1 Z60     -0.827900
     11 C11         4.6820    0.7890   -0.1430 c3        1 Z60      0.230000
     12 C12         5.4420    2.0670   -0.3170 c2        1 Z60     -0.196200
     13 C13         6.3400    2.4940    0.5670 c2        1 Z60     -0.196000
     14 S14        -1.6230    0.5170    0.5270 ss        1 Z60      0.052200
     15 C15        -3.2250    1.0120    0.3350 cc        1 Z60     -0.017700
     16 C16        -4.0510   -0.0460    0.0030 cd        1 Z60     -0.162000
     17 C17        -3.3200   -1.2670   -0.1210 cd        1 Z60     -0.076000
     18 H1N3        2.6080   -4.0160    0.2110 hn        1 Z60      0.458800
     19 H2N3        0.8910   -4.1060    0.1130 hn        1 Z60      0.458800
     20 HN10        2.8810    1.8480   -0.1080 hn        1 Z60      0.431800
     21 H111        4.8830    0.3520    0.8800 h1        1 Z60      0.063700
     22 H211        5.0530    0.0420   -0.9060 h1        1 Z60      0.063700
     23 H112        5.2410    2.6180   -1.2500 ha        1 Z60      0.134000
     24 H113        6.9280    3.4080    0.4050 ha        1 Z60      0.118500
     25 H213        6.5590    1.9630    1.5030 ha        1 Z60      0.118500
     26 H16        -5.1310    0.0240   -0.1530 ha        1 Z60      0.165000
     27 H17        -3.7770   -2.2240   -0.3910 ha        1 Z60      0.173000
     28 C5         -0.9140   -2.0930    0.0050 c         1 Z60      0.674300
@<TRIPOS>BOND
     1    1   15 1   
     2    2    3 1   
     3    2    9 2   
     4    3    4 1   
     5    3    5 2   
     6    4   18 1   
     7    4   19 1   
     8    5    8 1   
     9    5   28 1   
    10    6   14 1   
    11    6   17 2   
    12    6   28 1   
    13    7   28 2   
    14    8    9 1   
    15    9   10 1   
    16   10   11 1   
    17   10   20 1   
    18   11   12 1   
    19   11   21 1   
    20   11   22 1   
    21   12   13 2   
    22   12   23 1   
    23   13   24 1   
    24   13   25 1   
    25   14   15 1   
    26   15   16 2   
    27   16   17 1   
    28   16   26 1   
    29   17   27 1   
@<TRIPOS>SUBSTRUCTURE
     1 Z60         1 TEMP              0 ****  ****    0 ROOT
