@<TRIPOS>MOLECULE
Z60
   28    28     1     0     0
SMALL
bcc


@<TRIPOS>ATOM
      1 Cl          1.4240   -0.5430   -1.9310 cl        1 Z60      0.033000
      2 N1          8.8120    0.6760    0.0360 n2        1 Z60     -0.178000
      3 C2          8.2120    0.4240    1.2910 c2        1 Z60      0.195000
      4 N3          8.9280    0.4560    2.4470 nv        1 Z60     -0.338000
      5 C4          6.8150    0.1560    1.2160 c2        1 Z60     -0.602000
      6 C6          4.6090   -0.3680    1.9180 c1        1 Z60     -0.166000
      7 O7          6.3320   -0.1940    3.5260 o         1 Z60     -0.300000
      8 S8          6.2850    0.2190   -0.3860 ss        1 Z60      0.655000
      9 C9          7.8650    0.5920   -0.9200 c2        1 Z60     -0.307000
     10 N10         8.1790    0.8050   -2.3220 ny        1 Z60      0.001000
     11 C11         7.2660    0.0490   -3.3110 c3        1 Z60     -0.060000
     12 C12         7.5450    0.5690   -4.6580 c2        1 Z60     -0.409000
     13 C13         8.4630    0.0790   -5.4920 c1        1 Z60     -0.348000
     14 S14         4.1900   -0.0590   -1.4700 s         1 Z60      0.123000
     15 C15         2.7870   -0.4040   -0.9200 c2        1 Z60     -0.161000
     16 C16         2.4150   -0.6590    0.5170 c3        1 Z60     -0.066000
     17 C17         3.5620   -0.5200    1.3580 c1        1 Z60     -0.119000
     18 H1N3        8.4600    0.2450    3.3000 hn        1 Z60      0.258500
     19 H2N3        9.9040    0.6150    2.4370 hn        1 Z60      0.258500
     20 HN10        9.1500    0.5340   -2.5290 hn        1 Z60      0.241000
     21 H111        8.1010    1.8090   -2.5320 hn        1 Z60      0.241000
     22 H211        7.5310   -1.0360   -3.1900 hx        1 Z60      0.090500
     23 H112        6.2090    0.2250   -2.9580 hx        1 Z60      0.090500
     24 H113        6.8940    1.4030   -4.9580 ha        1 Z60      0.105000
     25 H213        9.1420   -0.7340   -5.2200 ha        1 Z60      0.027000
     26 H16         1.6060    0.0640    0.8330 hc        1 Z60      0.153500
     27 H17         1.9800   -1.6980    0.6150 hc        1 Z60      0.153500
     28 C5          5.9590   -0.1400    2.3470 c2        1 Z60      0.430000
@<TRIPOS>BOND
     1    1   15 1   
     2    2    3 1   
     3    2    9 1   
     4    3    4 1   
     5    3    5 1   
     6    4   18 1   
     7    4   19 1   
     8    5    8 1   
     9    5   28 1   
    10    6   17 1   
    11    6   28 1   
    12    7   28 1   
    13    8    9 1   
    14    9   10 1   
    15   10   11 1   
    16   10   20 1   
    17   10   21 1   
    18   11   12 1   
    19   11   22 1   
    20   11   23 1   
    21   12   13 1   
    22   12   24 1   
    23   13   25 1   
    24   14   15 1   
    25   15   16 1   
    26   16   17 1   
    27   16   26 1   
    28   16   27 1   
@<TRIPOS>SUBSTRUCTURE
     1 Z60         1 TEMP              0 ****  ****    0 ROOT
