@<TRIPOS>MOLECULE
Z62
   33    34     1     0     0
SMALL
bcc


@<TRIPOS>ATOM
      1 N1          2.9880   -1.4060    0.0250 nc        1 Z62     -0.777000
      2 C2          1.7170   -1.9670    0.2740 cc        1 Z62      0.743200
      3 N3          1.5650   -3.3050    0.4640 nh        1 Z62     -0.936500
      4 C4          0.6490   -1.0220    0.3320 cd        1 Z62     -0.427000
      5 C5         -0.7340   -1.3500    0.5190 c         1 Z62      0.643300
      6 C6         -1.7040   -0.2190    0.5180 ca        1 Z62     -0.156600
      7 C7         -2.9100   -0.3760   -0.1750 ca        1 Z62     -0.024000
      8 C8         -3.8330    0.6790   -0.1850 ca        1 Z62     -0.184200
      9 C9         -3.5750    1.8750    0.5060 ca        1 Z62     -0.056000
     10 C10        -2.3780    2.0050    1.2050 ca        1 Z62     -0.146000
     11 C11        -1.4440    0.9680    1.2120 ca        1 Z62     -0.070000
     12 O12        -1.1540   -2.5150    0.6570 o         1 Z62     -0.587100
     13 S13         1.2430    0.5460    0.0860 ss        1 Z62     -0.170300
     14 C14         2.8660   -0.0660   -0.1100 cd        1 Z62      0.719300
     15 N15         3.8890    0.7890   -0.4530 nh        1 Z62     -0.824900
     16 C16         5.2610    0.3240   -0.4420 c3        1 Z62      0.230000
     17 C17         6.2370    1.4090   -0.7770 c2        1 Z62     -0.197200
     18 C18         7.3210    1.6510   -0.0440 c2        1 Z62     -0.194000
     19 N19        -5.1090    0.5300   -0.9340 no        1 Z62      0.314200
     20 O20        -5.3130   -0.4840   -1.5440 o         1 Z62     -0.207000
     21 O21        -5.9040    1.4330   -0.9100 o         1 Z62     -0.207000
     22 HN3         2.3290   -3.9210    0.3440 hn        1 Z62      0.459800
     23 HN3A        0.6450   -3.6640    0.5820 hn        1 Z62      0.459800
     24 H7         -3.1240   -1.3260   -0.6980 ha        1 Z62      0.187000
     25 H9         -4.3120    2.6960    0.4950 ha        1 Z62      0.172000
     26 H10        -2.1700    2.9340    1.7580 ha        1 Z62      0.149000
     27 H11        -0.5030    1.0810    1.7780 ha        1 Z62      0.156000
     28 HN15        3.7480    1.7450   -0.2110 hn        1 Z62      0.429800
     29 H16         5.5140   -0.1330    0.5610 h1        1 Z62      0.064700
     30 H16A        5.3520   -0.4950   -1.2170 h1        1 Z62      0.064700
     31 H17         6.0240    1.9740   -1.6990 ha        1 Z62      0.134000
     32 H18         7.5560    1.1000    0.8770 ha        1 Z62      0.118500
     33 H18A        8.0560    2.4160   -0.3270 ha        1 Z62      0.118500
@<TRIPOS>BOND
     1    1    2 1   
     2    1   14 2   
     3    2    3 1   
     4    2    4 2   
     5    3   22 1   
     6    3   23 1   
     7    4    5 1   
     8    4   13 1   
     9    5    6 1   
    10    5   12 2   
    11    6    7 ar  
    12    6   11 ar  
    13    7    8 ar  
    14    7   24 1   
    15    8    9 ar  
    16    8   19 1   
    17    9   10 ar  
    18    9   25 1   
    19   10   11 ar  
    20   10   26 1   
    21   11   27 1   
    22   13   14 1   
    23   14   15 1   
    24   15   16 1   
    25   15   28 1   
    26   16   17 1   
    27   16   29 1   
    28   16   30 1   
    29   17   18 2   
    30   17   31 1   
    31   18   32 1   
    32   18   33 1   
    33   19   20 1   
    34   19   21 1   
@<TRIPOS>SUBSTRUCTURE
     1 Z62         1 TEMP              0 ****  ****    0 ROOT
