@<TRIPOS>MOLECULE
Z62
   33    34     1     0     0
SMALL
bcc


@<TRIPOS>ATOM
      1 N1          0.0250    0.0010   -0.2470 nc        1 Z62     -0.777000
      2 C2          1.4320    0.0800   -0.1810 cc        1 Z62      0.743200
      3 N3          2.1900    0.0720   -1.3110 nh        1 Z62     -0.936500
      4 C4          1.9620    0.1940    1.1390 cd        1 Z62     -0.427000
      5 C5          3.3570    0.2390    1.4680 c         1 Z62      0.643300
      6 C6          3.7090    0.3280    2.9130 ca        1 Z62     -0.156600
      7 C7          4.7600   -0.4620    3.3920 ca        1 Z62     -0.024000
      8 C8          5.1040   -0.3900    4.7500 ca        1 Z62     -0.184200
      9 C9          4.4250    0.4770    5.6240 ca        1 Z62     -0.056000
     10 C10         3.3950    1.2680    5.1240 ca        1 Z62     -0.146000
     11 C11         3.0340    1.1950    3.7780 ca        1 Z62     -0.070000
     12 O12         4.2680    0.1840    0.6190 o         1 Z62     -0.587100
     13 S13         0.7030    0.2110    2.2740 ss        1 Z62     -0.170300
     14 C14        -0.4840    0.0440    1.0040 cd        1 Z62      0.719300
     15 N15        -1.8160   -0.1050    1.3200 nh        1 Z62     -0.824900
     16 C16        -2.8210   -0.0640    0.2780 c3        1 Z62      0.230000
     17 C17        -4.2120   -0.1760    0.8180 c2        1 Z62     -0.197200
     18 C18        -5.1880    0.6550    0.4660 c2        1 Z62     -0.194000
     19 N19         6.2070   -1.2380    5.2740 no        1 Z62      0.314200
     20 O20         6.7650   -1.9960    4.5280 o         1 Z62     -0.207000
     21 O21         6.5090   -1.1450    6.4340 o         1 Z62     -0.207000
     22 HN3         3.1810    0.0750   -1.2160 hn        1 Z62      0.459800
     23 HN3A        1.7750   -0.0800   -2.1960 hn        1 Z62      0.459800
     24 H7          5.3100   -1.1250    2.7000 ha        1 Z62      0.187000
     25 H9          4.7090    0.5290    6.6890 ha        1 Z62      0.172000
     26 H10         2.8640    1.9580    5.7980 ha        1 Z62      0.149000
     27 H11         2.2210    1.8360    3.3930 ha        1 Z62      0.156000
     28 HN15       -2.0890    0.2570    2.2080 hn        1 Z62      0.429800
     29 H16        -2.6310   -0.9360   -0.4160 h1        1 Z62      0.064700
     30 H16A       -2.7150    0.8810   -0.3340 h1        1 Z62      0.064700
     31 H17        -4.3920   -1.0240    1.5000 ha        1 Z62      0.134000
     32 H18        -5.0350    1.5060   -0.2130 ha        1 Z62      0.118500
     33 H18A       -6.2180    0.5330    0.8300 ha        1 Z62      0.118500
@<TRIPOS>BOND
     1    1    2 1   
     2    1   14 2   
     3    2    3 1   
     4    2    4 2   
     5    3   22 1   
     6    3   23 1   
     7    4    5 1   
     8    4   13 1   
     9    5    6 1   
    10    5   12 2   
    11    6    7 ar  
    12    6   11 ar  
    13    7    8 ar  
    14    7   24 1   
    15    8    9 ar  
    16    8   19 1   
    17    9   10 ar  
    18    9   25 1   
    19   10   11 ar  
    20   10   26 1   
    21   11   27 1   
    22   13   14 1   
    23   14   15 1   
    24   15   16 1   
    25   15   28 1   
    26   16   17 1   
    27   16   29 1   
    28   16   30 1   
    29   17   18 2   
    30   17   31 1   
    31   18   32 1   
    32   18   33 1   
    33   19   20 1   
    34   19   21 1   
@<TRIPOS>SUBSTRUCTURE
     1 Z62         1 TEMP              0 ****  ****    0 ROOT
