@<TRIPOS>MOLECULE
Z62
   33    34     1     0     0
SMALL
bcc


@<TRIPOS>ATOM
      1 N1          0.0230   -0.0050   -0.2460 nc        1 Z62     -0.777000
      2 C2          1.4310    0.0780   -0.1820 cc        1 Z62      0.743200
      3 N3          2.1870    0.0700   -1.3120 nv        1 Z62     -0.936500
      4 C4          1.9620    0.1950    1.1380 cd        1 Z62     -0.427000
      5 C5          3.3560    0.2430    1.4660 c         1 Z62      0.643300
      6 C6          3.7090    0.3340    2.9110 ca        1 Z62     -0.156600
      7 C7          4.7620   -0.4530    3.3900 ca        1 Z62     -0.024000
      8 C8          5.1060   -0.3780    4.7480 ca        1 Z62     -0.184200
      9 C9          4.4270    0.4890    5.6210 ca        1 Z62     -0.056000
     10 C10         3.3950    1.2780    5.1200 ca        1 Z62     -0.146000
     11 C11         3.0340    1.2020    3.7750 ca        1 Z62     -0.070000
     12 O12         4.2660    0.1880    0.6170 o         1 Z62     -0.587100
     13 S13         0.7030    0.2100    2.2740 ss        1 Z62     -0.170300
     14 C14        -0.4840    0.0390    1.0060 cd        1 Z62      0.719300
     15 N15        -1.8160   -0.1120    1.3230 nu        1 Z62     -0.824900
     16 C16        -2.8220   -0.0740    0.2810 c3        1 Z62      0.230000
     17 C17        -4.2120   -0.1900    0.8230 c2        1 Z62     -0.197200
     18 C18        -5.1910    0.6390    0.4700 c2        1 Z62     -0.194000
     19 N19         6.2110   -1.2240    5.2720 no        1 Z62      0.314200
     20 O20         6.7700   -1.9830    4.5270 o         1 Z62     -0.207000
     21 O21         6.5140   -1.1290    6.4320 o         1 Z62     -0.207000
     22 HN3         3.1780    0.0750   -1.2180 hn        1 Z62      0.459800
     23 HN3A        1.7720   -0.0840   -2.1960 hn        1 Z62      0.459800
     24 H7          5.3130   -1.1170    2.6990 ha        1 Z62      0.187000
     25 H9          4.7120    0.5430    6.6860 ha        1 Z62      0.172000
     26 H10         2.8630    1.9670    5.7940 ha        1 Z62      0.149000
     27 H11         2.2190    1.8410    3.3900 ha        1 Z62      0.156000
     28 HN15       -2.0890    0.2500    2.2110 hn        1 Z62      0.429800
     29 H16        -2.6300   -0.9480   -0.4110 h1        1 Z62      0.064700
     30 H16A       -2.7180    0.8690   -0.3320 h1        1 Z62      0.064700
     31 H17        -4.3900   -1.0370    1.5060 ha        1 Z62      0.134000
     32 H18        -5.0400    1.4890   -0.2100 ha        1 Z62      0.118500
     33 H18A       -6.2200    0.5150    0.8350 ha        1 Z62      0.118500
@<TRIPOS>BOND
     1    1    2 1   
     2    1   14 2   
     3    2    3 1   
     4    2    4 2   
     5    3   22 1   
     6    3   23 1   
     7    4    5 1   
     8    4   13 1   
     9    5    6 1   
    10    5   12 2   
    11    6    7 ar  
    12    6   11 ar  
    13    7    8 ar  
    14    7   24 1   
    15    8    9 ar  
    16    8   19 1   
    17    9   10 ar  
    18    9   25 1   
    19   10   11 ar  
    20   10   26 1   
    21   11   27 1   
    22   13   14 1   
    23   14   15 1   
    24   15   16 1   
    25   15   28 1   
    26   16   17 1   
    27   16   29 1   
    28   16   30 1   
    29   17   18 2   
    30   17   31 1   
    31   18   32 1   
    32   18   33 1   
    33   19   20 1   
    34   19   21 1   
@<TRIPOS>SUBSTRUCTURE
     1 Z62         1 TEMP              0 ****  ****    0 ROOT
