@<TRIPOS>MOLECULE
Z63
   32    33     1     0     0
SMALL
bcc


@<TRIPOS>ATOM
      1 N1          0.1090   -0.6750   -0.3660 nc        1 Z63     -0.571000
      2 C2          1.4700   -0.4600   -0.2660 cc        1 Z63      0.436200
      3 N3          2.3410   -0.6060   -1.4260 n4        1 Z63     -0.801300
      4 C4          1.9210   -0.1010    1.0310 cd        1 Z63     -0.290000
      5 C5          3.3330    0.1350    1.4280 c         1 Z63      0.633300
      6 C6          3.5250    0.4070    2.8570 ca        1 Z63     -0.157600
      7 C7          4.6430   -0.1070    3.5170 ca        1 Z63     -0.231300
      8 C8          4.7600    0.1270    4.9100 ca        1 Z63      0.441700
      9 N9          3.8570    0.8180    5.6200 nb        1 Z63     -0.596000
     10 C10         2.7970    1.3370    4.9610 ca        1 Z63      0.441700
     11 C11         2.5840    1.1640    3.5830 ca        1 Z63     -0.231300
     12 O12         4.2300    0.0400    0.5860 o         1 Z63     -0.491100
     13 S13         0.6670   -0.0280    2.0850 ss        1 Z63      0.390700
     14 C14        -0.4410   -0.4760    0.8660 cd        1 Z63      0.340300
     15 N15        -1.8730   -0.6420    1.0660 n4        1 Z63     -0.724700
     16 C16        -2.6960    0.4560    0.4120 c3        1 Z63      0.172000
     17 C17        -4.1420    0.2110    0.6420 c2        1 Z63     -0.303200
     18 C18        -4.9060    1.0190    1.3810 c2        1 Z63     -0.066000
     19 HN3         3.3280   -0.4390   -1.1380 hn        1 Z63      0.498800
     20 HN3A        2.2540   -1.5570   -1.8160 hn        1 Z63      0.498800
     21 H7          5.4170   -0.6770    2.9790 ha        1 Z63      0.161000
     22 H8          5.6340   -0.2620    5.4760 h4        1 Z63      0.066100
     23 H10         2.0990    1.9360    5.5790 h4        1 Z63      0.066100
     24 H11         1.7810    1.7400    3.0940 ha        1 Z63      0.161000
     25 HN15       -2.0710   -0.6610    2.0750 hn        1 Z63      0.475800
     26 H16        -2.4630    0.4350   -0.6930 hx        1 Z63      0.113200
     27 H16A       -2.3550    1.4380    0.8460 hx        1 Z63      0.113200
     28 H17        -4.5770   -0.6390    0.0870 ha        1 Z63      0.168000
     29 H18        -4.5220    1.8960    1.9240 ha        1 Z63      0.155500
     30 H18A       -5.9950    0.8570    1.4720 ha        1 Z63      0.155500
     31 H33         2.0770    0.0790   -2.1510 hn        1 Z63      0.498800
     32 H152       -2.1750   -1.5490    0.6670 hn        1 Z63      0.475800
@<TRIPOS>BOND
     1    1    2 1   
     2    1   14 2   
     3    2    3 1   
     4    2    4 2   
     5    3   19 1   
     6    3   20 1   
     7    3   31 1   
     8    4    5 1   
     9    4   13 1   
    10    5    6 1   
    11    5   12 2   
    12    6    7 ar  
    13    6   11 ar  
    14    7    8 ar  
    15    7   21 1   
    16    8    9 ar  
    17    8   22 1   
    18    9   10 ar  
    19   10   11 ar  
    20   10   23 1   
    21   11   24 1   
    22   13   14 1   
    23   14   15 1   
    24   15   16 1   
    25   15   25 1   
    26   15   32 1   
    27   16   17 1   
    28   16   26 1   
    29   16   27 1   
    30   17   18 2   
    31   17   28 1   
    32   18   29 1   
    33   18   30 1   
@<TRIPOS>SUBSTRUCTURE
     1 Z63         1 TEMP              0 ****  ****    0 ROOT
