@<TRIPOS>MOLECULE
Z63
   30    31     1     0     0
SMALL
bcc


@<TRIPOS>ATOM
      1 N1          0.0070    0.0130   -0.2490 nc        1 Z63     -0.776000
      2 C2          1.4140    0.0810   -0.1680 cc        1 Z63      0.738200
      3 N3          2.1840    0.0840   -1.2900 nv        1 Z63     -0.940500
      4 C4          1.9310    0.1710    1.1580 cd        1 Z63     -0.426000
      5 C5          3.3230    0.2010    1.5070 c         1 Z63      0.641300
      6 C6          3.6510    0.2440    2.9580 ca        1 Z63     -0.111600
      7 C7          4.6920   -0.5530    3.4500 ca        1 Z63     -0.214300
      8 C8          4.9840   -0.5010    4.8250 ca        1 Z63      0.387700
      9 N9          4.3230    0.2840    5.6980 nb        1 Z63     -0.655000
     10 C10         3.3340    1.0560    5.2060 ca        1 Z63      0.387700
     11 C11         2.9590    1.0710    3.8500 ca        1 Z63     -0.214300
     12 O12         4.2420    0.1670    0.6660 o         1 Z63     -0.590100
     13 S13         0.6620    0.1840    2.2800 ss        1 Z63     -0.150300
     14 C14        -0.5120    0.0420    1.0000 cd        1 Z63      0.705300
     15 N15        -1.8500   -0.1040    1.3020 nu        1 Z63     -0.821900
     16 C16        -2.8410   -0.0280    0.2470 c3        1 Z63      0.227000
     17 C17        -4.2410   -0.1320    0.7680 c2        1 Z63     -0.195200
     18 C18        -5.2040    0.7120    0.4100 c2        1 Z63     -0.197000
     19 HN3         1.7780   -0.0510   -2.1810 hn        1 Z63      0.458300
     20 HN3A        3.1730    0.0860   -1.1830 hn        1 Z63      0.458300
     21 H7          5.2710   -1.1950    2.7710 ha        1 Z63      0.157000
     22 H8          5.7940   -1.1190    5.2530 h4        1 Z63      0.024100
     23 H10         2.8150    1.6970    5.9400 h4        1 Z63      0.024100
     24 H11         2.1520    1.7360    3.5060 ha        1 Z63      0.157000
     25 HN15       -2.1270    0.2700    2.1840 hn        1 Z63      0.426800
     26 H16        -2.6540   -0.8910   -0.4590 h1        1 Z63      0.064200
     27 H16A       -2.7160    0.9250   -0.3460 h1        1 Z63      0.064200
     28 H17        -4.4380   -0.9840    1.4400 ha        1 Z63      0.134000
     29 H18        -5.0330    1.5670   -0.2590 ha        1 Z63      0.118500
     30 H18A       -6.2390    0.5980    0.7590 ha        1 Z63      0.118500
@<TRIPOS>BOND
     1    1    2 1   
     2    1   14 2   
     3    2    3 1   
     4    2    4 2   
     5    3   19 1   
     6    3   20 1   
     7    4    5 1   
     8    4   13 1   
     9    5    6 1   
    10    5   12 2   
    11    6    7 ar  
    12    6   11 ar  
    13    7    8 ar  
    14    7   21 1   
    15    8    9 ar  
    16    8   22 1   
    17    9   10 ar  
    18   10   11 ar  
    19   10   23 1   
    20   11   24 1   
    21   13   14 1   
    22   14   15 1   
    23   15   16 1   
    24   15   25 1   
    25   16   17 1   
    26   16   26 1   
    27   16   27 1   
    28   17   18 2   
    29   17   28 1   
    30   18   29 1   
    31   18   30 1   
@<TRIPOS>SUBSTRUCTURE
     1 Z63         1 TEMP              0 ****  ****    0 ROOT
