@<TRIPOS>MOLECULE
Z63
   30    31     1     0     0
SMALL
bcc


@<TRIPOS>ATOM
      1 N1          1.9740   -1.4290    0.0450 nc        1 Z63     -0.776000
      2 C2          0.6660   -1.9410    0.1870 cc        1 Z63      0.738200
      3 N3          0.4470   -3.2730    0.3580 nh        1 Z63     -0.940500
      4 C4         -0.3650   -0.9570    0.1590 cd        1 Z63     -0.426000
      5 C5         -1.7730   -1.2260    0.2320 c         1 Z63      0.641300
      6 C6         -2.6870   -0.0560    0.1330 ca        1 Z63     -0.111600
      7 C7         -3.8430   -0.1520   -0.6520 ca        1 Z63     -0.214300
      8 C8         -4.6910    0.9670   -0.7350 ca        1 Z63      0.387700
      9 N9         -4.4600    2.1270   -0.0900 nb        1 Z63     -0.655000
     10 C10        -3.3520    2.1980    0.6720 ca        1 Z63      0.387700
     11 C11        -2.4360    1.1400    0.8150 ca        1 Z63     -0.214300
     12 O12        -2.2480   -2.3730    0.3440 o         1 Z63     -0.590100
     13 S13         0.3060    0.5870   -0.0260 ss        1 Z63     -0.150300
     14 C14         1.9120   -0.0860   -0.0930 cd        1 Z63      0.705300
     15 N15         2.9940    0.7310   -0.3490 nh        1 Z63     -0.821900
     16 C16         4.3400    0.2110   -0.2150 c3        1 Z63      0.227000
     17 C17         5.3850    1.2550   -0.4580 c2        1 Z63     -0.195200
     18 C18         6.4140    1.4450    0.3640 c2        1 Z63     -0.197000
     19 HN3         1.1930   -3.9200    0.2990 hn        1 Z63      0.458300
     20 HN3A       -0.4940   -3.5940    0.4060 hn        1 Z63      0.458300
     21 H7         -4.0810   -1.0850   -1.1800 ha        1 Z63      0.157000
     22 H8         -5.6100    0.9330   -1.3490 h4        1 Z63      0.024100
     23 H10        -3.1910    3.1560    1.1970 h4        1 Z63      0.024100
     24 H11        -1.5550    1.2540    1.4660 ha        1 Z63      0.157000
     25 HN15        2.8710    1.6870   -0.0920 hn        1 Z63      0.426800
     26 H16         4.4850   -0.2560    0.8040 h1        1 Z63      0.064200
     27 H16A        4.4660   -0.6100   -0.9820 h1        1 Z63      0.064200
     28 H17         5.2730    1.8360   -1.3890 ha        1 Z63      0.134000
     29 H18         7.2010    2.1810    0.1500 ha        1 Z63      0.118500
     30 H18A        6.5480    0.8790    1.2960 ha        1 Z63      0.118500
@<TRIPOS>BOND
     1    1    2 1   
     2    1   14 2   
     3    2    3 1   
     4    2    4 2   
     5    3   19 1   
     6    3   20 1   
     7    4    5 1   
     8    4   13 1   
     9    5    6 1   
    10    5   12 2   
    11    6    7 ar  
    12    6   11 ar  
    13    7    8 ar  
    14    7   21 1   
    15    8    9 ar  
    16    8   22 1   
    17    9   10 ar  
    18   10   11 ar  
    19   10   23 1   
    20   11   24 1   
    21   13   14 1   
    22   14   15 1   
    23   15   16 1   
    24   15   25 1   
    25   16   17 1   
    26   16   26 1   
    27   16   27 1   
    28   17   18 2   
    29   17   28 1   
    30   18   29 1   
    31   18   30 1   
@<TRIPOS>SUBSTRUCTURE
     1 Z63         1 TEMP              0 ****  ****    0 ROOT
