@<TRIPOS>MOLECULE
Z64
   47    50     1     0     0
SMALL
bcc


@<TRIPOS>ATOM
      1 C1          0.2020    0.1680   -0.1270 ca        1 Z64      0.644200
      2 C3          0.5480    0.1370   -2.4350 ca        1 Z64      0.626900
      3 C5          2.2340   -0.7850   -1.2180 ca        1 Z64      0.552300
      4 C6          1.4660   -0.4780   -0.0040 ca        1 Z64     -0.314800
      5 N2         -0.2430    0.4740   -1.3710 nb        1 Z64     -0.725000
      6 C8          3.3850   -1.5000    0.5070 cc        1 Z64      0.433700
      7 C11        -0.0780    1.5920    1.7840 c3        1 Z64      0.155100
      8 C12        -1.9950    0.3770    0.8950 c3        1 Z64      0.172800
      9 C13        -2.7590    0.2830    2.2160 c3        1 Z64     -0.083400
     10 C14        -4.2270    0.0380    1.9360 c3        1 Z64     -0.076400
     11 C15        -5.0190   -0.0160    3.2310 c3        1 Z64     -0.006100
     12 N10        -0.5440    0.4170    1.0730 nh        1 Z64     -0.734300
     13 N4          1.7560   -0.4630   -2.4550 nb        1 Z64     -0.635000
     14 N9          3.4400   -1.4270   -0.8350 nd        1 Z64     -0.625700
     15 N7          2.2290   -0.9320    1.0670 na        1 Z64     -0.256300
     16 C16        -6.4390   -0.3020    2.9970 cc        1 Z64     -0.199600
     17 C20        -7.0080   -1.5670    2.5640 cc        1 Z64      0.304600
     18 C21        -6.2440   -2.7890    2.2530 c3        1 Z64     -0.121400
     19 C17        -7.5490    0.5550    3.1570 cd        1 Z64     -0.150800
     20 N18        -8.6810   -0.2150    2.8230 na        1 Z64     -0.008600
     21 N19        -8.3690   -1.4560    2.4760 nd        1 Z64     -0.497800
     22 C22        -7.6630    1.9210    3.5650 cd        1 Z64      0.323200
     23 O23        -6.4810    2.6190    3.8530 os        1 Z64     -0.348800
     24 C24        -6.8660    3.9080    4.2200 cd        1 Z64      0.242600
     25 C25        -8.2390    4.0350    4.1680 cc        1 Z64     -0.255300
     26 C26        -8.7570    2.7560    3.7460 cc        1 Z64     -0.257300
     27 H3          0.1290    0.4090   -3.4280 h5        1 Z64      0.057100
     28 H8          4.1680   -1.9470    1.1340 h5        1 Z64      0.074800
     29 H11         1.0430    1.5970    1.8140 h1        1 Z64      0.042033
     30 H11A       -0.4690    1.5350    2.8340 h1        1 Z64      0.042033
     31 H11B       -0.4290    2.5530    1.3190 h1        1 Z64      0.042033
     32 H12        -2.3670    1.2810    0.3300 h1        1 Z64      0.052700
     33 H12A       -2.2360   -0.5350    0.2780 h1        1 Z64      0.052700
     34 H13        -2.6430    1.2340    2.7970 hc        1 Z64      0.045200
     35 H13A       -2.3490   -0.5490    2.8450 hc        1 Z64      0.045200
     36 H14        -4.6310    0.8540    1.2810 hc        1 Z64      0.048700
     37 H14A       -4.3550   -0.9300    1.3820 hc        1 Z64      0.048700
     38 H15        -4.5880   -0.8170    3.8940 hc        1 Z64      0.055700
     39 H15A       -4.9100    0.9620    3.7750 hc        1 Z64      0.055700
     40 HN7         1.9430   -0.9520    2.0100 hn        1 Z64      0.319700
     41 H21        -5.9650   -2.7970    1.1690 hc        1 Z64      0.051033
     42 H21A       -5.3060   -2.8090    2.8610 hc        1 Z64      0.051033
     43 H21B       -6.8350   -3.7130    2.4710 hc        1 Z64      0.051033
     44 HN18       -9.6250    0.0920    2.8290 hn        1 Z64      0.324700
     45 H24        -6.0370    4.5630    4.4730 h4        1 Z64      0.056100
     46 H25        -8.8340    4.9150    4.3960 ha        1 Z64      0.165000
     47 H26        -9.8060    2.5130    3.6050 ha        1 Z64      0.159000
@<TRIPOS>BOND
     1    1    4 ar  
     2    1    5 ar  
     3    1   12 1   
     4    2    5 ar  
     5    2   13 ar  
     6    2   27 1   
     7    3    4 ar  
     8    3   13 ar  
     9    3   14 1   
    10    4   15 1   
    11    6   14 2   
    12    6   15 1   
    13    6   28 1   
    14    7   12 1   
    15    7   29 1   
    16    7   30 1   
    17    7   31 1   
    18    8    9 1   
    19    8   12 1   
    20    8   32 1   
    21    8   33 1   
    22    9   10 1   
    23    9   34 1   
    24    9   35 1   
    25   10   11 1   
    26   10   36 1   
    27   10   37 1   
    28   11   16 1   
    29   11   38 1   
    30   11   39 1   
    31   15   40 1   
    32   16   17 1   
    33   16   19 2   
    34   17   18 1   
    35   17   21 2   
    36   18   41 1   
    37   18   42 1   
    38   18   43 1   
    39   19   20 1   
    40   19   22 1   
    41   20   21 1   
    42   20   44 1   
    43   22   23 1   
    44   22   26 2   
    45   23   24 1   
    46   24   25 2   
    47   24   45 1   
    48   25   26 1   
    49   25   46 1   
    50   26   47 1   
@<TRIPOS>SUBSTRUCTURE
     1 Z64         1 TEMP              0 ****  ****    0 ROOT
