@<TRIPOS>MOLECULE
Z64
   47    50     1     0     0
SMALL
bcc


@<TRIPOS>ATOM
      1 C1         -3.7510   -0.0250    0.2740 ca        1 Z64      0.644200
      2 C3         -4.9680   -0.7210    2.1400 ca        1 Z64      0.626900
      3 C5         -6.1110   -0.8310    0.1760 ca        1 Z64      0.552300
      4 C6         -4.9110   -0.3180   -0.5000 ca        1 Z64     -0.314800
      5 N2         -3.8030   -0.2340    1.6130 nb        1 Z64     -0.725000
      6 C8         -6.5500   -0.6970   -1.9690 cc        1 Z64      0.433700
      7 C11        -2.6470    1.8450   -0.7470 c3        1 Z64      0.155100
      8 C12        -1.3210    0.0360    0.2070 c3        1 Z64      0.172800
      9 C13        -0.1130    0.2110   -0.7140 c3        1 Z64     -0.083400
     10 C14         1.1090   -0.4100   -0.0710 c3        1 Z64     -0.076400
     11 C15         2.3350   -0.2140   -0.9460 c3        1 Z64     -0.006100
     12 N10        -2.5800    0.4340   -0.4190 nh        1 Z64     -0.734300
     13 N4         -6.1290   -1.0300    1.5260 nb        1 Z64     -0.635000
     14 N9         -7.1160   -1.0480   -0.8010 nd        1 Z64     -0.625700
     15 N7         -5.2290   -0.2350   -1.8520 na        1 Z64     -0.256300
     16 C16         3.5280   -0.8470   -0.3730 cc        1 Z64     -0.199600
     17 C20         3.7910   -2.2730   -0.2760 cc        1 Z64      0.304600
     18 C21         2.8780   -3.3450   -0.7160 c3        1 Z64     -0.121400
     19 C17         4.6740   -0.2340    0.1790 cd        1 Z64     -0.150800
     20 N18         5.5280   -1.2860    0.5620 na        1 Z64     -0.008600
     21 N19         5.0160   -2.4800    0.2980 nd        1 Z64     -0.497800
     22 C22         5.0370    1.1370    0.3700 cd        1 Z64      0.323200
     23 O23         4.1140    2.1190   -0.0180 os        1 Z64     -0.348800
     24 C24         4.7040    3.3490    0.2710 cd        1 Z64      0.242600
     25 C25         5.9560    3.1660    0.8220 cc        1 Z64     -0.255300
     26 C26         6.1750    1.7400    0.8870 cc        1 Z64     -0.257300
     27 H3         -4.9490   -0.8770    3.2400 h5        1 Z64      0.057100
     28 H8         -7.0580   -0.7450   -2.9420 h5        1 Z64      0.074800
     29 H11        -2.4350    2.5100    0.1330 h1        1 Z64      0.042033
     30 H11A       -1.8840    2.0480   -1.5440 h1        1 Z64      0.042033
     31 H11B       -3.6640    2.0940   -1.1470 h1        1 Z64      0.042033
     32 H12        -1.4060   -1.0540    0.4790 h1        1 Z64      0.052700
     33 H12A       -1.1320    0.6140    1.1580 h1        1 Z64      0.052700
     34 H13        -0.3050   -0.2730   -1.7070 hc        1 Z64      0.045200
     35 H13A        0.0760    1.3000   -0.9010 hc        1 Z64      0.045200
     36 H14         1.2870    0.0530    0.9350 hc        1 Z64      0.048700
     37 H14A        0.9410   -1.5080    0.0910 hc        1 Z64      0.048700
     38 H15         2.1380   -0.6570   -1.9620 hc        1 Z64      0.055700
     39 H15A        2.5170    0.8860   -1.0910 hc        1 Z64      0.055700
     40 HN7        -4.6010   -0.0100   -2.5770 hn        1 Z64      0.319700
     41 H21         2.2500   -2.9760   -1.5640 hc        1 Z64      0.051033
     42 H21A        3.4380   -4.2530   -1.0490 hc        1 Z64      0.051033
     43 H21B        2.2020   -3.6370    0.1270 hc        1 Z64      0.051033
     44 HN18        6.4200   -1.1960    0.9870 hn        1 Z64      0.324700
     45 H24         4.0890    4.2070    0.0170 h4        1 Z64      0.056100
     46 H25         6.6550    3.9290    1.1500 ha        1 Z64      0.165000
     47 H26         7.0660    1.2540    1.2710 ha        1 Z64      0.159000
@<TRIPOS>BOND
     1    1    4 ar  
     2    1    5 ar  
     3    1   12 1   
     4    2    5 ar  
     5    2   13 ar  
     6    2   27 1   
     7    3    4 ar  
     8    3   13 ar  
     9    3   14 1   
    10    4   15 1   
    11    6   14 2   
    12    6   15 1   
    13    6   28 1   
    14    7   12 1   
    15    7   29 1   
    16    7   30 1   
    17    7   31 1   
    18    8    9 1   
    19    8   12 1   
    20    8   32 1   
    21    8   33 1   
    22    9   10 1   
    23    9   34 1   
    24    9   35 1   
    25   10   11 1   
    26   10   36 1   
    27   10   37 1   
    28   11   16 1   
    29   11   38 1   
    30   11   39 1   
    31   15   40 1   
    32   16   17 1   
    33   16   19 2   
    34   17   18 1   
    35   17   21 2   
    36   18   41 1   
    37   18   42 1   
    38   18   43 1   
    39   19   20 1   
    40   19   22 1   
    41   20   21 1   
    42   20   44 1   
    43   22   23 1   
    44   22   26 2   
    45   23   24 1   
    46   24   25 2   
    47   24   45 1   
    48   25   26 1   
    49   25   46 1   
    50   26   47 1   
@<TRIPOS>SUBSTRUCTURE
     1 Z64         1 TEMP              0 ****  ****    0 ROOT
