@<TRIPOS>MOLECULE
Z64
   47    38     1     0     0
SMALL
bcc


@<TRIPOS>ATOM
      1 C1          3.1780   -0.2090   -1.4260 c1        1 Z64      0.122000
      2 C3          3.9230   -0.8860   -3.5320 c1        1 Z64     -0.036000
      3 C5          4.5210   -2.1510   -1.6430 c1        1 Z64     -0.066500
      4 C6          3.8340   -1.2930   -0.8590 c1        1 Z64     -0.066500
      5 N2          3.2270   -0.0160   -2.7370 n1        1 Z64     -0.199000
      6 C8          4.6200   -2.8820    0.4130 c1        1 Z64     -0.022000
      7 C11         3.6110    1.9790   -0.1240 c3        1 Z64     -0.121000
      8 C12         1.3020    1.4460   -1.1030 c3        1 Z64     -0.064000
      9 C13         0.5050    1.4240    0.2330 c3        1 Z64     -0.163000
     10 C14        -0.9970    1.5360   -0.0590 c3        1 Z64     -0.159000
     11 C15        -1.8110    1.2090    1.2550 c3        1 Z64     -0.089000
     12 N10         2.6700    1.0390   -0.8560 n3        1 Z64     -0.225000
     13 N4          4.5710   -1.9550   -2.9750 n1        1 Z64     -0.109000
     14 N9          5.0060   -3.1330   -0.8560 n1        1 Z64     -0.166000
     15 N7          3.8970   -1.7470    0.4120 n1        1 Z64     -0.166000
     16 C16        -3.2560    0.8960    0.8940 c2        1 Z64     -0.145000
     17 C20        -4.2360    1.8080    0.6760 c1        1 Z64     -0.117000
     18 C21        -4.0830    3.3560    0.7490 c2        1 Z64     -0.144000
     19 C17        -3.8270   -0.3610    0.8280 c2        1 Z64     -0.014000
     20 N18        -5.1420   -0.2050    0.5710 n2        1 Z64     -0.143000
     21 N19        -5.4010    1.1330    0.4760 n2        1 Z64     -0.065000
     22 C22        -3.1630   -1.6020    1.0520 c2        1 Z64      0.014000
     23 O23        -2.9490   -2.1880    2.2670 os        1 Z64     -0.117000
     24 C24        -2.3550   -3.4070    2.0530 c1        1 Z64     -0.081000
     25 C25        -2.2030   -3.5740    0.6970 c1        1 Z64     -0.196000
     26 C26        -2.7010   -2.4610    0.0770 c1        1 Z64     -0.167000
     27 H3          3.9580   -0.7450   -4.4900 ha        1 Z64      0.195000
     28 H8          4.7960   -3.4330    1.1670 DU        1 Z64      0.214000
     29 H11         3.3430    2.9160   -0.3070 h1        1 Z64      0.082000
     30 H11A        3.5600    1.8050    0.8520 h1        1 Z64      0.082000
     31 H11B        4.5820    1.8270   -0.4500 h1        1 Z64      0.082000
     32 H12         0.8590    0.7930   -1.7820 h1        1 Z64      0.092500
     33 H12A        1.2950    2.3940   -1.4880 h1        1 Z64      0.092500
     34 H13         0.6830    0.5880    0.7030 hc        1 Z64      0.083500
     35 H13A        0.8000    2.2120    0.8160 hc        1 Z64      0.083500
     36 H14        -1.2120    2.4850   -0.3650 hc        1 Z64      0.089500
     37 H14A       -1.2450    0.8970   -0.7700 hc        1 Z64      0.089500
     38 H15        -1.7860    1.9790    1.8520 hc        1 Z64      0.089000
     39 H15A       -1.4080    0.4330    1.7090 hc        1 Z64      0.089000
     40 HN7         3.5270   -1.3650    1.1220 DU        1 Z64      0.214000
     41 H21        -3.3450    3.6500    0.1530 ha        1 Z64      0.089333
     42 H21A       -4.9100    3.7740    0.4670 ha        1 Z64      0.089333
     43 H21B       -3.8680    3.6340    1.7300 ha        1 Z64      0.089333
     44 HN18       -5.7580   -0.8810    0.4770 DU        1 Z64      0.214000
     45 H24        -2.0920   -4.0350    2.7310 DU        1 Z64      0.214000
     46 H25        -1.7960   -4.3740    0.2410 DU        1 Z64      0.214000
     47 H26        -2.7240   -2.3090   -0.8510 DU        1 Z64      0.214000
@<TRIPOS>BOND
     1    1    5 1   
     2    1   12 1   
     3    2   13 1   
     4    2   27 1   
     5    3    4 1   
     6    6   14 1   
     7    6   15 1   
     8    7   12 1   
     9    7   29 1   
    10    7   30 1   
    11    7   31 1   
    12    8    9 1   
    13    8   12 1   
    14    8   32 1   
    15    8   33 1   
    16    9   10 1   
    17    9   34 1   
    18    9   35 1   
    19   10   11 1   
    20   10   36 1   
    21   10   37 1   
    22   11   16 1   
    23   11   38 1   
    24   11   39 1   
    25   16   17 1   
    26   16   19 1   
    27   17   21 1   
    28   18   41 1   
    29   18   42 1   
    30   18   43 1   
    31   19   20 1   
    32   19   22 1   
    33   20   21 1   
    34   22   23 1   
    35   22   26 1   
    36   23   24 1   
    37   24   25 1   
    38   25   26 1   
@<TRIPOS>SUBSTRUCTURE
     1 Z64         1 TEMP              0 ****  ****    0 ROOT
