@<TRIPOS>MOLECULE
Z67
   41    41     1     0     0
SMALL
bcc


@<TRIPOS>ATOM
      1 C1          0.0060   -0.3940    0.2350 c2        1 Z67     -0.616000
      2 C2          1.4230   -0.5670    0.2930 c2        1 Z67      0.195000
      3 N3          1.9450   -0.5340    1.5980 n2        1 Z67     -0.238000
      4 C4          0.9400   -0.3300    2.4810 c2        1 Z67     -0.119000
      5 S5         -0.6240   -0.1680    1.7780 ss        1 Z67      0.576000
      6 C6         -0.7590   -0.4210   -0.9920 c2        1 Z67      0.422000
      7 N7          2.2360   -0.7020   -0.7950 nh        1 Z67     -0.334000
      8 N8          1.0080   -0.2370    3.8720 n2        1 Z67     -0.207000
      9 O9         -0.2700   -0.6190   -2.1220 o         1 Z67     -0.365000
     10 C10         6.7200   -0.2330    3.3380 c2        1 Z67     -0.895000
     11 C11         6.0890    0.3730    2.3730 c1        1 Z67      0.046000
     12 C12         5.4590    0.9580    1.4030 c2        1 Z67     -0.207000
     13 C13         2.1350   -0.3070    4.5190 c2        1 Z67      0.122000
     14 C14         2.1780   -0.2110    5.9670 c2        1 Z67     -0.492000
     15 C15         1.1900   -0.1090    6.8340 c1        1 Z67      0.281000
     16 O17         7.3790   -0.9680    5.6270 o         1 Z67     -0.950500
     17 N18         7.0990    1.4530    5.2540 n3        1 Z67     -0.955000
     18 O19         5.1710   -0.0700    5.3200 o         1 Z67     -0.950500
     19 N20        -2.1580   -0.2370   -0.8630 n         1 Z67     -0.301000
     20 C21        -4.9440    0.2420   -4.0910 c3        1 Z67     -0.277000
     21 C22        -3.5640    0.6130   -4.3210 c1        1 Z67     -0.042000
     22 C23        -2.5410    0.3320   -3.2910 c3        1 Z67      0.037000
     23 C24        -3.0470   -0.0780   -1.8970 c2        1 Z67      0.074000
     24 C25        -4.4250   -0.3000   -1.7290 c2        1 Z67     -0.105000
     25 C26        -5.3680   -0.2100   -2.7720 c1        1 Z67     -0.100000
     26 F27        -4.8850   -0.6560   -0.4920 f         1 Z67     -0.109000
     27 HN7         3.1740   -0.9970   -0.6730 hn        1 Z67      0.248000
     28 HN7A        1.8040   -0.8210   -1.6850 hn        1 Z67      0.248000
     29 HN8         4.4890    0.5840    1.0320 ha        1 Z67      0.169500
     30 H11         5.8450    1.8610    0.9070 ha        1 Z67      0.169500
     31 H12         3.1390   -0.4380    4.0510 h4        1 Z67      0.157000
     32 H14         3.2240   -0.2300    6.3720 ha        1 Z67      0.244000
     33 H15         7.4470   -1.0240    3.0500 h4        1 Z67      0.203000
     34 HN18        8.0460    1.6560    5.4540 hn        1 Z67      0.246500
     35 HN1A        6.5260    2.2600    5.2680 hn        1 Z67      0.246500
     36 HN20       -2.5560   -0.3500    0.0490 hn        1 Z67      0.252000
     37 H21        -5.5870    1.1370   -4.3740 hc        1 Z67      0.196000
     38 H22        -1.9890   -0.5840   -3.7110 h1        1 Z67      0.174000
     39 H26        -5.2360   -0.5470   -4.8550 hc        1 Z67      0.196000
     40 S16         6.5480   -0.0240    4.9910 s6        1 Z67      2.880000
     41 F28        -1.6230    1.3690   -3.1950 f         1 Z67     -0.119000
@<TRIPOS>BOND
     1    1    2 1   
     2    1    5 1   
     3    1    6 1   
     4    2    3 1   
     5    2    7 1   
     6    3    4 1   
     7    4    5 1   
     8    4    8 1   
     9    6    9 1   
    10    6   19 1   
    11    7   27 1   
    12    7   28 1   
    13    8   13 1   
    14   10   11 1   
    15   10   33 1   
    16   10   40 1   
    17   11   12 1   
    18   12   29 1   
    19   12   30 1   
    20   13   14 1   
    21   13   31 1   
    22   14   15 1   
    23   14   32 1   
    24   16   40 1   
    25   17   34 1   
    26   17   35 1   
    27   17   40 1   
    28   18   40 1   
    29   19   23 1   
    30   19   36 1   
    31   20   21 1   
    32   20   25 1   
    33   20   37 1   
    34   20   39 1   
    35   21   22 1   
    36   22   23 1   
    37   22   38 1   
    38   22   41 1   
    39   23   24 1   
    40   24   25 1   
    41   24   26 1   
@<TRIPOS>SUBSTRUCTURE
     1 Z67         1 TEMP              0 ****  ****    0 ROOT
