@<TRIPOS>MOLECULE
Z67
   41    43     1     0     0
SMALL
bcc


@<TRIPOS>ATOM
      1 C1         -1.7380   -0.5250    0.0860 cc        1 Z67     -0.404000
      2 C2         -0.7080   -1.4840   -0.1060 cd        1 Z67      0.724200
      3 N3          0.6010   -0.9590    0.0130 nd        1 Z67     -0.741000
      4 C4          0.5320    0.3610    0.2610 cc        1 Z67      0.699300
      5 S5         -1.0850    1.0040    0.3770 ss        1 Z67     -0.133300
      6 C6         -3.1590   -0.8350    0.0650 c         1 Z67      0.736700
      7 N7         -0.9140   -2.7950   -0.4200 nh        1 Z67     -0.931500
      8 N8          1.6050    1.2360    0.3900 nh        1 Z67     -0.711300
      9 O9         -3.6060   -1.9980   -0.0030 o         1 Z67     -0.609100
     10 C10         5.7060    0.2950   -0.0820 ca        1 Z67     -0.409500
     11 C11         4.7420   -0.3100   -0.8950 ca        1 Z67      0.005500
     12 C12         3.3870   -0.0400   -0.7500 ca        1 Z67     -0.182500
     13 C13         2.9530    0.8580    0.2500 ca        1 Z67      0.204600
     14 C14         3.9240    1.4670    1.0840 ca        1 Z67     -0.182500
     15 C15         5.2700    1.1820    0.9090 ca        1 Z67      0.005500
     16 O17         7.4590   -1.3610   -0.8070 o         1 Z67     -0.658800
     17 N18         7.8400    1.0040   -1.3480 n3        1 Z67     -1.026700
     18 O19         7.9920    0.1930    0.9660 o         1 Z67     -0.658800
     19 N20        -4.0320    0.2620    0.1660 n         1 Z67     -0.462100
     20 C21        -8.2550   -0.0350   -0.0930 ca        1 Z67     -0.098000
     21 C22        -7.5620   -0.8710    0.7720 ca        1 Z67     -0.164500
     22 C23        -6.1610   -0.7860    0.8750 ca        1 Z67      0.130400
     23 C24        -5.4280    0.1350    0.0740 ca        1 Z67     -0.010400
     24 C25        -6.1770    0.9790   -0.7990 ca        1 Z67      0.130400
     25 C26        -7.5750    0.8960   -0.8720 ca        1 Z67     -0.164500
     26 F27        -5.5310    1.8950   -1.5650 f         1 Z67     -0.128900
     27 HN7        -1.8460   -3.1440   -0.3530 hn        1 Z67      0.457800
     28 HN7A       -0.1550   -3.4310   -0.4070 hn        1 Z67      0.457800
     29 HN8         1.4430    1.9800    1.0390 hn        1 Z67      0.440800
     30 H11         5.0650   -1.0340   -1.6650 ha        1 Z67      0.156000
     31 H12         2.6670   -0.5340   -1.4200 ha        1 Z67      0.152000
     32 H14         3.6220    2.1660    1.8780 ha        1 Z67      0.152000
     33 H15         6.0140    1.6470    1.5810 ha        1 Z67      0.156000
     34 HN18        8.2020    1.8930   -1.1150 hn        1 Z67      0.446800
     35 HN1A        7.8410    0.8340   -2.3220 hn        1 Z67      0.446800
     36 HN20       -3.6750    1.1560   -0.0980 hn        1 Z67      0.317500
     37 H21        -9.3510   -0.1070   -0.1620 ha        1 Z67      0.145000
     38 H22        -8.0940   -1.6060    1.3940 ha        1 Z67      0.154500
     39 H26        -8.1180    1.5660   -1.5540 ha        1 Z67      0.154500
     40 S16         7.3440   -0.0650   -0.2620 sy        1 Z67      1.531200
     41 F28        -5.5250   -1.5960    1.7510 f         1 Z67     -0.128900
@<TRIPOS>BOND
     1    1    2 2   
     2    1    5 1   
     3    1    6 1   
     4    2    3 1   
     5    2    7 1   
     6    3    4 2   
     7    4    5 1   
     8    4    8 1   
     9    6    9 2   
    10    6   19 1   
    11    7   27 1   
    12    7   28 1   
    13    8   13 1   
    14    8   29 1   
    15   10   11 ar  
    16   10   15 ar  
    17   10   40 1   
    18   11   12 ar  
    19   11   30 1   
    20   12   13 ar  
    21   12   31 1   
    22   13   14 ar  
    23   14   15 ar  
    24   14   32 1   
    25   15   33 1   
    26   16   40 2   
    27   17   34 1   
    28   17   35 1   
    29   17   40 1   
    30   18   40 2   
    31   19   23 1   
    32   19   36 1   
    33   20   21 ar  
    34   20   25 ar  
    35   20   37 1   
    36   21   22 ar  
    37   21   38 1   
    38   22   23 ar  
    39   22   41 1   
    40   23   24 ar  
    41   24   25 ar  
    42   24   26 1   
    43   25   39 1   
@<TRIPOS>SUBSTRUCTURE
     1 Z67         1 TEMP              0 ****  ****    0 ROOT
