@<TRIPOS>MOLECULE
Z68
   42    44     1     0     0
SMALL
bcc


@<TRIPOS>ATOM
      1 C1          0.0780    0.2550   -0.0760 ca        1 Z68     -0.055000
      2 N1          2.1960   -0.1810   -1.3260 no        1 Z68      0.314200
      3 O1          1.5980   -0.0660   -2.3630 o         1 Z68     -0.209500
      4 S1          4.2110    1.2650    2.6490 ss        1 Z68     -0.161300
      5 C2          1.4530   -0.0340   -0.0480 ca        1 Z68     -0.184200
      6 N2          5.4220    1.0080    4.9550 nc        1 Z68     -0.777000
      7 O2          3.3760   -0.4060   -1.2940 o         1 Z68     -0.209500
      8 C3          2.1370   -0.1870    1.1700 ca        1 Z68     -0.049000
      9 N3          6.5740    2.3950    3.3270 nu        1 Z68     -0.814900
     10 O3          1.5050   -0.8120    4.6000 o         1 Z68     -0.595100
     11 C4          1.4320   -0.0450    2.3670 ca        1 Z68     -0.156600
     12 N4          3.8140   -0.3170    6.1700 nv        1 Z68     -0.940500
     13 C5          0.0580    0.2260    2.3430 ca        1 Z68     -0.044000
     14 C6         -0.6090    0.3820    1.1290 ca        1 Z68     -0.148000
     15 C7          2.1030   -0.2070    3.6880 c         1 Z68      0.645300
     16 C8          3.4010    0.3780    3.8440 cd        1 Z68     -0.431000
     17 C9          4.1870    0.3320    5.0350 cc        1 Z68      0.744200
     18 C10         5.5480    1.5670    3.7310 cd        1 Z68      0.721300
     19 C11         7.8010    2.5140    4.1020 c3        1 Z68      0.205500
     20 C12         8.5900    3.7630    3.6680 c3        1 Z68     -0.093400
     21 C13         9.8100    3.9370    4.5480 c3        1 Z68     -0.074400
     22 C14        10.7070    2.7180    4.5040 c3        1 Z68     -0.081400
     23 C15         9.9410    1.4650    4.8770 c3        1 Z68     -0.074400
     24 C16         8.7180    1.2820    4.0040 c3        1 Z68     -0.093400
     25 H1         -0.4470    0.3740   -1.0400 ha        1 Z68      0.171000
     26 H3          3.2170   -0.4310    1.1730 ha        1 Z68      0.182000
     27 HN3         6.6980    2.4480    2.3380 hn        1 Z68      0.422800
     28 H1N4        2.9280   -0.7680    6.1910 hn        1 Z68      0.459800
     29 H2N4        4.3850   -0.2950    6.9780 hn        1 Z68      0.459800
     30 H5         -0.4890    0.3060    3.2970 ha        1 Z68      0.162000
     31 H6         -1.6880    0.6020    1.1180 ha        1 Z68      0.151000
     32 H11         7.5040    2.6470    5.1860 h1        1 Z68      0.088700
     33 H112        8.9090    3.6610    2.5980 hc        1 Z68      0.049200
     34 H212        7.9400    4.6730    3.7480 hc        1 Z68      0.049200
     35 H113       10.3830    4.8380    4.2050 hc        1 Z68      0.045700
     36 H213        9.4860    4.1270    5.6050 hc        1 Z68      0.045700
     37 H114       11.5660    2.8570    5.2100 hc        1 Z68      0.043200
     38 H214       11.1330    2.6030    3.4730 hc        1 Z68      0.043200
     39 H115       10.6080    0.5710    4.7690 hc        1 Z68      0.045700
     40 H215        9.6270    1.5240    5.9520 hc        1 Z68      0.045700
     41 H116        9.0340    1.1280    2.9390 hc        1 Z68      0.049200
     42 H216        8.1590    0.3670    4.3330 hc        1 Z68      0.049200
@<TRIPOS>BOND
     1    1    5 ar  
     2    1   14 ar  
     3    1   25 1   
     4    2    3 1   
     5    2    5 1   
     6    2    7 1   
     7    4   16 1   
     8    4   18 1   
     9    5    8 ar  
    10    6   17 1   
    11    6   18 2   
    12    8   11 ar  
    13    8   26 1   
    14    9   18 1   
    15    9   19 1   
    16    9   27 1   
    17   10   15 2   
    18   11   13 ar  
    19   11   15 1   
    20   12   17 1   
    21   12   28 1   
    22   12   29 1   
    23   13   14 ar  
    24   13   30 1   
    25   14   31 1   
    26   15   16 1   
    27   16   17 2   
    28   19   20 1   
    29   19   24 1   
    30   19   32 1   
    31   20   21 1   
    32   20   33 1   
    33   20   34 1   
    34   21   22 1   
    35   21   35 1   
    36   21   36 1   
    37   22   23 1   
    38   22   37 1   
    39   22   38 1   
    40   23   24 1   
    41   23   39 1   
    42   23   40 1   
    43   24   41 1   
    44   24   42 1   
@<TRIPOS>SUBSTRUCTURE
     1 Z68         1 TEMP              0 ****  ****    0 ROOT
