@<TRIPOS>MOLECULE
Z68
   42    44     1     0     0
SMALL
bcc


@<TRIPOS>ATOM
      1 C1          5.0800    0.6540   -0.5850 ca        1 Z68     -0.055000
      2 N1          3.9260    2.5160    0.6140 no        1 Z68      0.314200
      3 O1          4.8590    3.2360    0.3770 o         1 Z68     -0.209500
      4 S1          0.0720    0.0290   -0.3430 ss        1 Z68     -0.161300
      5 C2          3.9670    1.1070    0.1420 ca        1 Z68     -0.184200
      6 N2         -1.9000   -1.6210    0.1450 nc        1 Z68     -0.777000
      7 O2          2.9610    2.9020    1.2170 o         1 Z68     -0.209500
      8 C3          2.8920    0.2510    0.4310 ca        1 Z68     -0.049000
      9 N3         -2.5590    0.5720   -0.6640 nh        1 Z68     -0.814900
     10 O3          2.1120   -3.2030    0.5760 o         1 Z68     -0.595100
     11 C4          2.9370   -1.0700   -0.0180 ca        1 Z68     -0.156600
     12 N4         -0.6880   -3.6100    0.7740 nh        1 Z68     -0.940500
     13 C5          4.0530   -1.5310   -0.7290 ca        1 Z68     -0.044000
     14 C6          5.1110   -0.6700   -1.0150 ca        1 Z68     -0.148000
     15 C7          1.8300   -2.0270    0.2690 c         1 Z68      0.645300
     16 C8          0.4890   -1.5410    0.1400 cd        1 Z68     -0.431000
     17 C9         -0.6910   -2.3130    0.3650 cc        1 Z68      0.744200
     18 C10        -1.6280   -0.3590   -0.2560 cd        1 Z68      0.721300
     19 C11        -3.9810    0.3800   -0.4200 c3        1 Z68      0.205500
     20 C12        -4.8100    1.3320   -1.3020 c3        1 Z68     -0.093400
     21 C13        -6.2870    1.0540   -1.1190 c3        1 Z68     -0.074400
     22 C14        -6.7050    1.1960    0.3300 c3        1 Z68     -0.081400
     23 C15        -5.8680    0.3070    1.2270 c3        1 Z68     -0.074400
     24 C16        -4.3890    0.5760    1.0500 c3        1 Z68     -0.093400
     25 H1          5.9170    1.3380   -0.8070 ha        1 Z68      0.171000
     26 H3          2.0300    0.6210    1.0200 ha        1 Z68      0.182000
     27 HN3        -2.2490    1.5200   -0.6060 hn        1 Z68      0.422800
     28 H1N4       -1.5350   -4.1070    0.8890 hn        1 Z68      0.459800
     29 H2N4        0.1860   -4.0660    0.9010 hn        1 Z68      0.459800
     30 H5          4.0850   -2.5860   -1.0510 ha        1 Z68      0.162000
     31 H6          5.9810   -1.0370   -1.5810 ha        1 Z68      0.151000
     32 H11        -4.2340   -0.6820   -0.7170 h1        1 Z68      0.088700
     33 H112       -4.5900    2.3960   -1.0270 hc        1 Z68      0.049200
     34 H212       -4.5350    1.1910   -2.3800 hc        1 Z68      0.049200
     35 H113       -6.8760    1.7690   -1.7520 hc        1 Z68      0.045700
     36 H213       -6.5210    0.0170   -1.4770 hc        1 Z68      0.045700
     37 H114       -6.5910    2.2650    0.6500 hc        1 Z68      0.043200
     38 H214       -7.7870    0.9260    0.4370 hc        1 Z68      0.043200
     39 H115       -6.1500    0.4830    2.2980 hc        1 Z68      0.045700
     40 H215       -6.0830   -0.7690    0.9950 hc        1 Z68      0.045700
     41 H116       -3.8040   -0.1240    1.7020 hc        1 Z68      0.049200
     42 H216       -4.1550    1.6240    1.3730 hc        1 Z68      0.049200
@<TRIPOS>BOND
     1    1    5 ar  
     2    1   14 ar  
     3    1   25 1   
     4    2    3 1   
     5    2    5 1   
     6    2    7 1   
     7    4   16 1   
     8    4   18 1   
     9    5    8 ar  
    10    6   17 1   
    11    6   18 2   
    12    8   11 ar  
    13    8   26 1   
    14    9   18 1   
    15    9   19 1   
    16    9   27 1   
    17   10   15 2   
    18   11   13 ar  
    19   11   15 1   
    20   12   17 1   
    21   12   28 1   
    22   12   29 1   
    23   13   14 ar  
    24   13   30 1   
    25   14   31 1   
    26   15   16 1   
    27   16   17 2   
    28   19   20 1   
    29   19   24 1   
    30   19   32 1   
    31   20   21 1   
    32   20   33 1   
    33   20   34 1   
    34   21   22 1   
    35   21   35 1   
    36   21   36 1   
    37   22   23 1   
    38   22   37 1   
    39   22   38 1   
    40   23   24 1   
    41   23   39 1   
    42   23   40 1   
    43   24   41 1   
    44   24   42 1   
@<TRIPOS>SUBSTRUCTURE
     1 Z68         1 TEMP              0 ****  ****    0 ROOT
