@<TRIPOS>MOLECULE
Z68
   42    44     1     0     0
SMALL
bcc


@<TRIPOS>ATOM
      1 C1          0.0740    0.2650   -0.0730 ca        1 Z68     -0.055000
      2 N1          2.1900   -0.1690   -1.3260 no        1 Z68      0.314200
      3 O1          1.5910   -0.0510   -2.3620 o         1 Z68     -0.209500
      4 S1          4.2110    1.2670    2.6500 ss        1 Z68     -0.161300
      5 C2          1.4480   -0.0240   -0.0460 ca        1 Z68     -0.184200
      6 N2          5.4240    1.0050    4.9540 nc        1 Z68     -0.778000
      7 O2          3.3700   -0.3960   -1.2950 o         1 Z68     -0.209500
      8 C3          2.1340   -0.1800    1.1700 ca        1 Z68     -0.049000
      9 N3          6.5750    2.3930    3.3280 nh        1 Z68     -0.814900
     10 O3          1.5050   -0.8120    4.5990 o         1 Z68     -0.595100
     11 C4          1.4310   -0.0410    2.3680 ca        1 Z68     -0.156600
     12 N4          3.8160   -0.3220    6.1680 nh        1 Z68     -0.940500
     13 C5          0.0560    0.2320    2.3460 ca        1 Z68     -0.044000
     14 C6         -0.6120    0.3900    1.1330 ca        1 Z68     -0.148000
     15 C7          2.1030   -0.2060    3.6880 c         1 Z68      0.645300
     16 C8          3.4010    0.3780    3.8440 cd        1 Z68     -0.431000
     17 C9          4.1880    0.3290    5.0340 cc        1 Z68      0.744200
     18 C10         5.5490    1.5660    3.7310 cd        1 Z68      0.721300
     19 C11         7.8030    2.5100    4.1020 c3        1 Z68      0.205500
     20 C12         8.5920    3.7590    3.6700 c3        1 Z68     -0.093400
     21 C13         9.8140    3.9310    4.5490 c3        1 Z68     -0.074400
     22 C14        10.7090    2.7110    4.5020 c3        1 Z68     -0.081400
     23 C15         9.9430    1.4580    4.8730 c3        1 Z68     -0.074400
     24 C16         8.7190    1.2780    4.0010 c3        1 Z68     -0.093400
     25 H1         -0.4520    0.3860   -1.0350 ha        1 Z68      0.171000
     26 H3          3.2140   -0.4250    1.1710 ha        1 Z68      0.182000
     27 HN3         6.6980    2.4490    2.3380 hn        1 Z68      0.422800
     28 H1N4        2.9300   -0.7720    6.1890 hn        1 Z68      0.459800
     29 H2N4        4.3880   -0.3020    6.9750 hn        1 Z68      0.459800
     30 H5         -0.4900    0.3100    3.3010 ha        1 Z68      0.162000
     31 H6         -1.6900    0.6110    1.1230 ha        1 Z68      0.151000
     32 H11         7.5070    2.6410    5.1860 h1        1 Z68      0.088700
     33 H112        7.9430    4.6690    3.7520 hc        1 Z68      0.049200
     34 H212        8.9110    3.6590    2.5990 hc        1 Z68      0.049200
     35 H113       10.3880    4.8320    4.2070 hc        1 Z68      0.045700
     36 H213        9.4910    4.1190    5.6070 hc        1 Z68      0.045700
     37 H114       11.5690    2.8480    5.2070 hc        1 Z68      0.043200
     38 H214       11.1350    2.5980    3.4700 hc        1 Z68      0.043200
     39 H115        9.6300    1.5150    5.9490 hc        1 Z68      0.045700
     40 H215       10.6090    0.5630    4.7630 hc        1 Z68      0.045700
     41 H116        9.0340    1.1260    2.9360 hc        1 Z68      0.049200
     42 H216        8.1600    0.3630    4.3290 hc        1 Z68      0.049200
@<TRIPOS>BOND
     1    1    5 ar  
     2    1   14 ar  
     3    1   25 1   
     4    2    3 1   
     5    2    5 1   
     6    2    7 1   
     7    4   16 1   
     8    4   18 1   
     9    5    8 ar  
    10    6   17 1   
    11    6   18 2   
    12    8   11 ar  
    13    8   26 1   
    14    9   18 1   
    15    9   19 1   
    16    9   27 1   
    17   10   15 2   
    18   11   13 ar  
    19   11   15 1   
    20   12   17 1   
    21   12   28 1   
    22   12   29 1   
    23   13   14 ar  
    24   13   30 1   
    25   14   31 1   
    26   15   16 1   
    27   16   17 2   
    28   19   20 1   
    29   19   24 1   
    30   19   32 1   
    31   20   21 1   
    32   20   33 1   
    33   20   34 1   
    34   21   22 1   
    35   21   35 1   
    36   21   36 1   
    37   22   23 1   
    38   22   37 1   
    39   22   38 1   
    40   23   24 1   
    41   23   39 1   
    42   23   40 1   
    43   24   41 1   
    44   24   42 1   
@<TRIPOS>SUBSTRUCTURE
     1 Z68         1 TEMP              0 ****  ****    0 ROOT
