@<TRIPOS>MOLECULE
Z70
   24    24     1     0     0
SMALL
bcc


@<TRIPOS>ATOM
      1 CA          2.2760   -0.4120   -0.6060 c3        1 Z70      0.017500
      2 C           3.1820    0.8650   -0.5340 c         1 Z70      0.888600
      3 C3         -1.5580   -0.7090   -0.2840 cc        1 Z70     -0.167900
      4 C4         -3.4120    0.4890    0.1860 cc        1 Z70      0.494400
      5 C5         -2.6830   -1.5580   -0.1370 cd        1 Z70      0.257200
      6 C6          0.8470   -0.0010   -0.2520 c3        1 Z70     -0.071400
      7 C7         -0.1620   -1.0740   -0.6040 c3        1 Z70     -0.017100
      8 N           2.7640   -1.5410    0.1760 n3        1 Z70     -0.893800
      9 N2         -2.0270    0.5840   -0.0820 na        1 Z70     -0.270900
     10 N3         -3.8180   -0.8230    0.1510 nd        1 Z70     -0.699000
     11 N4         -4.1940    1.6550    0.4370 nh        1 Z70     -0.867500
     12 OXT         2.7420    1.9210   -1.0670 o         1 Z70     -0.841300
     13 O           4.3060    0.7610    0.0330 o         1 Z70     -0.841300
     14 H1          2.2890   -0.7450   -1.6850 h1        1 Z70      0.041700
     15 H5         -2.7100   -2.6430   -0.2230 h4        1 Z70      0.032100
     16 H6          0.7770    0.2450    0.8400 hc        1 Z70      0.050200
     17 H6A         0.6390    0.9420   -0.8280 hc        1 Z70      0.050200
     18 H7          0.0840   -2.0240   -0.0570 hc        1 Z70      0.060700
     19 H7A        -0.0960   -1.2980   -1.7050 hc        1 Z70      0.060700
     20 H           3.7590   -1.5970    0.0250 hn        1 Z70      0.333300
     21 H2          2.6400   -1.3300    1.1510 hn        1 Z70      0.333300
     22 HN4        -4.5290    1.6280    1.3830 hn        1 Z70      0.365300
     23 HN4A       -4.9770    1.6680   -0.1910 hn        1 Z70      0.365300
     24 HN2        -1.4830    1.4090   -0.1030 hn        1 Z70      0.320700
@<TRIPOS>BOND
     1    1    2 1   
     2    1    6 1   
     3    1    8 1   
     4    1   14 1   
     5    2   12 1   
     6    2   13 1   
     7    3    5 2   
     8    3    7 1   
     9    3    9 1   
    10    4    9 1   
    11    4   10 2   
    12    4   11 1   
    13    5   10 1   
    14    5   15 1   
    15    6    7 1   
    16    6   16 1   
    17    6   17 1   
    18    7   18 1   
    19    7   19 1   
    20    8   20 1   
    21    8   21 1   
    22    9   24 1   
    23   11   22 1   
    24   11   23 1   
@<TRIPOS>SUBSTRUCTURE
     1 Z70         1 TEMP              0 ****  ****    0 ROOT
