@<TRIPOS>MOLECULE
Z71
   45    43     1     0     0
SMALL
bcc


@<TRIPOS>ATOM
      1 C1         -7.8020  161.6760 -373.1780 c2        1 Z71     -0.464000
      2 C2         -8.6540  162.6480 -372.6060 c2        1 Z71     -0.113000
      3 N3         -8.0130  163.8100 -372.1760 n2        1 Z71     -0.065000
      4 C4         -6.7070  163.6750 -372.4370 c2        1 Z71     -0.381000
      5 S5         -6.2350  162.2330 -373.1650 ss        1 Z71      0.826000
      6 C6         -8.2580  160.3760 -373.6980 c2        1 Z71      0.394000
      7 N7        -10.0940  162.4980 -372.4560 n4        1 Z71      0.007000
      8 N8       -744.0030-1129.1720    0.3970 n2        1 Z71     -0.229000
      9 O9         -9.4620  160.0380 -373.6600 o         1 Z71     -0.371000
     10 C10       935.1430  449.6360  352.5300 c2        1 Z71     -1.055000
     11 C11       936.0370  449.6510  351.5620 c1        1 Z71      0.129000
     12 C12       936.8870  449.6210  350.5910 c2        1 Z71     -0.148000
     13 C13      -744.2190-1129.5210    0.3110 c1        1 Z71     -0.504000
     14 C14      -744.4900-1129.9400    0.0210 cu        1 Z71      0.489000
     15 C15      -743.7550-1129.9250    0.9000 cx        1 Z71      0.653000
     16 O17       936.4620  450.6970  354.3980 o         1 Z71     -0.840000
     17 N18       934.2710  451.8310  353.7510 n4        1 Z71     -0.509000
     18 O19       934.3960  449.5730  354.9110 o         1 Z71     -0.840000
     19 N20        -7.3150  159.5210 -374.2370 n         1 Z71     -0.210000
     20 C21     -1168.0400 -176.3210-1217.6730 c2        1 Z71     -0.023000
     21 C22     -1166.8670 -176.1310-1216.8300 c2        1 Z71     -0.248000
     22 C23     -1166.8380 -175.0890-1215.9380 c1        1 Z71      0.514000
     23 C24        -6.0070  159.8440 -374.2970 c1        1 Z71     -0.134000
     24 C25        -4.8300  160.0770 -374.3770 c1        1 Z71     -0.128000
     25 C26     -1168.1870 -177.2660-1218.5550 c1        1 Z71      0.310000
     26 F28     -1168.3610 -178.1550-1219.4050 f         1 Z71      0.211000
     27 HN7       -10.5730  163.2050 -373.0290 hn        1 Z71      0.280333
     28 HN7A      -10.3550  162.6310 -371.4710 hn        1 Z71      0.280333
     29 HN8        -6.0230  164.4960 -372.1680 h5        1 Z71      0.236000
     30 H11       937.6510  448.8230  350.5000 ha        1 Z71      0.217000
     31 H12       936.9220  450.3860  349.7920 ha        1 Z71      0.217000
     32 H14      -745.5220-1130.3810    0.8690 DU        1 Z71      0.254000
     33 H15       934.2110  449.0620  352.2770 h4        1 Z71      0.241000
     34 HN18      933.9390  451.9440  352.7990 hn        1 Z71      0.251667
     35 HN1A      933.4600  451.8600  354.3680 hn        1 Z71      0.251667
     36 HN20      333.6210 -290.8400  319.1730 ha        1 Z71      0.000000
     37 H21     -1168.8870 -175.5910-1217.5520 ha        1 Z71      0.280000
     38 H23        -7.6060  158.6300 -374.5960 hn        1 Z71      0.296000
     39 H25        -3.7860  160.2690 -374.4550 ha        1 Z71      0.266000
     40 F27     -1165.8350 -177.0070-1216.9640 f         1 Z71     -0.044000
     41 H73       -10.3730  161.5470 -372.7700 hn        1 Z71      0.280333
     42 H82      -743.8190-1128.8760    0.3210 DU        1 Z71      0.338000
     43 H183      934.8600  452.6310  353.9760 hn        1 Z71      0.251667
     44 H202      333.6680 -290.5510  318.5630 ha        1 Z71      0.000000
     45 S16       935.2420  450.1890  354.0170 s6        1 Z71      2.834000
@<TRIPOS>BOND
     1    1    2 1   
     2    1    5 1   
     3    1    6 1   
     4    2    3 1   
     5    2    7 1   
     6    3    4 1   
     7    4    5 1   
     8    4   29 1   
     9    6    9 1   
    10    6   19 1   
    11    7   27 1   
    12    7   28 1   
    13    7   41 1   
    14    8   14 1   
    15    8   15 1   
    16   10   11 1   
    17   10   33 1   
    18   10   45 1   
    19   11   12 1   
    20   12   30 1   
    21   12   31 1   
    22   13   15 1   
    23   13   42 1   
    24   14   15 1   
    25   14   42 1   
    26   15   42 1   
    27   16   45 1   
    28   17   34 1   
    29   17   35 1   
    30   17   43 1   
    31   17   45 1   
    32   18   45 1   
    33   19   23 1   
    34   19   38 1   
    35   20   21 1   
    36   20   25 1   
    37   20   37 1   
    38   21   22 1   
    39   21   40 1   
    40   23   24 1   
    41   24   39 1   
    42   25   26 1   
    43   36   44 1   
@<TRIPOS>SUBSTRUCTURE
     1 Z71         1 TEMP              0 ****  ****    0 ROOT
