@<TRIPOS>MOLECULE
Z71
   42    41     1     0     0
SMALL
bcc


@<TRIPOS>ATOM
      1 C1          0.2150    0.0680   -1.0670 c2        1 Z71     -0.646000
      2 C2          1.4640    0.2090   -1.7310 c2        1 Z71      0.273000
      3 N3          2.5130    0.3060   -0.7850 na        1 Z71     -0.256000
      4 C4          2.0440    0.2240    0.5290 c2        1 Z71     -0.140000
      5 S5          0.3780    0.0400    0.5880 ss        1 Z71      0.914000
      6 C6         -1.0600   -0.0580   -1.7960 c2        1 Z71      0.402000
      7 N7          1.6720    0.2650   -3.0660 nv        1 Z71     -0.328000
      8 N8          2.7470    0.2460    1.7040 n2        1 Z71     -0.214000
      9 O9         -1.0810   -0.1630   -3.0430 o         1 Z71     -0.382000
     10 C10         6.0190    0.3140    5.2380 c2        1 Z71     -1.105000
     11 C11         7.4500    0.6310    5.1520 c2        1 Z71     -0.095000
     12 C12         8.0140    1.3480    4.1810 c2        1 Z71     -0.202000
     13 C13         4.0440    0.4640    1.7980 c2        1 Z71      0.215000
     14 C14         4.7080    0.4360    3.0110 c1        1 Z71     -0.281000
     15 C15         5.2990    0.3830    4.0680 c1        1 Z71      0.176000
     16 O17         6.3020   -0.4010    7.6080 o         1 Z71     -0.478900
     17 N18         5.0350    2.0120    7.3680 n9        1 Z71     -0.481000
     18 O19         4.1330   -0.4900    6.6570 o         1 Z71     -0.478900
     19 N20        -2.2050   -0.0700   -1.0290 ns        1 Z71     -0.297000
     20 C21        -5.9590   -1.7210   -2.7630 c1        1 Z71     -0.265000
     21 C22        -5.2860   -0.5490   -3.2860 c3        1 Z71      0.228000
     22 C23        -3.8610   -0.5040   -2.7760 c2        1 Z71     -0.085000
     23 C24        -3.5400   -0.1330   -1.5040 c2        1 Z71     -0.073000
     24 C25        -4.4970    0.1540   -0.4680 c1        1 Z71     -0.063000
     25 C26        -6.5400   -2.6870   -2.3670 c1        1 Z71      0.080000
     26 F28        -7.1610   -3.7200   -1.9060 f         1 Z71      0.029000
     27 HN7         0.8750    0.1620   -3.6680 hn        1 Z71      0.281500
     28 HN7A        2.5780    0.3470   -3.4590 hn        1 Z71      0.281500
     29 HN8         3.4710    0.3980   -1.0340 hn        1 Z71      0.278000
     30 H11         7.4470    1.7710    3.3430 ha        1 Z71      0.121000
     31 H12         9.0940    1.5490    4.1670 ha        1 Z71      0.121000
     32 H14         4.7000    0.6900    0.9220 h4        1 Z71      0.124000
     33 H15         8.0640    0.2140    5.9730 ha        1 Z71      0.144000
     34 HN18        5.3300    2.7070    6.7070 hn        1 Z71      0.197000
     35 HN1A        4.0520    2.1170    7.5470 hn        1 Z71      0.197000
     36 HN20       -2.1460    0.1060   -0.0460 hn        1 Z71      0.248000
     37 H21        -5.8490    0.3760   -2.9350 h1        1 Z71      0.128000
     38 H23        -3.1050   -0.7940   -3.5320 ha        1 Z71      0.190000
     39 H25        -5.5510    0.2360   -0.7600 ha        1 Z71      0.081000
     40 F27        -5.2890   -0.5220   -4.6760 f         1 Z71     -0.137000
     41 H183        5.5430    2.1320    8.2260 hn        1 Z71      0.197000
     42 S16         5.4460   -0.1010    6.5790 s4        1 Z71      2.101800
@<TRIPOS>BOND
     1    1    2 1   
     2    1    5 1   
     3    1    6 1   
     4    2    3 1   
     5    2    7 1   
     6    3    4 1   
     7    3   29 1   
     8    4    5 1   
     9    4    8 1   
    10    6    9 1   
    11    6   19 1   
    12    7   27 1   
    13    7   28 1   
    14    8   13 1   
    15   10   11 1   
    16   10   15 1   
    17   10   42 1   
    18   11   12 1   
    19   11   33 1   
    20   12   30 1   
    21   12   31 1   
    22   13   14 1   
    23   13   32 1   
    24   14   15 1   
    25   16   42 1   
    26   17   34 1   
    27   17   35 1   
    28   17   41 1   
    29   18   42 1   
    30   19   23 1   
    31   19   36 1   
    32   20   21 1   
    33   20   25 1   
    34   21   22 1   
    35   21   37 1   
    36   21   40 1   
    37   22   23 1   
    38   22   38 1   
    39   23   24 1   
    40   24   39 1   
    41   25   26 1   
@<TRIPOS>SUBSTRUCTURE
     1 Z71         1 TEMP              0 ****  ****    0 ROOT
