@<TRIPOS>MOLECULE
Z71
   41    43     1     0     0
SMALL
bcc


@<TRIPOS>ATOM
      1 C1         -1.5270   -0.5200    0.0700 cc        1 Z71     -0.412000
      2 C2         -0.4890   -1.4900    0.0090 cd        1 Z71      0.735200
      3 N3          0.8170   -0.9470    0.0760 nd        1 Z71     -0.744000
      4 C4          0.7440    0.3920    0.1590 cc        1 Z71      0.714300
      5 S5         -0.8780    1.0380    0.1720 ss        1 Z71     -0.159300
      6 C6         -2.9470   -0.8370    0.0640 c         1 Z71      0.750700
      7 N7         -0.6820   -2.8300   -0.1280 nh        1 Z71     -0.933500
      8 N8          1.8110    1.2790    0.1900 nh        1 Z71     -0.712300
      9 O9         -3.3740   -2.0110    0.1010 o         1 Z71     -0.624100
     10 C10         5.9250    0.3030   -0.0320 ca        1 Z71     -0.406500
     11 C11         4.9860   -0.4120   -0.7830 ca        1 Z71      0.005000
     12 C12         3.6270   -0.1300   -0.7150 ca        1 Z71     -0.180500
     13 C13         3.1640    0.8940    0.1390 ca        1 Z71      0.202600
     14 C14         4.1090    1.6170    0.9080 ca        1 Z71     -0.180500
     15 C15         5.4600    1.3170    0.8140 ca        1 Z71      0.005000
     16 O17         7.6970   -1.4310   -0.4710 o         1 Z71     -0.658300
     17 N18         8.0980    0.8410   -1.3150 n3        1 Z71     -1.027700
     18 O19         8.1760    0.3510    1.0910 o         1 Z71     -0.658300
     19 N20        -3.8170    0.2580    0.0220 n         1 Z71     -0.471100
     20 C21        -8.0560    0.3310   -0.0070 ca        1 Z71     -0.239000
     21 C22        -7.3730   -0.8730    0.2210 ca        1 Z71      0.179400
     22 C23        -5.9700   -0.9360    0.2330 ca        1 Z71     -0.231500
     23 C24        -5.2180    0.2330    0.0090 ca        1 Z71      0.133600
     24 C25        -5.8950    1.4560   -0.2220 ca        1 Z71     -0.231500
     25 C26        -7.2960    1.4900   -0.2270 ca        1 Z71      0.179400
     26 F28        -7.9280    2.6680   -0.4490 f         1 Z71     -0.134400
     27 HN7        -1.6140   -3.1780   -0.0760 hn        1 Z71      0.462300
     28 HN7A        0.0830   -3.4550   -0.0700 hn        1 Z71      0.462300
     29 HN8         1.6300    2.1160    0.7080 hn        1 Z71      0.442800
     30 H11         5.3320   -1.2330   -1.4370 ha        1 Z71      0.156500
     31 H12         2.9280   -0.7140   -1.3340 ha        1 Z71      0.152000
     32 H14         3.7830    2.4180    1.5900 ha        1 Z71      0.152000
     33 H15         6.1840    1.8720    1.4380 ha        1 Z71      0.156500
     34 HN18        8.4560    1.7540   -1.1930 hn        1 Z71      0.447300
     35 HN1A        8.1300    0.5400   -2.2560 hn        1 Z71      0.447300
     36 HN20       -3.4090    1.1610   -0.0840 hn        1 Z71      0.316500
     37 H21        -9.1530    0.3660   -0.0140 ha        1 Z71      0.166000
     38 H23        -5.4840   -1.9090    0.4160 ha        1 Z71      0.170000
     39 H25        -5.3440    2.3910   -0.4020 ha        1 Z71      0.170000
     40 S16         7.5690   -0.0730   -0.1100 sy        1 Z71      1.531200
     41 F27        -8.0840   -2.0060    0.4360 f         1 Z71     -0.134400
@<TRIPOS>BOND
     1    1    2 2   
     2    1    5 1   
     3    1    6 1   
     4    2    3 1   
     5    2    7 1   
     6    3    4 2   
     7    4    5 1   
     8    4    8 1   
     9    6    9 2   
    10    6   19 1   
    11    7   27 1   
    12    7   28 1   
    13    8   13 1   
    14    8   29 1   
    15   10   11 ar  
    16   10   15 ar  
    17   10   40 1   
    18   11   12 ar  
    19   11   30 1   
    20   12   13 ar  
    21   12   31 1   
    22   13   14 ar  
    23   14   15 ar  
    24   14   32 1   
    25   15   33 1   
    26   16   40 2   
    27   17   34 1   
    28   17   35 1   
    29   17   40 1   
    30   18   40 2   
    31   19   23 1   
    32   19   36 1   
    33   20   21 ar  
    34   20   25 ar  
    35   20   37 1   
    36   21   22 ar  
    37   21   41 1   
    38   22   23 ar  
    39   22   38 1   
    40   23   24 ar  
    41   24   25 ar  
    42   24   39 1   
    43   25   26 1   
@<TRIPOS>SUBSTRUCTURE
     1 Z71         1 TEMP              0 ****  ****    0 ROOT
