@<TRIPOS>MOLECULE
Z72
   46    43     1     0     0
SMALL
bcc


@<TRIPOS>ATOM
      1 C1         -0.1970   -0.0160   -0.5200 c1        1 Z72      0.134000
      2 C2          1.2120    0.0910   -0.5240 c1        1 Z72      0.010000
      3 O3          1.8960    0.0040   -1.6970 os        1 Z72     -0.191000
      4 C4          2.6530    1.1740   -1.8850 c3        1 Z72      0.031000
      5 C5          2.1000    1.9290   -2.8530 c3        1 Z72     -0.174000
      6 C6          2.8370    1.4780   -4.2090 c3        1 Z72     -0.155000
      7 C7          4.0880    0.5880   -3.7500 c3        1 Z72     -0.155000
      8 C8          4.1900    0.7890   -2.4150 c3        1 Z72     -0.174000
      9 C9          1.9140    0.1380    0.6880 c1        1 Z72      0.101000
     10 CA         -2.4050   -0.0860   -1.8380 c1        1 Z72      0.352000
     11 OA         -0.9520   -0.1380   -1.8280 os        1 Z72     -0.175000
     12 OB         -3.0170   -0.0070   -2.9190 o         1 Z72     -0.292000
     13 O10         3.0910   -0.5430    1.1530 os        1 Z72     -0.193000
     14 C11         4.0170    0.3070    1.8560 c3        1 Z72     -0.080000
     15 C12         1.2260    0.0800    1.8990 c1        1 Z72     -0.220000
     16 C13        -0.1760   -0.0260    1.9090 c1        1 Z72     -0.052000
     17 C14        -0.8880   -0.0740    0.6950 c1        1 Z72     -0.166000
     18 C15        -2.4300   -0.0590    0.7030 c2        1 Z72      0.176000
     19 N16        -3.1940    0.0080    2.0310 n3        1 Z72     -0.253000
     20 C17        -3.1550   -0.0500   -0.5540 c1        1 Z72     -0.322000
     21 C18        -4.0220   -1.0960    2.4440 c2        1 Z72      0.084000
     22 C19        -3.8890   -1.6060    3.7100 c2        1 Z72     -0.150000
     23 CL20       -2.6890   -0.9390    4.7930 cl        1 Z72      0.015000
     24 C21        -4.7970   -2.5350    4.1810 c1        1 Z72     -0.045000
     25 N22        -5.8220   -2.9440    3.3940 n1        1 Z72     -0.120000
     26 C23        -5.9610   -2.4360    2.1280 c1        1 Z72     -0.049000
     27 C24        -5.0530   -1.5060    1.6510 c1        1 Z72     -0.118000
     28 CL25       -5.3030   -0.7540    0.0660 cl        1 Z72      0.040000
     29 H4          2.7010    1.6790   -1.0550 h1        1 Z72      0.095000
     30 H5          2.2660    2.9010   -2.6750 hc        1 Z72      0.098000
     31 H5A         1.1670    1.7580   -2.9130 hc        1 Z72      0.098000
     32 H6          3.1490    2.2750   -4.7080 hc        1 Z72      0.082000
     33 H6A         2.2040    0.9260   -4.7870 hc        1 Z72      0.082000
     34 H7          3.9160   -0.3770   -3.9430 hc        1 Z72      0.082000
     35 H7A         4.9250    0.8940   -4.2140 hc        1 Z72      0.082000
     36 H8          4.5070   -0.0360   -1.9700 hc        1 Z72      0.098000
     37 H8A         4.8110    1.5330   -2.2290 hc        1 Z72      0.098000
     38 H11         3.5470    1.1250    2.1630 h1        1 Z72      0.089333
     39 H11A        4.3810   -0.1770    2.6360 h1        1 Z72      0.089333
     40 H11B        4.7500    0.5570    1.2560 h1        1 Z72      0.089333
     41 H12         1.7290    0.1140    2.7610 ha        1 Z72      0.146000
     42 H13        -0.6440   -0.0640    2.7380 ha        1 Z72      0.138000
     43 HN16       -3.1390    0.7680    2.5620 hn        1 Z72      0.235000
     44 H17        -4.1310   -0.0160   -0.5560 ha        1 Z72      0.174000
     45 H21        -4.7010   -2.8940    5.0760 ha        1 Z72      0.182000
     46 H23        -6.7140   -2.7370    1.5510 ha        1 Z72      0.183000
@<TRIPOS>BOND
     1    1    2 1   
     2    1   11 1   
     3    2    3 1   
     4    3    4 1   
     5    4    5 1   
     6    4    8 1   
     7    4   29 1   
     8    5    6 1   
     9    5   30 1   
    10    5   31 1   
    11    6    7 1   
    12    6   32 1   
    13    6   33 1   
    14    7    8 1   
    15    7   34 1   
    16    7   35 1   
    17    8   36 1   
    18    8   37 1   
    19    9   13 1   
    20    9   15 1   
    21   10   11 1   
    22   10   12 1   
    23   13   14 1   
    24   14   38 1   
    25   14   39 1   
    26   14   40 1   
    27   15   41 1   
    28   16   17 1   
    29   16   42 1   
    30   17   18 1   
    31   18   19 1   
    32   18   20 1   
    33   19   21 1   
    34   19   43 1   
    35   20   44 1   
    36   21   22 1   
    37   21   27 1   
    38   22   23 1   
    39   22   24 1   
    40   24   45 1   
    41   25   26 1   
    42   26   46 1   
    43   27   28 1   
@<TRIPOS>SUBSTRUCTURE
     1 Z72         1 TEMP              0 ****  ****    0 ROOT
