@<TRIPOS>MOLECULE
Z72
   47    50     1     0     0
SMALL
bcc


@<TRIPOS>ATOM
      1 C1          0.0980    0.1900    0.1300 ca        1 Z72      0.167100
      2 C2          1.5090    0.2100    0.1020 ca        1 Z72      0.080100
      3 O3          2.2130    0.0920   -1.0680 os        1 Z72     -0.303900
      4 C4          2.1830    1.2530   -1.9370 c3        1 Z72      0.140100
      5 C5          2.7800    0.7770   -3.2640 c3        1 Z72     -0.093900
      6 C6          3.8170    1.8110   -3.6730 c3        1 Z72     -0.078400
      7 C7          4.1480    2.6430   -2.4420 c3        1 Z72     -0.078400
      8 C8          3.0730    2.3750   -1.3990 c3        1 Z72     -0.093900
      9 C9          2.2070    0.1990    1.3340 ca        1 Z72      0.192100
     10 CA         -1.8970    0.2270   -1.1770 c         1 Z72      0.716800
     11 OA         -0.5130    0.2460   -1.1030 os        1 Z72     -0.285200
     12 OB         -2.3090    0.2930   -2.3280 o         1 Z72     -0.492500
     13 O10         3.5670    0.2610    1.2370 os        1 Z72     -0.277900
     14 C11         4.3120    0.1230    2.4490 c3        1 Z72      0.100700
     15 C12         1.4950    0.1310    2.5500 ca        1 Z72     -0.198000
     16 C13         0.1150    0.0930    2.5500 ca        1 Z72     -0.067000
     17 C14        -0.6190    0.1230    1.3510 ca        1 Z72     -0.202800
     18 C15        -2.0620    0.0820    1.2580 cc        1 Z72      0.111800
     19 N16        -2.8860    0.0430    2.4830 n4        1 Z72     -0.520200
     20 C17        -2.6860    0.1380    0.0520 cd        1 Z72     -0.212200
     21 C18        -2.7850   -1.1770    3.2910 ca        1 Z72     -0.008400
     22 C19        -2.4760   -1.0740    4.6700 ca        1 Z72     -0.091900
     23 CL20       -2.2430    0.4220    5.4190 cl        1 Z72     -0.002900
     24 C21        -2.3880   -2.2590    5.4300 ca        1 Z72      0.446200
     25 N22        -2.5930   -3.4820    4.9100 nb        1 Z72     -0.585000
     26 C23        -2.9170   -3.5760    3.6140 ca        1 Z72      0.446200
     27 C24        -3.0420   -2.4530    2.7530 ca        1 Z72     -0.091900
     28 CL25       -3.5170   -2.6970    1.1610 cl        1 Z72     -0.002900
     29 H4          1.1180    1.5830   -2.0540 h1        1 Z72      0.056700
     30 H5          3.2530   -0.2300   -3.1260 hc        1 Z72      0.059950
     31 H5A         1.9780    0.6740   -4.0340 hc        1 Z72      0.059950
     32 H6          3.4090    2.4660   -4.4840 hc        1 Z72      0.051700
     33 H6A         4.7340    1.3130   -4.0760 hc        1 Z72      0.051700
     34 H7          4.1900    3.7310   -2.6980 hc        1 Z72      0.051700
     35 H7A         5.1530    2.3570   -2.0400 hc        1 Z72      0.051700
     36 H8          3.5320    2.0650   -0.4250 hc        1 Z72      0.059950
     37 H8A         2.4620    3.2930   -1.2150 hc        1 Z72      0.059950
     38 H11         5.3740    0.1480    2.0890 h1        1 Z72      0.063367
     39 H11A        4.1050    0.9800    3.1340 h1        1 Z72      0.063367
     40 H11B        4.0830   -0.8520    2.9430 h1        1 Z72      0.063367
     41 H12         2.0420    0.1110    3.5060 ha        1 Z72      0.165000
     42 H13        -0.4010    0.0320    3.5210 ha        1 Z72      0.126000
     43 HN16       -2.5990    0.8500    3.0700 hn        1 Z72      0.475300
     44 H17        -3.7790    0.1160   -0.1030 ha        1 Z72      0.190000
     45 H21        -2.1430   -2.2210    6.5130 h4        1 Z72      0.080600
     46 H23        -3.0950   -4.6010    3.2230 h4        1 Z72      0.080600
     47 H162       -3.8780    0.1620    2.2190 hn        1 Z72      0.475300
@<TRIPOS>BOND
     1    1    2 ar  
     2    1   11 1   
     3    1   17 ar  
     4    2    3 1   
     5    2    9 ar  
     6    3    4 1   
     7    4    5 1   
     8    4    8 1   
     9    4   29 1   
    10    5    6 1   
    11    5   30 1   
    12    5   31 1   
    13    6    7 1   
    14    6   32 1   
    15    6   33 1   
    16    7    8 1   
    17    7   34 1   
    18    7   35 1   
    19    8   36 1   
    20    8   37 1   
    21    9   13 1   
    22    9   15 ar  
    23   10   11 1   
    24   10   12 2   
    25   10   20 1   
    26   13   14 1   
    27   14   38 1   
    28   14   39 1   
    29   14   40 1   
    30   15   16 ar  
    31   15   41 1   
    32   16   17 ar  
    33   16   42 1   
    34   17   18 1   
    35   18   19 1   
    36   18   20 2   
    37   19   21 1   
    38   19   43 1   
    39   19   47 1   
    40   20   44 1   
    41   21   22 ar  
    42   21   27 ar  
    43   22   23 1   
    44   22   24 ar  
    45   24   25 ar  
    46   24   45 1   
    47   25   26 ar  
    48   26   27 ar  
    49   26   46 1   
    50   27   28 1   
@<TRIPOS>SUBSTRUCTURE
     1 Z72         1 TEMP              0 ****  ****    0 ROOT
