@<TRIPOS>MOLECULE
Z72
   46    49     1     0     0
SMALL
bcc


@<TRIPOS>ATOM
      1 C1          0.0560    0.1390    0.0220 ca        1 Z72      0.165100
      2 C2          1.4690    0.1050   -0.0130 ca        1 Z72      0.052100
      3 O3          2.1640    0.0850   -1.2010 os        1 Z72     -0.308900
      4 C4          2.1680    1.3360   -1.9250 c3        1 Z72      0.140100
      5 C5          2.6900    0.9990   -3.3250 c3        1 Z72     -0.094900
      6 C6          3.7660    2.0220   -3.6520 c3        1 Z72     -0.076400
      7 C7          4.1890    2.6760   -2.3440 c3        1 Z72     -0.076400
      8 C8          3.1370    2.3400   -1.2980 c3        1 Z72     -0.094900
      9 C9          2.1720   -0.0410    1.2010 ca        1 Z72      0.159100
     10 CA         -1.9490    0.4670   -1.2260 c         1 Z72      0.738800
     11 OA         -0.5570    0.3600   -1.1880 os        1 Z72     -0.319200
     12 OB         -2.3340    0.7290   -2.3650 o         1 Z72     -0.571500
     13 O10         3.5430   -0.0220    1.1000 os        1 Z72     -0.299900
     14 C11         4.2670   -0.3630    2.2800 c3        1 Z72      0.107700
     15 C12         1.4710   -0.1760    2.4120 ca        1 Z72     -0.222000
     16 C13         0.0860   -0.1650    2.4200 ca        1 Z72     -0.044000
     17 C14        -0.6520   -0.0260    1.2340 ca        1 Z72     -0.173800
     18 C15        -2.1140   -0.0080    1.1800 cc        1 Z72      0.292800
     19 N16        -2.8890   -0.1440    2.3350 nu        1 Z72     -0.654400
     20 C17        -2.7180    0.2530   -0.0240 cd        1 Z72     -0.349200
     21 C18        -2.7140   -1.1250    3.3180 ca        1 Z72      0.186600
     22 C19        -2.9740   -0.7950    4.6770 ca        1 Z72     -0.132400
     23 Cl20       -3.4880    0.7530    5.1230 cl        1 Z72     -0.047400
     24 C21        -2.8100   -1.7780    5.6720 ca        1 Z72      0.418700
     25 N22        -2.4100   -3.0350    5.4130 nb        1 Z72     -0.651000
     26 C23        -2.1780   -3.3620    4.1320 ca        1 Z72      0.418700
     27 C24        -2.3290   -2.4640    3.0540 ca        1 Z72     -0.132400
     28 Cl25       -2.0650   -3.0290    1.4850 cl        1 Z72     -0.047400
     29 H4          1.1210    1.7380   -1.9620 h1        1 Z72      0.065700
     30 H5          3.1110   -0.0390   -3.3300 hc        1 Z72      0.058200
     31 H5A         1.8550    1.0320   -4.0670 hc        1 Z72      0.058200
     32 H6          3.3640    2.7930   -4.3570 hc        1 Z72      0.041200
     33 H6A         4.6380    1.5340   -4.1540 hc        1 Z72      0.041200
     34 H7          5.1890    2.2870   -2.0230 hc        1 Z72      0.041200
     35 H7A         4.2880    3.7830   -2.4680 hc        1 Z72      0.041200
     36 H8          2.5850    3.2600   -0.9830 hc        1 Z72      0.058200
     37 H8A         3.6090    1.8930   -0.3850 hc        1 Z72      0.058200
     38 H11         3.9600   -1.3670    2.6600 h1        1 Z72      0.049367
     39 H11A        4.1240    0.4180    3.0650 h1        1 Z72      0.049367
     40 H11B        5.3310   -0.3800    1.9290 h1        1 Z72      0.049367
     41 H12         2.0180   -0.2830    3.3600 ha        1 Z72      0.148000
     42 H13        -0.4340   -0.2590    3.3870 ha        1 Z72      0.146000
     43 HN16       -3.8110    0.2400    2.2870 hn        1 Z72      0.451800
     44 H17        -3.8090    0.3060   -0.1520 ha        1 Z72      0.169000
     45 H21        -3.0070   -1.5400    6.7340 h4        1 Z72      0.045600
     46 H23        -1.8620   -4.4070    3.9470 h4        1 Z72      0.045600
@<TRIPOS>BOND
     1    1    2 ar  
     2    1   11 1   
     3    1   17 ar  
     4    2    3 1   
     5    2    9 ar  
     6    3    4 1   
     7    4    5 1   
     8    4    8 1   
     9    4   29 1   
    10    5    6 1   
    11    5   30 1   
    12    5   31 1   
    13    6    7 1   
    14    6   32 1   
    15    6   33 1   
    16    7    8 1   
    17    7   34 1   
    18    7   35 1   
    19    8   36 1   
    20    8   37 1   
    21    9   13 1   
    22    9   15 ar  
    23   10   11 1   
    24   10   12 2   
    25   10   20 1   
    26   13   14 1   
    27   14   38 1   
    28   14   39 1   
    29   14   40 1   
    30   15   16 ar  
    31   15   41 1   
    32   16   17 ar  
    33   16   42 1   
    34   17   18 1   
    35   18   19 1   
    36   18   20 2   
    37   19   21 1   
    38   19   43 1   
    39   20   44 1   
    40   21   22 ar  
    41   21   27 ar  
    42   22   23 1   
    43   22   24 ar  
    44   24   25 ar  
    45   24   45 1   
    46   25   26 ar  
    47   26   27 ar  
    48   26   46 1   
    49   27   28 1   
@<TRIPOS>SUBSTRUCTURE
     1 Z72         1 TEMP              0 ****  ****    0 ROOT
