@<TRIPOS>MOLECULE
Z72
   46    49     1     0     0
SMALL
bcc


@<TRIPOS>ATOM
      1 C1         -1.1560    0.5260   -0.0780 ca        1 Z72      0.165100
      2 C2         -2.1200   -0.4400    0.2900 ca        1 Z72      0.052100
      3 O3         -3.3910   -0.0830    0.6810 os        1 Z72     -0.308900
      4 C4         -4.2490    0.3770   -0.3870 c3        1 Z72      0.140100
      5 C5         -5.4570    1.0180    0.3030 c3        1 Z72     -0.094900
      6 C6         -6.6990    0.4510   -0.3660 c3        1 Z72     -0.076400
      7 C7         -6.2810   -0.8020   -1.1230 c3        1 Z72     -0.076400
      8 C8         -4.7630   -0.7920   -1.2310 c3        1 Z72     -0.094900
      9 C9         -1.7220   -1.7900    0.3820 ca        1 Z72      0.159100
     10 CA         -0.7540    2.8080   -0.6430 c         1 Z72      0.738800
     11 OA         -1.6330    1.8070   -0.2210 os        1 Z72     -0.319200
     12 OB         -1.3470    3.8770   -0.7830 o         1 Z72     -0.571500
     13 O10        -2.7180   -2.6830    0.7020 os        1 Z72     -0.299900
     14 C11        -2.3020   -4.0150    0.9910 c3        1 Z72      0.107700
     15 C12        -0.3870   -2.1530    0.1340 ca        1 Z72     -0.222000
     16 C13         0.5460   -1.1860   -0.2010 ca        1 Z72     -0.044000
     17 C14         0.1930    0.1700   -0.2990 ca        1 Z72     -0.173800
     18 C15         1.1340    1.2340   -0.6490 cc        1 Z72      0.292800
     19 N16         2.4810    0.9640   -0.9030 nh        1 Z72     -0.654400
     20 C17         0.6430    2.5030   -0.8290 cd        1 Z72     -0.349200
     21 C18         3.3180    0.1830   -0.0970 ca        1 Z72      0.186600
     22 C19         4.3230   -0.6130   -0.7110 ca        1 Z72     -0.132400
     23 CL20        4.5240   -0.6330   -2.3910 cl        1 Z72     -0.047400
     24 C21         5.1750   -1.3940    0.0920 ca        1 Z72      0.418700
     25 N22         5.0940   -1.4390    1.4330 nb        1 Z72     -0.651000
     26 C23         4.1600   -0.6780    2.0250 ca        1 Z72      0.418700
     27 C24         3.2670    0.1560    1.3200 ca        1 Z72     -0.132400
     28 CL25        2.1840    1.1090    2.1980 cl        1 Z72     -0.047400
     29 H4         -3.6870    1.1210   -1.0100 h1        1 Z72      0.065700
     30 H5         -5.4430    0.7680    1.3950 hc        1 Z72      0.058200
     31 H5A        -5.4110    2.1300    0.2070 hc        1 Z72      0.058200
     32 H6         -7.4860    0.2160    0.3920 hc        1 Z72      0.041200
     33 H6A        -7.1320    1.2030   -1.0740 hc        1 Z72      0.041200
     34 H7         -6.6210   -1.7160   -0.5740 hc        1 Z72      0.041200
     35 H7A        -6.7520   -0.8280   -2.1370 hc        1 Z72      0.041200
     36 H8         -4.4430   -0.6660   -2.2950 hc        1 Z72      0.058200
     37 H8A        -4.3290   -1.7530   -0.8530 hc        1 Z72      0.058200
     38 H11        -1.8970   -4.5050    0.0720 h1        1 Z72      0.049367
     39 H11A       -1.5460   -4.0280    1.8120 h1        1 Z72      0.049367
     40 H11B       -3.2510   -4.5130    1.3170 h1        1 Z72      0.049367
     41 H12        -0.0770   -3.2050    0.1990 ha        1 Z72      0.148000
     42 H13         1.5820   -1.5040   -0.4030 ha        1 Z72      0.146000
     43 HN16        2.9570    1.6290   -1.4780 hn        1 Z72      0.451800
     44 H17         1.2740    3.3590   -1.1130 ha        1 Z72      0.169000
     45 H21         5.9630   -2.0210   -0.3680 h4        1 Z72      0.045600
     46 H23         4.1250   -0.7260    3.1310 h4        1 Z72      0.045600
@<TRIPOS>BOND
     1    1    2 ar  
     2    1   11 1   
     3    1   17 ar  
     4    2    3 1   
     5    2    9 ar  
     6    3    4 1   
     7    4    5 1   
     8    4    8 1   
     9    4   29 1   
    10    5    6 1   
    11    5   30 1   
    12    5   31 1   
    13    6    7 1   
    14    6   32 1   
    15    6   33 1   
    16    7    8 1   
    17    7   34 1   
    18    7   35 1   
    19    8   36 1   
    20    8   37 1   
    21    9   13 1   
    22    9   15 ar  
    23   10   11 1   
    24   10   12 2   
    25   10   20 1   
    26   13   14 1   
    27   14   38 1   
    28   14   39 1   
    29   14   40 1   
    30   15   16 ar  
    31   15   41 1   
    32   16   17 ar  
    33   16   42 1   
    34   17   18 1   
    35   18   19 1   
    36   18   20 2   
    37   19   21 1   
    38   19   43 1   
    39   20   44 1   
    40   21   22 ar  
    41   21   27 ar  
    42   22   23 1   
    43   22   24 ar  
    44   24   25 ar  
    45   24   45 1   
    46   25   26 ar  
    47   26   27 ar  
    48   26   46 1   
    49   27   28 1   
@<TRIPOS>SUBSTRUCTURE
     1 Z72         1 TEMP              0 ****  ****    0 ROOT
