@<TRIPOS>MOLECULE
Z73
   38    40     1     0     0
SMALL
bcc


@<TRIPOS>ATOM
      1 C1         -0.0820    0.0050   -0.0120 cc        1 Z73      0.489600
      2 C2          1.3690   -0.0130   -0.0610 cc        1 Z73     -0.232600
      3 N3         -0.7480    0.0260    1.1210 nd        1 Z73     -0.662000
      4 N4          2.1050   -0.0110    1.1630 na        1 Z73     -0.187000
      5 C5         -0.0340    0.0270    2.3200 ca        1 Z73      0.235300
      6 C6          1.4110    0.0060    2.3860 ca        1 Z73      0.466500
      7 C7          1.3790    0.0170    4.6990 ca        1 Z73      0.654600
      8 N8          2.1050   -0.0010    3.5650 nb        1 Z73     -0.752000
      9 C9         -0.0460    0.0430    4.7470 ca        1 Z73     -0.265300
     10 C10        -0.7360    0.0480    3.5550 ca        1 Z73     -0.092300
     11 C11         3.4710   -0.0190    0.8220 cc        1 Z73      0.409800
     12 N12         3.6150   -0.0290   -0.5300 nd        1 Z73     -0.567300
     13 C13         2.3400   -0.0250   -1.0910 cd        1 Z73      0.075400
     14 C14        -0.8040   -0.0080   -1.3210 c3        1 Z73     -0.153400
     15 C15         2.0990   -0.0250   -2.5450 c3        1 Z73     -0.024900
     16 C16         4.6100   -0.0220    1.7880 c3        1 Z73     -0.083700
     17 C17         4.9130   -1.4260    2.2750 c3        1 Z73     -0.078400
     18 C18         6.0320   -1.4120    3.2850 c3        1 Z73     -0.092100
     19 O19         1.9880    0.0120    5.9350 os        1 Z73     -0.441100
     20 C20         3.4160   -0.0340    5.9760 c3        1 Z73      0.122700
     21 H9         -0.5520    0.0590    5.7210 ha        1 Z73      0.167000
     22 H10        -1.8390    0.0660    3.5470 ha        1 Z73      0.164000
     23 H14        -0.3820    0.7850   -1.9850 hc        1 Z73      0.062033
     24 H14A       -1.9010    0.1720   -1.1960 hc        1 Z73      0.062033
     25 H14B       -0.6590   -1.0050   -1.8070 hc        1 Z73      0.062033
     26 H15         3.0370   -0.2420   -3.1150 hc        1 Z73      0.052700
     27 H15A        1.3360   -0.7990   -2.8080 hc        1 Z73      0.052700
     28 H15B        1.7170    0.9780   -2.8660 hc        1 Z73      0.052700
     29 H16         4.3880    0.6540    2.6550 hc        1 Z73      0.071700
     30 H16A        5.5160    0.3950    1.2680 hc        1 Z73      0.071700
     31 H17         3.9960   -1.8770    2.7360 hc        1 Z73      0.051200
     32 H18         6.9550   -0.9590    2.8500 hc        1 Z73      0.033033
     33 H18A        6.2690   -2.4530    3.6110 hc        1 Z73      0.033033
     34 H20         3.8530    0.8660    5.4820 h1        1 Z73      0.052700
     35 H20A        3.7940   -0.9670    5.4940 h1        1 Z73      0.052700
     36 H20B        3.6330   -0.0330    7.0750 h1        1 Z73      0.052700
     37 H171        5.1990   -2.0690    1.4000 hc        1 Z73      0.051200
     38 H181        5.7390   -0.8180    4.1860 hc        1 Z73      0.033033
@<TRIPOS>BOND
     1    1    2 1   
     2    1    3 2   
     3    1   14 1   
     4    2    4 1   
     5    2   13 2   
     6    3    5 1   
     7    4    6 1   
     8    4   11 1   
     9    5    6 ar  
    10    5   10 ar  
    11    6    8 ar  
    12    7    8 ar  
    13    7    9 ar  
    14    7   19 1   
    15    9   10 ar  
    16    9   21 1   
    17   10   22 1   
    18   11   12 2   
    19   11   16 1   
    20   12   13 1   
    21   13   15 1   
    22   14   23 1   
    23   14   24 1   
    24   14   25 1   
    25   15   26 1   
    26   15   27 1   
    27   15   28 1   
    28   16   17 1   
    29   16   29 1   
    30   16   30 1   
    31   17   18 1   
    32   17   31 1   
    33   17   37 1   
    34   18   32 1   
    35   18   33 1   
    36   18   38 1   
    37   19   20 1   
    38   20   34 1   
    39   20   35 1   
    40   20   36 1   
@<TRIPOS>SUBSTRUCTURE
     1 Z73         1 TEMP              0 ****  ****    0 ROOT
