@<TRIPOS>MOLECULE
Z73
   38    40     1     0     0
SMALL
bcc


@<TRIPOS>ATOM
      1 C1         -2.4700    1.4030    0.1410 cc        1 Z73      0.489600
      2 C2         -2.1030    0.0100   -0.0470 cc        1 Z73     -0.232600
      3 N3         -1.5760    2.3630    0.2090 nd        1 Z73     -0.662000
      4 N4         -0.7220   -0.3340   -0.1580 na        1 Z73     -0.187000
      5 C5         -0.2250    2.0320    0.1020 ca        1 Z73      0.235300
      6 C6          0.2500    0.6790   -0.0820 ca        1 Z73      0.466500
      7 C7          2.4560    1.3770   -0.1000 ca        1 Z73      0.654600
      8 N8          1.5770    0.3590   -0.1800 nb        1 Z73     -0.752000
      9 C9          2.0950    2.7460    0.0760 ca        1 Z73     -0.265300
     10 C10         0.7570    3.0570    0.1750 ca        1 Z73     -0.092300
     11 C11        -0.6590   -1.7280   -0.3420 cc        1 Z73      0.409800
     12 N12        -1.9120   -2.2560   -0.3460 nd        1 Z73     -0.567300
     13 C13        -2.8120   -1.2090   -0.1670 cd        1 Z73      0.075400
     14 C14        -3.9290    1.7080    0.2620 c3        1 Z73     -0.153400
     15 C15        -4.2740   -1.3990   -0.1270 c3        1 Z73     -0.024900
     16 C16         0.5900   -2.5300   -0.5050 c3        1 Z73     -0.083700
     17 C17         1.2060   -2.8660    0.8400 c3        1 Z73     -0.078400
     18 C18         2.4910   -3.6340    0.6630 c3        1 Z73     -0.092100
     19 O19         3.8130    1.1550   -0.1870 os        1 Z73     -0.441100
     20 C20         4.2610   -0.1920   -0.3440 c3        1 Z73      0.122700
     21 H9          2.8830    3.5090    0.1280 ha        1 Z73      0.167000
     22 H10         0.4350    4.1030    0.3130 ha        1 Z73      0.164000
     23 H14        -4.3080    1.2960    1.2300 hc        1 Z73      0.062033
     24 H14A       -4.1300    2.8080    0.2390 hc        1 Z73      0.062033
     25 H14B       -4.4800    1.2230   -0.5810 hc        1 Z73      0.062033
     26 H15        -4.7350   -0.9950   -1.0640 hc        1 Z73      0.052700
     27 H15A       -4.5420   -2.4820   -0.0420 hc        1 Z73      0.052700
     28 H15B       -4.7070   -0.8560    0.7490 hc        1 Z73      0.052700
     29 H16         0.3320   -3.4840   -1.0440 hc        1 Z73      0.071700
     30 H16A        1.3270   -1.9790   -1.1460 hc        1 Z73      0.071700
     31 H17         1.4070   -1.9240    1.4130 hc        1 Z73      0.051200
     32 H18         2.3170   -4.5740    0.0860 hc        1 Z73      0.033033
     33 H18A        3.2440   -3.0170    0.1120 hc        1 Z73      0.033033
     34 H20         3.9490   -0.8160    0.5280 h1        1 Z73      0.052700
     35 H20A        3.8720   -0.6280   -1.2950 h1        1 Z73      0.052700
     36 H20B        5.3750   -0.0810   -0.3810 h1        1 Z73      0.052700
     37 H171        0.4790   -3.4750    1.4400 hc        1 Z73      0.051200
     38 H181        2.9180   -3.9050    1.6590 hc        1 Z73      0.033033
@<TRIPOS>BOND
     1    1    2 1   
     2    1    3 2   
     3    1   14 1   
     4    2    4 1   
     5    2   13 2   
     6    3    5 1   
     7    4    6 1   
     8    4   11 1   
     9    5    6 ar  
    10    5   10 ar  
    11    6    8 ar  
    12    7    8 ar  
    13    7    9 ar  
    14    7   19 1   
    15    9   10 ar  
    16    9   21 1   
    17   10   22 1   
    18   11   12 2   
    19   11   16 1   
    20   12   13 1   
    21   13   15 1   
    22   14   23 1   
    23   14   24 1   
    24   14   25 1   
    25   15   26 1   
    26   15   27 1   
    27   15   28 1   
    28   16   17 1   
    29   16   29 1   
    30   16   30 1   
    31   17   18 1   
    32   17   31 1   
    33   17   37 1   
    34   18   32 1   
    35   18   33 1   
    36   18   38 1   
    37   19   20 1   
    38   20   34 1   
    39   20   35 1   
    40   20   36 1   
@<TRIPOS>SUBSTRUCTURE
     1 Z73         1 TEMP              0 ****  ****    0 ROOT
