@<TRIPOS>MOLECULE
Z73
   38    32     1     0     0
SMALL
bcc


@<TRIPOS>ATOM
      1 C1         -2.4540    0.3090   -1.5810 c1        1 Z73      0.068000
      2 C2         -1.0450    0.2500   -1.6030 c1        1 Z73     -0.142000
      3 N3         -3.1110    0.2940   -0.4060 n1        1 Z73     -0.136000
      4 N4         -0.3640    0.1790   -0.4610 n1        1 Z73     -0.091000
      5 C5         -2.4130    0.2210    0.7680 c1        1 Z73     -0.093000
      6 C6         -1.0390    0.1630    0.7470 c1        1 Z73      0.115000
      7 C7         -0.9970    0.0720    3.1290 c1        1 Z73      0.156000
      8 N8         -0.3310    0.0890    1.9360 n2        1 Z73     -0.227000
      9 C9         -2.3880    0.1300    3.1520 c2        1 Z73     -0.201000
     10 C10        -3.0890    0.2040    1.9800 c2        1 Z73     -0.026000
     11 C11         0.9760    0.1350   -0.7680 c1        1 Z73     -0.024500
     12 N12         1.1000    0.1810   -2.1200 n2        1 Z73     -0.139000
     13 C13        -0.1300    0.2510   -2.6470 c1        1 Z73     -0.024500
     14 C14        -3.6250    0.1970   -2.5330 c3        1 Z73     -0.177000
     15 C15         0.0060    0.4070   -4.1460 c2        1 Z73     -0.147000
     16 C16         2.4000    0.3390   -0.2970 c2        1 Z73     -0.085000
     17 C17         3.2500   -0.8300   -0.7430 c3        1 Z73     -0.155000
     18 C18         4.7130   -0.4790   -0.5840 c3        1 Z73     -0.213000
     19 O19        -0.3810    0.5490    4.2990 o         1 Z73     -0.200000
     20 C20         0.1590   -0.4670    5.1140 c3        1 Z73     -0.066000
     21 H9         -2.8620    0.1190    4.0050 ha        1 Z73      0.167000
     22 H10        -4.0640    0.2450    1.9960 ha        1 Z73      0.164000
     23 H14        -3.5300   -0.6150   -3.0730 hc        1 Z73      0.101333
     24 H14A       -3.6440    0.9810   -3.1210 hc        1 Z73      0.101333
     25 H14B       -4.4590    0.1520   -2.0200 hc        1 Z73      0.101333
     26 H15        -0.4040   -0.3630   -4.5920 ha        1 Z73      0.091667
     27 H15A       -0.4460    1.2290   -4.4310 ha        1 Z73      0.091667
     28 H15B        0.9550    0.4550   -4.3850 ha        1 Z73      0.091667
     29 H16         2.7550    1.1660   -0.6800 ha        1 Z73      0.107000
     30 H16A        2.4150    0.3990    0.6790 ha        1 Z73      0.107000
     31 H17         3.0630   -1.0300   -1.6810 hc        1 Z73      0.096000
     32 H18         5.2630   -1.1640   -1.0190 hc        1 Z73      0.072333
     33 H18A        4.8870    0.3920   -0.9980 hc        1 Z73      0.072333
     34 H20         1.1250   -0.5380    4.9510 h1        1 Z73      0.091333
     35 H20A       -0.2720   -1.3230    4.9000 h1        1 Z73      0.091333
     36 H20B        0.0020   -0.2480    6.0580 h1        1 Z73      0.091333
     37 H171        3.0410   -1.6130   -0.1950 hc        1 Z73      0.096000
     38 H181        4.9370   -0.4370    0.3690 hc        1 Z73      0.072333
@<TRIPOS>BOND
     1    1    3 1   
     2    1   14 1   
     3    2    4 1   
     4    5    6 1   
     5    5   10 1   
     6    6    8 1   
     7    7    8 1   
     8    7    9 1   
     9    9   10 1   
    10    9   21 1   
    11   10   22 1   
    12   11   12 1   
    13   12   13 1   
    14   14   23 1   
    15   14   24 1   
    16   14   25 1   
    17   15   26 1   
    18   15   27 1   
    19   15   28 1   
    20   16   17 1   
    21   16   29 1   
    22   16   30 1   
    23   17   18 1   
    24   17   31 1   
    25   17   37 1   
    26   18   32 1   
    27   18   33 1   
    28   18   38 1   
    29   19   20 1   
    30   20   34 1   
    31   20   35 1   
    32   20   36 1   
@<TRIPOS>SUBSTRUCTURE
     1 Z73         1 TEMP              0 ****  ****    0 ROOT
