@<TRIPOS>MOLECULE
Z74
   90    87     1     0     0
SMALL
bcc


@<TRIPOS>ATOM
      1 C1        -32.8870   39.8230 -185.1830 c3        1 Z74     -0.209000
      2 F1        -31.7240   39.6390 -178.0510 f         1 Z74     -0.125000
      3 N1        -35.1990   36.6890 -181.6980 n         1 Z74     -0.387000
      4 O1         78.4910  -91.0750  415.9130 o         1 Z74     -0.884500
      5 C2        -31.4310   39.6230 -182.0930 c1        1 Z74     -0.330000
      6 N2        -30.3120   40.8950 -180.3760 n3        1 Z74     -0.245000
      7 O2         78.2170  -89.7270  417.8390 o         1 Z74     -0.884500
      8 C3        -32.2750   38.8260 -182.4070 c1        1 Z74      0.127000
      9 N3         77.6060  -92.6050  413.5040 n2        1 Z74     -0.237000
     10 O3        -29.5950   41.1440 -182.4930 os        1 Z74     -0.196000
     11 C4        -33.2580   37.8250 -182.7410 c3        1 Z74     -0.082000
     12 N4         76.0360  -89.0940  412.8040 n3        1 Z74     -0.154000
     13 O4        -34.1070   38.3190 -180.5100 o         1 Z74     -0.392000
     14 C5        -34.0340   37.9000 -183.9650 c1        1 Z74     -0.105000
     15 O5        -35.7310   36.8190 -178.7830 oh        1 Z74     -0.291000
     16 C6        -33.9160   38.7570 -185.0760 c2        1 Z74     -0.189000
     17 C7        -34.2430   37.6410 -181.5490 c2        1 Z74      0.341000
     18 C8        -30.4650   40.5420 -181.6470 c2        1 Z74      0.443000
     19 C9        -28.1140   43.3850 -179.6390 cx        1 Z74     -0.227333
     20 C10       -27.2190   40.8490 -184.3460 c3        1 Z74     -0.222000
     21 C11       -28.5430   41.5310 -184.5700 c3        1 Z74     -0.170000
     22 C12       -29.6900   40.7960 -183.9050 c3        1 Z74     -0.012000
     23 C13       -27.3450   42.4140 -180.4940 cx        1 Z74     -0.227333
     24 C14       -26.6860   43.6690 -180.0020 cx        1 Z74     -0.227333
     25 C15       -34.8150   38.5620 -186.0770 c2        1 Z74      0.033000
     26 C16       -36.2770   37.2410 -176.4630 c2        1 Z74     -0.291000
     27 C17       -36.0910   36.4360 -177.5200 c2        1 Z74      0.016000
     28 C18        75.9920  -88.8130  411.3890 c3        1 Z74     -0.146000
     29 C19       -36.1680   38.7210 -176.4810 c3        1 Z74     -0.029000
     30 C20       -34.8270   39.2010 -176.6530 c1        1 Z74     -0.048000
     31 C21       -30.0040   42.4900 -175.4210 c2        1 Z74     -0.213000
     32 C22       -30.5810   41.7250 -176.3700 c2        1 Z74      0.063000
     33 C23       -31.8930   41.1140 -176.1980 c2        1 Z74     -0.187000
     34 C24       -32.4200   40.1500 -176.9960 c2        1 Z74      0.208000
     35 C25       -33.7180   39.6300 -176.8000 c1        1 Z74     -0.201000
     36 C26        77.0760  -91.5850  413.3020 c1        1 Z74     -0.003000
     37 C27        75.0890  -86.8990  413.4580 c3        1 Z74     -0.252000
     38 C28        75.6420  -88.2550  413.7300 c2        1 Z74      0.161000
     39 C29        77.0670  -88.9490  415.6160 cu        1 Z74     -0.753000
     40 C30        75.7100  -88.6300  415.2070 c3        1 Z74      0.002000
     41 C31        74.7360  -89.7640  415.4880 c3        1 Z74     -0.227000
     42 C32        79.7760  -86.6470  414.4770 c1        1 Z74     -0.078000
     43 C33        79.0870  -87.5100  414.9480 c1        1 Z74     -0.136000
     44 C34        78.3250  -88.4940  415.5120 cu        1 Z74     -0.492000
     45 H1        -33.0230   40.5760 -184.3660 hc        1 Z74      0.083333
     46 HN1       -36.5610   36.7980 -175.4960 ha        1 Z74      0.151000
     47 H3        -31.8620   39.3810 -185.0890 hc        1 Z74      0.083333
     48 HN4        76.4210  -90.0580  413.0690 hn        1 Z74      0.346000
     49 H5        -32.6930   36.8300 -182.8400 hc        1 Z74      0.201000
     50 HO5       -35.4080   37.7370 -178.7710 ho        1 Z74      0.239000
     51 H9        -28.3580   43.1090 -178.5960 hc        1 Z74      0.114667
     52 H9A       -30.8980   40.5060 -179.6540 hn        1 Z74      0.303500
     53 H10       -26.4060   41.4160 -184.8620 hc        1 Z74      0.090000
     54 H10A      -29.5910   41.5450 -180.1010 hn        1 Z74      0.303500
     55 H11       -26.9810   40.8050 -183.2550 hc        1 Z74      0.090000
     56 H11A      -27.2310   39.8080 -184.7500 hc        1 Z74      0.090000
     57 H12       -28.4990   42.5840 -184.1810 hc        1 Z74      0.116000
     58 H12A      -28.7730   41.5820 -185.6680 hc        1 Z74      0.116000
     59 H12B      -30.6880   41.1480 -184.2760 h1        1 Z74      0.109500
     60 H13       -28.9090   43.9990 -180.0990 hc        1 Z74      0.114667
     61 H13A      -27.5960   42.3220 -181.5670 hc        1 Z74      0.114667
     62 H14       -26.4670   44.4780 -180.7220 hc        1 Z74      0.114667
     63 H14A      -27.0290   41.4470 -180.0610 hc        1 Z74      0.114667
     64 H14B      -25.9080   43.5950 -179.2210 hc        1 Z74      0.114667
     65 H15       -34.8190   39.1790 -186.9890 ha        1 Z74      0.142000
     66 H15A      -32.9460   40.3570 -186.1630 hc        1 Z74      0.083333
     67 H15B      -35.5850   37.7750 -186.0150 ha        1 Z74      0.142000
     68 H16       -35.3570   36.2790 -182.5880 hn        1 Z74      0.257500
     69 H17       -36.2370   35.3410 -177.4950 h4        1 Z74      0.167000
     70 H18        74.9310  -88.6510  411.0530 h1        1 Z74      0.130333
     71 H19       -36.8070   39.1400 -177.3140 hc        1 Z74      0.118000
     72 H19A      -36.5780   39.1360 -175.5140 hc        1 Z74      0.118000
     73 H21       -29.0160   42.9480 -175.5580 ha        1 Z74      0.145500
     74 H23       -32.4790   41.4780 -175.3380 ha        1 Z74      0.176000
     75 H25       -30.5040   42.6820 -174.4640 ha        1 Z74      0.145500
     76 H26        76.5990  -87.8980  411.1480 h1        1 Z74      0.130333
     77 H26A       76.4210  -89.6930  410.8380 h1        1 Z74      0.130333
     78 H27        75.7780  -86.1330  413.9040 hc        1 Z74      0.140667
     79 H27A       78.0700  -93.4360  413.7150 hn        1 Z74      0.323000
     80 H28        74.0900  -86.8040  413.9610 hc        1 Z74      0.140667
     81 H28A       74.9620  -86.6720  412.3710 hc        1 Z74      0.140667
     82 H30        75.3750  -87.7210  415.7990 hc        1 Z74      0.153000
     83 H31        74.6810  -89.9470  416.5900 hc        1 Z74      0.104000
     84 H32        75.0580  -90.7080  414.9840 hc        1 Z74      0.104000
     85 H33        80.4010  -85.8870  414.0700 ha        1 Z74      0.250000
     86 H34        73.7130  -89.4940  415.1300 hc        1 Z74      0.104000
     87 F2        -29.9480   41.4950 -177.5590 f         1 Z74     -0.151000
     88 H121      -35.8300   36.5080 -180.9500 hn        1 Z74      0.257500
     89 H211      -29.5990   39.6840 -184.0050 h1        1 Z74      0.109500
     90 S1         78.1660  -89.8710  416.4860 s6        1 Z74      2.889000
@<TRIPOS>BOND
     1    1   16 1   
     2    1   45 1   
     3    1   47 1   
     4    1   66 1   
     5    2   34 1   
     6    3   17 1   
     7    3   68 1   
     8    3   88 1   
     9    4   90 1   
    10    5    8 1   
    11    5   18 1   
    12    6   18 1   
    13    6   52 1   
    14    6   54 1   
    15    7   90 1   
    16    8   11 1   
    17    9   36 1   
    18    9   79 1   
    19   10   18 1   
    20   10   22 1   
    21   11   14 1   
    22   11   17 1   
    23   11   49 1   
    24   12   28 1   
    25   12   38 1   
    26   12   48 1   
    27   13   17 1   
    28   14   16 1   
    29   15   27 1   
    30   15   50 1   
    31   16   25 1   
    32   19   23 1   
    33   19   24 1   
    34   19   51 1   
    35   19   60 1   
    36   20   21 1   
    37   20   53 1   
    38   20   55 1   
    39   20   56 1   
    40   21   22 1   
    41   21   57 1   
    42   21   58 1   
    43   22   59 1   
    44   22   89 1   
    45   23   24 1   
    46   23   61 1   
    47   23   63 1   
    48   24   62 1   
    49   24   64 1   
    50   25   65 1   
    51   25   67 1   
    52   26   27 1   
    53   26   29 1   
    54   26   46 1   
    55   27   69 1   
    56   28   70 1   
    57   28   76 1   
    58   28   77 1   
    59   29   30 1   
    60   29   71 1   
    61   29   72 1   
    62   30   35 1   
    63   31   32 1   
    64   31   73 1   
    65   31   75 1   
    66   32   33 1   
    67   32   87 1   
    68   33   34 1   
    69   33   74 1   
    70   34   35 1   
    71   37   38 1   
    72   37   78 1   
    73   37   80 1   
    74   37   81 1   
    75   38   40 1   
    76   39   40 1   
    77   39   44 1   
    78   39   90 1   
    79   40   41 1   
    80   40   82 1   
    81   41   83 1   
    82   41   84 1   
    83   41   86 1   
    84   42   43 1   
    85   42   85 1   
    86   43   44 1   
    87   44   90 1   
@<TRIPOS>SUBSTRUCTURE
     1 Z74         1 TEMP              0 ****  ****    0 ROOT
