@<TRIPOS>MOLECULE
Z74
   88    91     1     0     0
SMALL
bcc


@<TRIPOS>ATOM
      1 C1          5.2050    1.5900    2.2070 ca        1 Z74     -0.078000
      2 F1          0.6960   -4.8970   -2.3670 f         1 Z74     -0.134400
      3 N1          0.6060   -0.0030    0.7530 n         1 Z74     -0.559900
      4 O1         -6.2290    3.4760    0.2470 o         1 Z74     -0.648300
      5 C2          5.3070    0.7540    1.0930 ca        1 Z74     -0.125600
      6 N2          7.2580    0.7060   -0.4410 n         1 Z74     -0.469800
      7 O2         -7.3380    2.6020   -1.7050 o         1 Z74     -0.648300
      8 C3          4.1630    0.3680    0.3910 ca        1 Z74     -0.060000
      9 N3         -5.0020    1.8990   -1.2380 n3        1 Z74     -0.811500
     10 O3          7.2000   -0.6580    1.4000 o         1 Z74     -0.595100
     11 C4          2.9110    0.8240    0.8150 ca        1 Z74     -0.139600
     12 N4         -2.7850    0.1090   -1.8870 n3        1 Z74     -0.797200
     13 O4          1.7130    0.4070   -1.2150 o         1 Z74     -0.606100
     14 C5          2.8050    1.6680    1.9240 ca        1 Z74     -0.098000
     15 O5         -1.9500    1.1250    1.5970 oh        1 Z74     -0.595800
     16 C6          3.9530    2.0570    2.6230 ca        1 Z74     -0.082300
     17 C7          1.7100    0.4120    0.0330 c         1 Z74      0.676700
     18 C8          6.6480    0.2180    0.7040 c         1 Z74      0.671700
     19 C9          8.5660    0.2190   -0.8250 c3        1 Z74      0.090000
     20 C10         6.7070    1.7930   -1.2130 c3        1 Z74      0.090000
     21 C11         7.1570    3.1890   -0.7730 c3        1 Z74     -0.100400
     22 C12         6.5470    4.2360   -1.6680 c3        1 Z74     -0.093100
     23 C13         8.5530   -0.7730   -1.9900 c3        1 Z74     -0.100400
     24 C14         9.9600   -1.1970   -2.3230 c3        1 Z74     -0.093100
     25 C15         3.8490    2.9630    3.7910 c3        1 Z74     -0.056800
     26 C16        -0.6480   -0.3390    0.1200 c3        1 Z74      0.082700
     27 C17        -1.6630    0.8340    0.2400 c3        1 Z74      0.115100
     28 C18        -2.9830    0.6010   -0.5310 c3        1 Z74      0.121500
     29 C19        -1.2530   -1.6330    0.6950 c3        1 Z74     -0.052100
     30 C20        -0.3930   -2.8230    0.4410 ca        1 Z74     -0.024300
     31 C21         0.2370   -3.4710    1.5050 ca        1 Z74     -0.177000
     32 C22         1.0290   -4.6070    1.2570 ca        1 Z74      0.155900
     33 C23         1.1950   -5.1010   -0.0460 ca        1 Z74     -0.207000
     34 C24         0.5510   -4.4350   -1.1030 ca        1 Z74      0.155900
     35 C25        -0.2430   -3.3000   -0.8640 ca        1 Z74     -0.177000
     36 C26        -3.7900    1.9330   -0.4640 c3        1 Z74      0.196800
     37 C27        -4.8550    1.3880   -2.5760 c3        1 Z74      0.186800
     38 C28        -4.0200    0.0900   -2.6440 c3        1 Z74      0.140800
     39 C29        -6.9640    1.0710    0.2640 ca        1 Z74     -0.380500
     40 C30        -7.7260    0.0590   -0.3320 ca        1 Z74     -0.019500
     41 C31        -8.1930   -1.0190    0.4160 ca        1 Z74     -0.157500
     42 C32        -7.9040   -1.0950    1.7790 ca        1 Z74     -0.066000
     43 C33        -7.1530   -0.0900    2.3890 ca        1 Z74     -0.157500
     44 C34        -6.6890    0.9840    1.6340 ca        1 Z74     -0.019500
     45 H1          6.1120    1.8750    2.7640 ha        1 Z74      0.149000
     46 HN1         0.5930    0.1170    1.7380 hn        1 Z74      0.316500
     47 H3          4.2350   -0.2880   -0.4920 ha        1 Z74      0.163000
     48 HN4        -2.0980    0.6740   -2.3560 hn        1 Z74      0.362800
     49 H5          1.8230    2.0450    2.2480 ha        1 Z74      0.140000
     50 HO5        -2.4210    0.3680    1.9660 ho        1 Z74      0.400000
     51 H9          9.2040    1.1050   -1.1110 h1        1 Z74      0.057700
     52 H9A         9.0440   -0.2830    0.0660 h1        1 Z74      0.057700
     53 H10         7.0110    1.6420   -2.2900 h1        1 Z74      0.057700
     54 H10A        5.5810    1.7480   -1.1700 h1        1 Z74      0.057700
     55 H11         6.8460    3.3690    0.2900 hc        1 Z74      0.046200
     56 H11A        8.2750    3.2620   -0.8110 hc        1 Z74      0.046200
     57 H12         6.8700    5.2550   -1.3440 hc        1 Z74      0.036367
     58 H12A        6.8660    4.0860   -2.7280 hc        1 Z74      0.036367
     59 H12B        5.4310    4.1910   -1.6280 hc        1 Z74      0.036367
     60 H13         7.9410   -1.6720   -1.7140 hc        1 Z74      0.046200
     61 H13A        8.0750   -0.3070   -2.8910 hc        1 Z74      0.046200
     62 H14        10.5810   -0.3160   -2.6180 hc        1 Z74      0.036367
     63 H14A       10.4430   -1.6880   -1.4440 hc        1 Z74      0.036367
     64 H14B        9.9520   -1.9230   -3.1710 hc        1 Z74      0.036367
     65 H15         4.0460    4.0180    3.4730 hc        1 Z74      0.050033
     66 H15A        2.8300    2.9190    4.2470 hc        1 Z74      0.050033
     67 H15B        4.5990    2.6880    4.5740 hc        1 Z74      0.050033
     68 H16        -0.4360   -0.5080   -0.9810 h1        1 Z74      0.112700
     69 H17        -1.1730    1.7780   -0.1400 h1        1 Z74      0.088700
     70 H18        -3.5790   -0.1910    0.0140 h1        1 Z74      0.063700
     71 H19        -1.4320   -1.5180    1.7970 hc        1 Z74      0.060200
     72 H19A       -2.2470   -1.7980    0.1990 hc        1 Z74      0.060200
     73 H21         0.1280   -3.1040    2.5350 ha        1 Z74      0.155500
     74 H23         1.8160   -5.9870   -0.2370 ha        1 Z74      0.166000
     75 H25        -0.7370   -2.7910   -1.7060 ha        1 Z74      0.155500
     76 H26        -3.1330    2.7710   -0.8400 h1        1 Z74      0.063700
     77 H26A       -4.0350    2.1450    0.6160 h1        1 Z74      0.063700
     78 H27        -5.8750    1.1870   -3.0120 h1        1 Z74      0.061200
     79 H27A       -4.3560    2.1740   -3.2150 h1        1 Z74      0.061200
     80 H28        -3.7770   -0.1140   -3.7230 h1        1 Z74      0.062700
     81 H28A       -4.6400   -0.7670   -2.2570 h1        1 Z74      0.062700
     82 H30        -7.9730    0.1320   -1.4060 ha        1 Z74      0.153000
     83 H31        -8.7940   -1.8050   -0.0660 ha        1 Z74      0.142500
     84 H32        -8.2740   -1.9450    2.3740 ha        1 Z74      0.138000
     85 H33        -6.9350   -0.1400    3.4660 ha        1 Z74      0.142500
     86 H34        -6.1140    1.7930    2.1200 ha        1 Z74      0.153000
     87 S1         -6.4340    2.3970   -0.6390 sy        1 Z74      1.508200
     88 F2          1.6390   -5.2360    2.2910 f         1 Z74     -0.134400
@<TRIPOS>BOND
     1    1    5 ar  
     2    1   16 ar  
     3    1   45 1   
     4    2   34 1   
     5    3   17 1   
     6    3   26 1   
     7    3   46 1   
     8    4   87 2   
     9    5    8 ar  
    10    5   18 1   
    11    6   18 1   
    12    6   19 1   
    13    6   20 1   
    14    7   87 2   
    15    8   11 ar  
    16    8   47 1   
    17    9   36 1   
    18    9   37 1   
    19    9   87 1   
    20   10   18 2   
    21   11   14 ar  
    22   11   17 1   
    23   12   28 1   
    24   12   38 1   
    25   12   48 1   
    26   13   17 2   
    27   14   16 ar  
    28   14   49 1   
    29   15   27 1   
    30   15   50 1   
    31   16   25 1   
    32   19   23 1   
    33   19   51 1   
    34   19   52 1   
    35   20   21 1   
    36   20   53 1   
    37   20   54 1   
    38   21   22 1   
    39   21   55 1   
    40   21   56 1   
    41   22   57 1   
    42   22   58 1   
    43   22   59 1   
    44   23   24 1   
    45   23   60 1   
    46   23   61 1   
    47   24   62 1   
    48   24   63 1   
    49   24   64 1   
    50   25   65 1   
    51   25   66 1   
    52   25   67 1   
    53   26   27 1   
    54   26   29 1   
    55   26   68 1   
    56   27   28 1   
    57   27   69 1   
    58   28   36 1   
    59   28   70 1   
    60   29   30 1   
    61   29   71 1   
    62   29   72 1   
    63   30   31 ar  
    64   30   35 ar  
    65   31   32 ar  
    66   31   73 1   
    67   32   33 ar  
    68   32   88 1   
    69   33   34 ar  
    70   33   74 1   
    71   34   35 ar  
    72   35   75 1   
    73   36   76 1   
    74   36   77 1   
    75   37   38 1   
    76   37   78 1   
    77   37   79 1   
    78   38   80 1   
    79   38   81 1   
    80   39   40 ar  
    81   39   44 ar  
    82   39   87 1   
    83   40   41 ar  
    84   40   82 1   
    85   41   42 ar  
    86   41   83 1   
    87   42   43 ar  
    88   42   84 1   
    89   43   44 ar  
    90   43   85 1   
    91   44   86 1   
@<TRIPOS>SUBSTRUCTURE
     1 Z74         1 TEMP              0 ****  ****    0 ROOT
