@<TRIPOS>MOLECULE
Z75
   88    91     1     0     0
SMALL
bcc


@<TRIPOS>ATOM
      1 C1          4.8310    2.0050    1.9480 ca        1 Z75     -0.079000
      2 F1          1.9050   -5.0130    3.1180 f         1 Z75     -0.135400
      3 N1          6.6710    1.0740   -0.8470 n         1 Z75     -0.470800
      4 O1          6.9520   -0.0960    1.1040 o         1 Z75     -0.595100
      5 C2          4.8990    1.0940    0.8930 ca        1 Z75     -0.126600
      6 F2          0.6540   -5.2310   -1.4740 f         1 Z75     -0.135400
      7 N2          0.2820   -0.1030    1.1230 n         1 Z75     -0.556900
      8 O2          1.1430    0.2370   -0.9780 o         1 Z75     -0.607100
      9 C3          3.7320    0.5490    0.3510 ca        1 Z75     -0.060000
     10 N3         -3.3630   -0.4980   -1.1330 n3        1 Z75     -0.800200
     11 O3         -2.2490    0.9030    2.1370 oh        1 Z75     -0.598800
     12 C4          2.4920    0.9260    0.8750 ca        1 Z75     -0.138600
     13 N4         -5.7030    1.0640   -0.2980 n3        1 Z75     -0.727600
     14 C5          2.4180    1.8470    1.9240 ca        1 Z75     -0.098000
     15 C6          3.5880    2.3920    2.4640 ca        1 Z75     -0.083300
     16 C7          6.2400    0.6500    0.4010 c         1 Z75      0.671700
     17 C8          7.9720    0.6690   -1.3350 c3        1 Z75      0.090000
     18 C9          5.9350    2.0240   -1.6440 c3        1 Z75      0.090000
     19 C10         6.2950    3.4910   -1.3940 c3        1 Z75     -0.100900
     20 C11         5.4910    4.3840   -2.3030 c3        1 Z75     -0.093100
     21 C12         7.9330   -0.4350   -2.3950 c3        1 Z75     -0.100900
     22 C13         9.3310   -0.7620   -2.8500 c3        1 Z75     -0.093100
     23 C14         3.5170    3.3770    3.5680 c3        1 Z75     -0.056800
     24 C15         1.2620    0.3460    0.2590 c         1 Z75      0.674700
     25 C16        -0.9940   -0.5950    0.6570 c3        1 Z75      0.082700
     26 C17        -2.0920    0.5000    0.7870 c3        1 Z75      0.114100
     27 C18        -1.4220   -1.8740    1.3990 c3        1 Z75     -0.052100
     28 C19        -0.4650   -2.9970    1.1980 ca        1 Z75     -0.022300
     29 C20         0.2900   -3.4740    2.2710 ca        1 Z75     -0.177000
     30 C21         1.1750   -4.5510    2.0750 ca        1 Z75      0.154900
     31 C22         1.3100   -5.1540    0.8150 ca        1 Z75     -0.208000
     32 C23         0.5400   -4.6600   -0.2510 ca        1 Z75      0.154900
     33 C24        -0.3480   -3.5860   -0.0640 ca        1 Z75     -0.177000
     34 C25        -3.4590    0.0810    0.2000 c3        1 Z75      0.135500
     35 C26        -4.3900    1.3250    0.2750 c3        1 Z75      0.133800
     36 C28        -5.6230    0.5100   -1.6420 c3        1 Z75      0.126800
     37 C29        -4.6710   -0.7010   -1.7230 c3        1 Z75      0.153800
     38 C31        -7.9930    1.9770   -0.5970 ca        1 Z75     -0.090300
     39 C32        -8.7060    0.9270   -0.0090 ca        1 Z75     -0.118000
     40 C33       -10.0480    0.7260   -0.3310 ca        1 Z75     -0.133000
     41 C34       -10.6860    1.5730   -1.2360 ca        1 Z75     -0.128000
     42 C35        -9.9790    2.6220   -1.8230 ca        1 Z75     -0.133000
     43 C36        -8.6360    2.8240   -1.5070 ca        1 Z75     -0.118000
     44 H1          5.7570    2.4140    2.3810 ha        1 Z75      0.148000
     45 HN2         0.3550    0.1030    2.0910 hn        1 Z75      0.315500
     46 H3          3.7770   -0.1690   -0.4840 ha        1 Z75      0.163000
     47 HN3        -2.8030    0.0950   -1.7210 hn        1 Z75      0.357800
     48 HO3        -2.6680    0.1750    2.6130 ho        1 Z75      0.402000
     49 H5          1.4420    2.1600    2.3260 ha        1 Z75      0.140000
     50 H8          8.4830    1.5750   -1.7740 h1        1 Z75      0.057950
     51 H8A         8.5920    0.3060   -0.4640 h1        1 Z75      0.057950
     52 H9          6.1300    1.7880   -2.7310 h1        1 Z75      0.057950
     53 H9A         4.8300    1.8890   -1.4620 h1        1 Z75      0.057950
     54 H10         6.0890    3.7550   -0.3230 hc        1 Z75      0.046200
     55 H10A        7.3900    3.6540   -1.5740 hc        1 Z75      0.046200
     56 H11         4.3960    4.2490   -2.1240 hc        1 Z75      0.036200
     57 H11A        5.7490    5.4550   -2.1170 hc        1 Z75      0.036200
     58 H11B        5.7020    4.1520   -3.3750 hc        1 Z75      0.036200
     59 H12         7.4490   -1.3510   -1.9680 hc        1 Z75      0.046200
     60 H12A        7.3160   -0.1070   -3.2720 hc        1 Z75      0.046200
     61 H13         9.8250    0.1350   -3.2960 hc        1 Z75      0.036200
     62 H13A        9.9540   -1.1150   -1.9920 hc        1 Z75      0.036200
     63 H13B        9.3040   -1.5690   -3.6220 hc        1 Z75      0.036200
     64 H14         3.5840    4.4160    3.1560 hc        1 Z75      0.048700
     65 H14A        2.5550    3.2850    4.1300 hc        1 Z75      0.048700
     66 H14B        4.3610    3.2300    4.2850 hc        1 Z75      0.048700
     67 H16        -0.8790   -0.8460   -0.4430 h1        1 Z75      0.111700
     68 H17        -1.7340    1.4360    0.2670 h1        1 Z75      0.084700
     69 H18        -1.5380   -1.6600    2.4950 hc        1 Z75      0.061700
     70 H18A       -2.4250   -2.1830    0.9990 hc        1 Z75      0.061700
     71 H20         0.2060   -3.0190    3.2680 ha        1 Z75      0.155500
     72 H22         2.0030   -5.9930    0.6650 ha        1 Z75      0.165000
     73 H24        -0.9400   -3.2120   -0.9130 ha        1 Z75      0.155500
     74 H25        -3.9060   -0.7170    0.8660 h1        1 Z75      0.068700
     75 H26        -3.8740    2.1940   -0.2310 h1        1 Z75      0.043200
     76 H26A       -4.5230    1.5910    1.3600 h1        1 Z75      0.043200
     77 H28        -6.6580    0.1730   -1.9310 h1        1 Z75      0.042200
     78 H28A       -5.2910    1.2840   -2.3940 h1        1 Z75      0.042200
     79 H29        -4.5380   -0.9730   -2.8060 h1        1 Z75      0.061700
     80 H29A       -5.1470   -1.5750   -1.1960 h1        1 Z75      0.061700
     81 H30        -6.5510    2.5910    0.8540 h1        1 Z75      0.040700
     82 H30A       -6.1630    3.0840   -0.8560 h1        1 Z75      0.040700
     83 H32        -8.2030    0.2580    0.7050 ha        1 Z75      0.137500
     84 H33       -10.6030   -0.1020    0.1330 ha        1 Z75      0.131500
     85 H34       -11.7450    1.4150   -1.4870 ha        1 Z75      0.131000
     86 H35       -10.4790    3.2920   -2.5370 ha        1 Z75      0.131500
     87 H36        -8.0830    3.6520   -1.9740 ha        1 Z75      0.137500
     88 C30        -6.5640    2.2390   -0.2200 c3        1 Z75      0.215100
@<TRIPOS>BOND
     1    1    5 ar  
     2    1   15 ar  
     3    1   44 1   
     4    2   30 1   
     5    3   16 1   
     6    3   17 1   
     7    3   18 1   
     8    4   16 2   
     9    5    9 ar  
    10    5   16 1   
    11    6   32 1   
    12    7   24 1   
    13    7   25 1   
    14    7   45 1   
    15    8   24 2   
    16    9   12 ar  
    17    9   46 1   
    18   10   34 1   
    19   10   37 1   
    20   10   47 1   
    21   11   26 1   
    22   11   48 1   
    23   12   14 ar  
    24   12   24 1   
    25   13   35 1   
    26   13   36 1   
    27   13   88 1   
    28   14   15 ar  
    29   14   49 1   
    30   15   23 1   
    31   17   21 1   
    32   17   50 1   
    33   17   51 1   
    34   18   19 1   
    35   18   52 1   
    36   18   53 1   
    37   19   20 1   
    38   19   54 1   
    39   19   55 1   
    40   20   56 1   
    41   20   57 1   
    42   20   58 1   
    43   21   22 1   
    44   21   59 1   
    45   21   60 1   
    46   22   61 1   
    47   22   62 1   
    48   22   63 1   
    49   23   64 1   
    50   23   65 1   
    51   23   66 1   
    52   25   26 1   
    53   25   27 1   
    54   25   67 1   
    55   26   34 1   
    56   26   68 1   
    57   27   28 1   
    58   27   69 1   
    59   27   70 1   
    60   28   29 ar  
    61   28   33 ar  
    62   29   30 ar  
    63   29   71 1   
    64   30   31 ar  
    65   31   32 ar  
    66   31   72 1   
    67   32   33 ar  
    68   33   73 1   
    69   34   35 1   
    70   34   74 1   
    71   35   75 1   
    72   35   76 1   
    73   36   37 1   
    74   36   77 1   
    75   36   78 1   
    76   37   79 1   
    77   37   80 1   
    78   38   39 ar  
    79   38   43 ar  
    80   38   88 1   
    81   39   40 ar  
    82   39   83 1   
    83   40   41 ar  
    84   40   84 1   
    85   41   42 ar  
    86   41   85 1   
    87   42   43 ar  
    88   42   86 1   
    89   43   87 1   
    90   81   88 1   
    91   82   88 1   
@<TRIPOS>SUBSTRUCTURE
     1 Z75         1 TEMP              0 ****  ****    0 ROOT
