@<TRIPOS>MOLECULE
Z75
   88    86     1     0     0
SMALL
bcc


@<TRIPOS>ATOM
      1 C1         -0.6670   -1.5850    1.9610 cu        1 Z75      0.024000
      2 F1         11.6810    1.1300    6.7000 f         1 Z75     -0.114000
      3 N1          0.1580    1.6290    0.4570 n         1 Z75     -0.379000
      4 O1         -1.7460    1.2550    1.6430 o         1 Z75     -0.436000
      5 C2         -0.0390   -0.3820    1.8610 c2        1 Z75     -0.225000
      6 F2         10.3660   -2.1130   11.8220 f         1 Z75     -0.107000
      7 N2          3.5470   -1.5990    3.8770 n         1 Z75     -0.406000
      8 O2          2.0720   -3.1990    4.5700 o         1 Z75     -0.404000
      9 C3          1.3430   -0.5700    2.2770 c1        1 Z75     -0.005000
     10 N3          3.4860   -3.7610    7.2400 n3        1 Z75     -0.294000
     11 O3          4.5610   -0.9590    6.6420 oh        1 Z75     -0.350000
     12 C4          1.5580   -2.0580    2.5000 c3        1 Z75     -0.200000
     13 N4          1.3090    0.6060    7.1590 n3        1 Z75     -0.165000
     14 C5          0.1580   -2.6630    2.5870 cx        1 Z75     -0.218000
     15 C6         -0.8490   -2.9440    1.4540 cx        1 Z75     -0.044000
     16 C7         -0.5890    0.8780    1.3230 c2        1 Z75      0.374000
     17 C8         -1.3210    3.9690   -0.3690 c1        1 Z75     -0.090000
     18 C9          1.5190    1.3390    0.1420 c3        1 Z75     -0.069000
     19 C10         3.0170   -2.0710   -0.8230 c2        1 Z75     -0.226000
     20 C11         3.2400   -3.3440   -0.5240 c2        1 Z75     -0.226000
     21 C12        -2.1700    4.3080    0.7380 c3        1 Z75     -0.266000
     22 C13        -3.3310    5.2330    0.4860 c3        1 Z75     -0.234000
     23 C14        -2.0210   -3.7940    1.8040 c3        1 Z75     -0.200000
     24 C15         2.3980   -2.3250    3.7350 c2        1 Z75      0.327000
     25 C16         6.4790   -2.0760    7.4390 c2        1 Z75     -0.224000
     26 C17         5.1400   -1.9510    7.3970 c2        1 Z75      0.031000
     27 C18         7.4060   -1.1520    6.7500 c3        1 Z75     -0.075000
     28 C19         8.6640   -0.8700    7.5080 c2        1 Z75      0.020000
     29 C20         9.6180   -0.0210    6.8210 c2        1 Z75     -0.190000
     30 C21        10.8070    0.3390    7.3540 c2        1 Z75      0.016000
     31 C22         9.0950   -1.8160    9.8660 c1        1 Z75     -0.187000
     32 C23         9.2640   -2.3230   11.0720 c2        1 Z75      0.070000
     33 C24         8.8870   -1.3550    8.7160 c1        1 Z75     -0.069000
     34 C25         4.2040   -2.8760    8.1290 c3        1 Z75     -0.045000
     35 C26         2.1720   -0.0670    7.8540 c1        1 Z75     -0.218000
     36 C28         2.0470   -4.6150    9.0310 c2        1 Z75     -0.352000
     37 C29         2.3810   -4.4420    7.7400 c2        1 Z75     -0.025000
     38 C31        -1.1960    0.5570    6.9800 c3        1 Z75     -0.169000
     39 C32        -1.2600    0.7690    5.5120 c2        1 Z75     -0.126000
     40 C33        -2.3990    1.1840    4.9150 c2        1 Z75     -0.184000
     41 C34        -3.5720    1.4670    5.7020 c2        1 Z75     -0.006000
     42 C35        -3.5500    1.3330    7.0600 c2        1 Z75     -0.245000
     43 C36        -2.3740    0.9680    7.7630 c1        1 Z75     -0.079000
     44 H1         -0.5060   -3.0960    0.4050 hc        1 Z75      0.141000
     45 HN2         4.0780   -1.6810    4.7160 hn        1 Z75      0.244500
     46 H3          2.1100   -2.4490    1.5910 hc        1 Z75      0.177000
     47 HN3         3.3460   -3.3890    6.3190 hn        1 Z75      0.217000
     48 HO3         3.7120   -0.6750    7.0870 ho        1 Z75      0.282000
     49 H5         -0.0580   -3.1650    3.5490 hc        1 Z75      0.190000
     50 H8         -0.2330    2.5210    0.1380 hn        1 Z75      0.292000
     51 H8A        -1.5880    4.3400   -1.3680 ha        1 Z75      0.056000
     52 H9          1.8270    1.9630   -0.7390 h1        1 Z75      0.076667
     53 H9A         2.1980    1.5660    1.0090 h1        1 Z75      0.076667
     54 H10         1.6510    0.2530   -0.1210 h1        1 Z75      0.076667
     55 H10A        2.3190   -1.7580   -1.6110 ha        1 Z75      0.114000
     56 H11         3.5230   -1.2420   -0.3070 ha        1 Z75      0.114000
     57 H11A        3.9460   -3.6560    0.2580 ha        1 Z75      0.114000
     58 H11B        2.7420   -4.1720   -1.0450 ha        1 Z75      0.114000
     59 H12        -1.5140    4.7130    1.5640 hc        1 Z75      0.173000
     60 H12A       -2.5320    3.2980    1.1320 hc        1 Z75      0.173000
     61 H13        -3.9290    5.3750    1.4190 hc        1 Z75      0.077000
     62 H13A       -4.0050    4.8160   -0.3000 hc        1 Z75      0.077000
     63 H13B       -2.9730    6.2340    0.1450 hc        1 Z75      0.077000
     64 H14        -2.8790   -3.5530    1.1280 hc        1 Z75      0.098000
     65 H14A       -1.7550   -4.8720    1.6770 hc        1 Z75      0.098000
     66 H14B       -2.3460   -3.6320    2.8610 hc        1 Z75      0.098000
     67 H16         3.6900   -0.8040    3.3020 hn        1 Z75      0.244500
     68 H17         6.9330   -2.9160    7.9860 ha        1 Z75      0.139000
     69 H18         7.6890   -1.5950    5.7530 hc        1 Z75      0.105500
     70 H18A        6.8880   -0.1730    6.5420 hc        1 Z75      0.105500
     71 H20         9.3230    0.3300    5.8180 ha        1 Z75      0.146000
     72 H22        11.1580    0.0210    8.3520 h4        1 Z75      0.155000
     73 H24         8.5080   -2.9630   11.5620 h4        1 Z75      0.157000
     74 H25         4.7900   -3.5140    8.8500 h1        1 Z75      0.088000
     75 H26         3.4940   -2.2370    8.7400 h1        1 Z75      0.088000
     76 H26A        1.9600   -0.2500    8.9240 ha        1 Z75      0.078000
     77 H28         1.5000    0.7600    6.1890 hn        1 Z75      0.234000
     78 H28A        2.5900   -4.1650    9.8680 ha        1 Z75      0.112000
     79 H29         1.1990   -5.2510    9.3070 ha        1 Z75      0.112000
     80 H29A        1.7880   -4.9230    6.9340 h4        1 Z75      0.137000
     81 H30         0.0630    2.2830    7.3920 h1        1 Z75      0.119000
     82 H30A       -0.0260    1.0490    8.7370 h1        1 Z75      0.119000
     83 H32        -1.1720   -0.5730    7.1520 hc        1 Z75      0.176000
     84 H33        -0.3640    0.5380    4.9160 ha        1 Z75      0.131000
     85 H34        -2.4600    1.3110    3.8180 ha        1 Z75      0.176000
     86 H35        -4.4750    1.8030    5.1650 ha        1 Z75      0.135000
     87 H36        -4.4480    1.5470    7.6620 ha        1 Z75      0.149000
     88 C30         0.0560    1.1800    7.6200 c3        1 Z75     -0.076000
@<TRIPOS>BOND
     1    1    5 1   
     2    1   14 1   
     3    1   15 1   
     4    2   30 1   
     5    3   16 1   
     6    3   18 1   
     7    3   50 1   
     8    4   16 1   
     9    5    9 1   
    10    5   16 1   
    11    6   32 1   
    12    7   24 1   
    13    7   45 1   
    14    7   67 1   
    15    8   24 1   
    16    9   12 1   
    17   10   34 1   
    18   10   37 1   
    19   10   47 1   
    20   11   26 1   
    21   11   48 1   
    22   12   14 1   
    23   12   24 1   
    24   12   46 1   
    25   13   35 1   
    26   13   77 1   
    27   13   88 1   
    28   14   15 1   
    29   14   49 1   
    30   15   23 1   
    31   15   44 1   
    32   17   21 1   
    33   17   51 1   
    34   18   52 1   
    35   18   53 1   
    36   18   54 1   
    37   19   20 1   
    38   19   55 1   
    39   19   56 1   
    40   20   57 1   
    41   20   58 1   
    42   21   22 1   
    43   21   59 1   
    44   21   60 1   
    45   22   61 1   
    46   22   62 1   
    47   22   63 1   
    48   23   64 1   
    49   23   65 1   
    50   23   66 1   
    51   25   26 1   
    52   25   27 1   
    53   25   68 1   
    54   26   34 1   
    55   27   28 1   
    56   27   69 1   
    57   27   70 1   
    58   28   29 1   
    59   28   33 1   
    60   29   30 1   
    61   29   71 1   
    62   30   72 1   
    63   31   32 1   
    64   31   33 1   
    65   32   73 1   
    66   34   74 1   
    67   34   75 1   
    68   35   76 1   
    69   36   37 1   
    70   36   78 1   
    71   36   79 1   
    72   37   80 1   
    73   38   39 1   
    74   38   43 1   
    75   38   83 1   
    76   38   88 1   
    77   39   40 1   
    78   39   84 1   
    79   40   41 1   
    80   40   85 1   
    81   41   42 1   
    82   41   86 1   
    83   42   43 1   
    84   42   87 1   
    85   81   88 1   
    86   82   88 1   
@<TRIPOS>SUBSTRUCTURE
     1 Z75         1 TEMP              0 ****  ****    0 ROOT
