@<TRIPOS>MOLECULE
Z77
   54    56     1     0     0
SMALL
bcc


@<TRIPOS>ATOM
      1 N1         -2.7180    0.8790    0.0450 n         1 Z77     -0.423100
      2 N2         -0.5400    1.8530    0.0170 n         1 Z77     -0.408800
      3 N3          3.8190    1.1300   -1.2050 n         1 Z77     -0.440100
      4 CAA        -7.0050   -3.0530   -1.5760 c3        1 Z77      0.114700
      5 OAE        -0.9380    4.8120   -0.1300 oh        1 Z77     -0.592800
      6 SAF        -0.9930    0.0760    1.8940 s         1 Z77     -0.620400
      7 CAG        -4.8540   -1.6700    1.7480 ca        1 Z77     -0.086000
      8 CAH        -3.8850   -0.6860    1.5730 ca        1 Z77     -0.145000
      9 CAI        -5.6040   -2.1530    0.6790 ca        1 Z77     -0.209000
     10 CAJ        -4.3880   -0.6490   -0.8100 ca        1 Z77     -0.200000
     11 CAK         3.6910   -1.8100    1.0510 ca        1 Z77     -0.060000
     12 CAL         5.3110   -0.7960   -0.9940 ca        1 Z77     -0.189000
     13 CAM         2.1810    0.1530    0.8550 cc        1 Z77      0.004800
     14 CAO        -0.8300    2.6640   -1.1420 c3        1 Z77      0.059000
     15 CAP         0.7000    2.1610    0.7140 c3        1 Z77      0.140200
     16 OAS        -6.0430   -2.0180   -1.7400 os        1 Z77     -0.330900
     17 CAT        -1.4390    0.9620    0.5930 c         1 Z77      0.593400
     18 CAU         4.8190   -2.5150    0.6540 ca        1 Z77     -0.117300
     19 CAV         5.6350   -1.9970   -0.3790 ca        1 Z77     -0.020300
     20 CAW        -3.6390   -0.1660    0.2850 ca        1 Z77      0.077600
     21 CAX        -5.3650   -1.6320   -0.5970 ca        1 Z77      0.135100
     22 CAY         1.8670    1.3340    0.2660 cd        1 Z77     -0.223400
     23 CAZ         2.6830    1.8620   -0.8390 c         1 Z77      0.701700
     24 CBA         3.3440   -0.5910    0.4470 ca        1 Z77     -0.141800
     25 CBB         4.1600   -0.0710   -0.5950 ca        1 Z77      0.096600
     26 HN1        -2.9140    1.3880   -0.7940 hn        1 Z77      0.307500
     27 HN3         4.3910    1.4750   -1.9440 hn        1 Z77      0.331500
     28 HAA        -6.5230   -3.9840   -1.1910 h1        1 Z77      0.044367
     29 HAAA       -7.8250   -2.7240   -0.8920 h1        1 Z77      0.044367
     30 HAAB       -7.3970   -3.2100   -2.6130 h1        1 Z77      0.044367
     31 HAB         5.1920   -4.6230    0.5460 hc        1 Z77      0.044367
     32 HABA        6.1810   -3.7320    1.7750 hc        1 Z77      0.044367
     33 HABB        4.4280   -4.0700    2.0950 hc        1 Z77      0.044367
     34 HAC         7.5420   -2.8700    0.0580 hc        1 Z77      0.049033
     35 HACA        6.5540   -3.7630   -1.1710 hc        1 Z77      0.049033
     36 HACB        7.3840   -2.2150   -1.6280 hc        1 Z77      0.049033
     37 HOAE       -1.4930    5.5870    0.0220 ho        1 Z77      0.404000
     38 HAG        -5.0300   -2.0720    2.7580 ha        1 Z77      0.138000
     39 HAH        -3.2960   -0.3330    2.4380 ha        1 Z77      0.184000
     40 HAI        -6.3640   -2.9280    0.8450 ha        1 Z77      0.139000
     41 HAJ        -4.2310   -0.2750   -1.8320 ha        1 Z77      0.145000
     42 HAK         3.0460   -2.2030    1.8540 ha        1 Z77      0.144000
     43 HAL         5.9530   -0.4040   -1.7970 ha        1 Z77      0.137000
     44 HAM         1.5320   -0.2600    1.6550 ha        1 Z77      0.183000
     45 HAN        -2.6520    3.6410   -0.3340 h1        1 Z77      0.030200
     46 HANA       -1.9800    4.3520   -1.8790 h1        1 Z77      0.030200
     47 HAO         0.1600    3.0290   -1.5590 h1        1 Z77      0.083700
     48 HAOA       -1.3210    2.0410   -1.9410 h1        1 Z77      0.083700
     49 HAP         0.9290    3.2550    0.5340 h1        1 Z77      0.097200
     50 HAPA        0.5470    2.0010    1.8250 h1        1 Z77      0.097200
     51 CAB         5.1680   -3.7990    1.3030 c3        1 Z77     -0.047800
     52 CAC         6.8420   -2.7440   -0.8070 c3        1 Z77     -0.059800
     53 OAD         2.4330    2.9080   -1.4740 o         1 Z77     -0.658500
     54 CAN        -1.7110    3.8980   -0.8870 c3        1 Z77      0.105400
@<TRIPOS>BOND
     1    1   17 1   
     2    1   20 1   
     3    1   26 1   
     4    2   14 1   
     5    2   15 1   
     6    2   17 1   
     7    3   23 1   
     8    3   25 1   
     9    3   27 1   
    10    4   16 1   
    11    4   28 1   
    12    4   29 1   
    13    4   30 1   
    14    5   37 1   
    15    5   54 1   
    16    6   17 2   
    17    7    8 ar  
    18    7    9 ar  
    19    7   38 1   
    20    8   20 ar  
    21    8   39 1   
    22    9   21 ar  
    23    9   40 1   
    24   10   20 ar  
    25   10   21 ar  
    26   10   41 1   
    27   11   18 ar  
    28   11   24 ar  
    29   11   42 1   
    30   12   19 ar  
    31   12   25 ar  
    32   12   43 1   
    33   13   22 2   
    34   13   24 1   
    35   13   44 1   
    36   14   47 1   
    37   14   48 1   
    38   14   54 1   
    39   15   22 1   
    40   15   49 1   
    41   15   50 1   
    42   16   21 1   
    43   18   19 ar  
    44   18   51 1   
    45   19   52 1   
    46   22   23 1   
    47   23   53 2   
    48   24   25 ar  
    49   31   51 1   
    50   32   51 1   
    51   33   51 1   
    52   34   52 1   
    53   35   52 1   
    54   36   52 1   
    55   45   54 1   
    56   46   54 1   
@<TRIPOS>SUBSTRUCTURE
     1 Z77         1 TEMP              0 ****  ****    0 ROOT
