@<TRIPOS>MOLECULE
Z77
   55    55     1     0     0
SMALL
bcc


@<TRIPOS>ATOM
      1 N1          1.4510   -1.0810    1.9860 n2        1 Z77     -0.251000
      2 N2          0.9620    0.5670   -1.0780 n7        1 Z77     -0.314000
      3 N3          3.0590   -2.4070   -3.6410 n7        1 Z77     -0.196000
      4 OAE         1.4580    1.6690   -3.7800 oh        1 Z77     -0.275000
      5 SAF         3.9330   -1.9240    2.5400 sh        1 Z77     -0.050000
      6 CAG        -1.5410   -0.4960    3.7630 c1        1 Z77     -0.055000
      7 CAH        -0.3510   -1.0670    3.7400 c2        1 Z77     -0.162000
      8 CAI        -2.4720   -0.1900    2.8720 c2        1 Z77     -0.160000
      9 CAJ        -0.8720   -1.2260    1.3350 c2        1 Z77     -0.302000
     10 CAK         5.2420   -3.7240   -0.9680 c2        1 Z77     -0.069000
     11 CAL         4.6550   -4.2470   -3.7200 c1        1 Z77     -0.050000
     12 CAM         3.5840   -1.8970   -0.9070 c2        1 Z77      0.020000
     13 CAO         0.2350    0.1140   -2.2370 c3        1 Z77     -0.132000
     14 CAP         2.3700    0.2770   -1.0500 c3        1 Z77     -0.033000
     15 OAS        -3.1220   -1.0510    0.6490 oh        1 Z77     -0.307000
     16 CAT         2.5130   -0.8890    2.9120 c3        1 Z77     -0.163000
     17 CAU         5.9880   -4.7130   -1.7080 c2        1 Z77      0.063000
     18 CAV         5.6950   -4.9510   -3.0510 c2        1 Z77     -0.240000
     19 CAW         0.2060   -1.0720    2.3420 c2        1 Z77      0.116000
     20 CAX        -2.1800   -0.9040    1.6020 c2        1 Z77      0.169000
     21 CAY         2.8340   -1.0250   -1.6320 c2        1 Z77     -0.213000
     22 CAZ         2.6070   -1.2900   -3.0500 c2        1 Z77      0.342000
     23 CBA         4.2160   -3.0350   -1.5330 c2        1 Z77     -0.134000
     24 CBB         3.7200   -3.4610   -2.8860 c3        1 Z77     -0.026000
     25 HN1         2.9230    0.1540    2.7930 h2        1 Z77      0.125500
     26 HN3         3.0060   -2.5360   -4.6380 hn        1 Z77      0.301000
     27 HAA        -4.0450   -0.8380    1.0340 ho        1 Z77      0.299000
     28 HAAA       -6.4440   -1.2070    1.1580 ha        1 Z77      0.062000
     29 HAAB       -5.9940    0.2710    2.1600 ha        1 Z77      0.062000
     30 HAB         7.4570   -4.8780   -0.1390 hc        1 Z77      0.126333
     31 HABA        7.9320   -5.5690   -1.7710 hc        1 Z77      0.126333
     32 HABB        6.7480   -6.4480   -0.7170 hc        1 Z77      0.126333
     33 HAC         7.2940   -7.6070   -2.8650 ha        1 Z77      0.014000
     34 HACA        6.6420   -7.6490   -2.6680 ha        1 Z77      0.014000
     35 HACB        6.1930   -6.3870   -4.6360 ha        1 Z77      0.111000
     36 HOAE        1.7560    2.0620   -2.9460 ho        1 Z77      0.242000
     37 HAG         0.1350   -1.6440    4.5320 ha        1 Z77      0.175000
     38 HAH         3.4360   -3.1170    2.8210 hs        1 Z77      0.048000
     39 HAI        -3.2580    0.5680    2.9180 ha        1 Z77      0.177000
     40 HAJ        -0.5950   -1.6190    0.3490 ha        1 Z77      0.150000
     41 HAK         5.5690   -3.5010    0.0640 ha        1 Z77      0.173000
     42 HAL         2.9090   -4.2650   -2.6820 h1        1 Z77      0.186000
     43 HAM         3.7690   -1.7340    0.1870 ha        1 Z77      0.218000
     44 HAN         0.1920    0.2470   -4.4520 h2        1 Z77      0.179000
     45 HANA       -0.7630    0.6460   -2.2260 h1        1 Z77      0.114500
     46 HAO         0.4950    0.2680   -0.2370 hn        1 Z77      0.215000
     47 HAOA        0.0300   -0.9980   -2.2230 h1        1 Z77      0.114500
     48 HAP         2.7230    0.3440    0.0220 h1        1 Z77      0.120500
     49 HAPA        2.9040    1.0940   -1.6250 h1        1 Z77      0.120500
     50 CAC         6.5740   -5.7210   -3.8550 c1        1 Z77      0.032000
     51 OAD         1.9920   -0.4810   -3.9300 os        1 Z77     -0.255000
     52 CAN         0.8950    0.4290   -3.5790 c3        1 Z77      0.182000
     53 H21         2.2360   -1.0350    3.9910 h2        1 Z77      0.125500
     54 CAB         7.0860   -5.4270   -1.0390 c3        1 Z77     -0.226000
     55 CAA        -5.6440   -0.5490    1.5200 c1        1 Z77     -0.038000
@<TRIPOS>BOND
     1    1   16 1   
     2    1   19 1   
     3    2   13 1   
     4    2   14 1   
     5    2   46 1   
     6    3   22 1   
     7    3   24 1   
     8    3   26 1   
     9    4   36 1   
    10    4   52 1   
    11    5   16 1   
    12    5   38 1   
    13    6    7 1   
    14    6    8 1   
    15    7   19 1   
    16    7   37 1   
    17    8   20 1   
    18    8   39 1   
    19    9   19 1   
    20    9   20 1   
    21    9   40 1   
    22   10   17 1   
    23   10   23 1   
    24   10   41 1   
    25   11   18 1   
    26   11   24 1   
    27   12   21 1   
    28   12   23 1   
    29   12   43 1   
    30   13   45 1   
    31   13   47 1   
    32   13   52 1   
    33   14   21 1   
    34   14   48 1   
    35   14   49 1   
    36   15   20 1   
    37   15   27 1   
    38   16   25 1   
    39   16   53 1   
    40   17   18 1   
    41   17   54 1   
    42   18   50 1   
    43   21   22 1   
    44   22   51 1   
    45   23   24 1   
    46   24   42 1   
    47   28   55 1   
    48   29   55 1   
    49   30   54 1   
    50   31   54 1   
    51   32   54 1   
    52   33   34 1   
    53   35   50 1   
    54   44   52 1   
    55   51   52 1   
@<TRIPOS>SUBSTRUCTURE
     1 Z77         1 TEMP              0 ****  ****    0 ROOT
