@<TRIPOS>MOLECULE
Z77
   55    55     1     0     0
SMALL
bcc


@<TRIPOS>ATOM
      1 N1          0.7790   -0.2500    0.6480 n         1 Z77     -0.204000
      2 N2          2.3240    1.3950   -0.2240 n4        1 Z77     -0.071000
      3 N3          2.4470   -2.3150   -2.5610 n         1 Z77     -0.261000
      4 OAE         2.3040    2.4220   -2.8560 oh        1 Z77     -0.347000
      5 SAF         1.9540    1.4700    2.3430 s         1 Z77      0.001000
      6 CAG        -0.7440   -1.7200    3.7400 ca        1 Z77     -0.070000
      7 CAH         0.1200   -0.9720    2.9390 ca        1 Z77     -0.166000
      8 CAI        -1.7850   -2.4580    3.1910 ca        1 Z77     -0.183000
      9 CAJ        -1.1150   -1.7040    0.9670 ca        1 Z77     -0.184000
     10 CAK         5.2040   -3.9910   -0.7170 ca        1 Z77     -0.028000
     11 CAL         3.3310   -4.5790   -2.7290 ca        1 Z77     -0.232000
     12 CAM         4.3380   -1.6710   -0.5880 c2        1 Z77      0.066000
     13 CAO         1.4200    3.7530   -4.6510 c2        1 Z77     -0.292000
     14 CAP         3.6010    0.7060   -0.5850 c3        1 Z77     -0.050000
     15 OAS        -2.9490   -3.1400    1.1310 os        1 Z77     -0.205000
     16 CAT         1.6050    0.7800    0.9730 c2        1 Z77     -0.016000
     17 CAU         5.1830   -5.2540   -1.2680 ca        1 Z77     -0.108000
     18 CAV         4.2340   -5.5580   -2.2940 ca        1 Z77     -0.019000
     19 CAW        -0.0620   -0.9600    1.5450 ca        1 Z77      0.044000
     20 CAX        -1.9640   -2.4480    1.7990 ca        1 Z77      0.111000
     21 CAY         3.4620   -0.7110   -1.0140 c2        1 Z77     -0.299000
     22 CAZ         2.4410   -1.0410   -2.0110 c2        1 Z77      0.347000
     23 CBA         4.3050   -2.9850   -1.1370 ca        1 Z77     -0.181000
     24 CBB         3.3520   -3.2920   -2.1540 ca        1 Z77      0.149000
     25 HN1         0.6540   -0.5070   -0.3200 hn        1 Z77      0.268000
     26 HN3         1.7750   -2.5370   -3.2660 hn        1 Z77      0.267000
     27 HAA        -4.4170   -3.1790    2.6310 h1        1 Z77      0.095667
     28 HAAA       -3.3460   -4.6700    2.5100 h1        1 Z77      0.095667
     29 HAAB       -4.5750   -4.3100    1.1870 h1        1 Z77      0.095667
     30 HAB         6.9280   -5.8850   -0.1720 hc        1 Z77      0.099667
     31 HABA        6.5930   -6.8190   -1.6890 hc        1 Z77      0.099667
     32 HABB        5.5640   -7.0800   -0.2160 hc        1 Z77      0.099667
     33 HAC         5.3250   -8.7470   -1.8460 ha        1 Z77      0.007000
     34 HACA        4.7110   -8.8770   -1.5850 ha        1 Z77      0.007000
     35 HACB        4.6190   -7.3200   -3.6120 ha        1 Z77      0.143000
     36 HOAE        1.9670    1.6980   -3.4090 ho        1 Z77      0.241000
     37 HAG        -0.5930   -1.7190    4.8320 ha        1 Z77      0.156000
     38 HAH         0.9300   -0.3960    3.4190 ha        1 Z77      0.173000
     39 HAI        -2.4540   -3.0380    3.8430 ha        1 Z77      0.158000
     40 HAJ        -1.2980   -1.7200   -0.1190 ha        1 Z77      0.159000
     41 HAK         5.9400   -3.7470    0.0680 ha        1 Z77      0.152000
     42 HAL         2.6000   -4.8260   -3.5140 ha        1 Z77      0.155000
     43 HAM         5.1010   -1.4460    0.1790 ha        1 Z77      0.155000
     44 HAN         2.4980    4.4450   -2.8950 h4        1 Z77      0.161000
     45 HANA        1.2610    4.7360   -5.1100 ha        1 Z77      0.138000
     46 HAO         1.7240    1.4210   -1.0730 hn        1 Z77      0.275000
     47 HAOA        1.0160    2.8980   -5.2080 ha        1 Z77      0.138000
     48 HAP         4.2950    0.7790    0.3020 hx        1 Z77      0.150500
     49 HAPA        4.0290    1.3070   -1.4480 hx        1 Z77      0.150500
     50 CAC         4.0980   -6.8750   -2.7640 c1        1 Z77      0.051000
     51 OAD         1.5340   -0.2360   -2.3590 o         1 Z77     -0.459000
     52 CAN         2.0670    3.6250   -3.4920 c2        1 Z77     -0.036000
     53 H21         2.5530    2.3650    0.0470 hn        1 Z77      0.275000
     54 CAB         6.1170   -6.3090   -0.8130 c3        1 Z77     -0.195000
     55 CAA        -3.8730   -3.8670    1.9400 c3        1 Z77     -0.081000
@<TRIPOS>BOND
     1    1   16 1   
     2    1   19 1   
     3    1   25 1   
     4    2   14 1   
     5    2   16 1   
     6    2   46 1   
     7    2   53 1   
     8    3   22 1   
     9    3   24 1   
    10    3   26 1   
    11    4   36 1   
    12    4   52 1   
    13    5   16 1   
    14    6    7 1   
    15    6    8 1   
    16    6   37 1   
    17    7   19 1   
    18    7   38 1   
    19    8   20 1   
    20    8   39 1   
    21    9   19 1   
    22    9   20 1   
    23    9   40 1   
    24   10   17 1   
    25   10   23 1   
    26   10   41 1   
    27   11   18 1   
    28   11   24 1   
    29   11   42 1   
    30   12   21 1   
    31   12   23 1   
    32   12   43 1   
    33   13   45 1   
    34   13   47 1   
    35   13   52 1   
    36   14   21 1   
    37   14   48 1   
    38   14   49 1   
    39   15   20 1   
    40   15   55 1   
    41   17   18 1   
    42   17   54 1   
    43   18   50 1   
    44   21   22 1   
    45   22   51 1   
    46   23   24 1   
    47   27   55 1   
    48   28   55 1   
    49   29   55 1   
    50   30   54 1   
    51   31   54 1   
    52   32   54 1   
    53   33   34 1   
    54   35   50 1   
    55   44   52 1   
@<TRIPOS>SUBSTRUCTURE
     1 Z77         1 TEMP              0 ****  ****    0 ROOT
