@<TRIPOS>MOLECULE
Z77
   54    50     1     0     0
SMALL
bcc


@<TRIPOS>ATOM
      1 N1         -0.6310    1.0510    1.5970 n         1 Z77     -0.273000
      2 N2          0.0780   -1.2830    2.0980 n         1 Z77     -0.291000
      3 N3          1.0750   -4.1380   -1.7020 n         1 Z77     -0.292000
      4 CAA        -1.1190    6.4680    3.8080 c3        1 Z77     -0.075000
      5 CAB         1.2150    0.2420   -5.6000 c3        1 Z77     -0.180000
      6 CAC         1.3840   -2.8820   -6.3640 c3        1 Z77     -0.180000
      7 OAD         0.5730   -4.7910    0.4550 o         1 Z77     -0.392000
      8 OAE         2.6140   -0.5830    4.4770 oh        1 Z77     -0.352000
      9 SAF        -1.5180   -0.0530    3.8710 s         1 Z77     -0.360000
     10 CAG        -3.5130    3.3840    1.5150 c1        1 Z77     -0.149000
     11 CAH        -2.7570    2.2340    1.3750 c1        1 Z77     -0.156000
     12 CAI        -2.9830    4.4870    2.1660 c1        1 Z77     -0.149000
     13 CAJ        -0.9420    3.2890    2.5330 c1        1 Z77     -0.195000
     14 CAK         0.5450   -0.7250   -3.3380 c1        1 Z77     -0.060000
     15 CAL         1.4770   -3.2940   -4.0320 c1        1 Z77     -0.189000
     16 CAM         0.0680   -1.4920   -0.9760 c1        1 Z77     -0.004000
     17 CAN         1.3900   -1.1860    4.1280 c3        1 Z77     -0.044000
     18 CAO         1.3920   -1.5170    2.6420 c3        1 Z77     -0.053000
     19 CAP        -0.5990   -2.3370    1.3560 c3        1 Z77      0.024000
     20 OAS        -1.5690    5.1170    3.9250 os        1 Z77     -0.214000
     21 CAT        -0.6440   -0.0910    2.4660 c2        1 Z77      0.192000
     22 CAU         0.9800   -0.9720   -4.6310 c1        1 Z77     -0.060500
     23 CAV         1.4510   -2.2660   -4.9880 c1        1 Z77     -0.060500
     24 CAW        -1.4710    2.1850    1.8830 c1        1 Z77      0.090000
     25 CAX        -1.7010    4.4400    2.6730 c1        1 Z77      0.089000
     26 CAY         0.0930   -2.5430    0.0080 c2        1 Z77     -0.210000
     27 CAZ         0.6070   -3.8850   -0.3580 c2        1 Z77      0.339000
     28 CBA         0.5700   -1.7570   -2.3750 c1        1 Z77     -0.130000
     29 CBB         1.0380   -3.0460   -2.7280 c2        1 Z77      0.102000
     30 HN1        -0.0770    1.0690    0.8820 hn        1 Z77      0.255000
     31 HN3         1.3990   -4.9770   -1.9290 hn        1 Z77      0.246000
     32 HAA        -0.7770    6.6220    2.9050 h1        1 Z77      0.083000
     33 HAAA       -0.3960    6.6350    4.4690 h1        1 Z77      0.083000
     34 HAAB       -1.8700    7.0800    3.9830 h1        1 Z77      0.083000
     35 HAB         0.6700    0.1310   -6.3950 hc        1 Z77      0.086833
     36 HABA        0.9660    1.0700   -5.1500 hc        1 Z77      0.086833
     37 HABB        2.1550    0.2790   -5.8530 hc        1 Z77      0.086833
     38 HAC         1.2920   -3.8520   -6.2840 hc        1 Z77      0.086833
     39 HACA        2.2040   -2.6720   -6.8550 hc        1 Z77      0.086833
     40 HACB        0.6110   -2.5200   -6.8480 hc        1 Z77      0.086833
     41 HOAE        2.6430   -0.4570    5.3580 ho        1 Z77      0.213000
     42 HAG        -4.4380    3.4190    1.1490 ha        1 Z77      0.137000
     43 HAH        -3.1270    1.4660    0.9210 ha        1 Z77      0.187000
     44 HAI        -3.5100    5.2880    2.2630 ha        1 Z77      0.137000
     45 HAJ        -0.0260    3.2540    2.8950 ha        1 Z77      0.151000
     46 HAK         0.2080    0.1440   -3.1020 ha        1 Z77      0.145000
     47 HAL         1.8290   -4.1660   -4.2680 ha        1 Z77      0.138000
     48 HAM        -0.3500   -0.6350   -0.7620 ha        1 Z77      0.189000
     49 HAN         1.2720   -2.0060    4.6430 h1        1 Z77      0.082500
     50 HANA        0.6570   -0.5700    4.3240 h1        1 Z77      0.082500
     51 HAO         2.0430   -0.9480    2.1800 h1        1 Z77      0.122500
     52 HAOA        1.6380   -2.4620    2.5170 h1        1 Z77      0.122500
     53 HAP        -0.5660   -3.1750    1.8740 h1        1 Z77      0.128000
     54 HAPA       -1.5580   -2.0760    1.2020 h1        1 Z77      0.128000
@<TRIPOS>BOND
     1    1   21 1   
     2    1   24 1   
     3    1   30 1   
     4    2   18 1   
     5    2   19 1   
     6    2   21 1   
     7    3   27 1   
     8    3   29 1   
     9    3   31 1   
    10    4   20 1   
    11    4   32 1   
    12    4   33 1   
    13    4   34 1   
    14    5   22 1   
    15    5   35 1   
    16    5   36 1   
    17    5   37 1   
    18    6   23 1   
    19    6   38 1   
    20    6   39 1   
    21    6   40 1   
    22    7   27 1   
    23    8   17 1   
    24    8   41 1   
    25    9   21 1   
    26   10   12 1   
    27   10   42 1   
    28   11   24 1   
    29   11   43 1   
    30   12   44 1   
    31   13   25 1   
    32   13   45 1   
    33   14   28 1   
    34   14   46 1   
    35   15   29 1   
    36   15   47 1   
    37   16   26 1   
    38   16   48 1   
    39   17   18 1   
    40   17   49 1   
    41   17   50 1   
    42   18   51 1   
    43   18   52 1   
    44   19   26 1   
    45   19   53 1   
    46   19   54 1   
    47   20   25 1   
    48   22   23 1   
    49   26   27 1   
    50   28   29 1   
@<TRIPOS>SUBSTRUCTURE
     1 Z77         1 TEMP              0 ****  ****    0 ROOT
