@<TRIPOS>MOLECULE
Z78
   49    45     1     0     0
SMALL
bcc


@<TRIPOS>ATOM
      1 N1         -0.7170   -1.3740    1.8370 n         1 Z78     -0.339000
      2 N2          4.1740   -2.4480    1.7570 n         1 Z78     -0.364000
      3 N3          6.2550   -3.2710    2.8340 n4        1 Z78     -0.046000
      4 CAA        -1.0980    3.4210    6.2350 c1        1 Z78      0.090000
      5 OAB         4.7740   -1.8270    3.9180 o         1 Z78     -0.286000
      6 OAC         1.4650   -0.7970    1.4830 o         1 Z78     -0.381000
      7 CAF         6.8900   -8.0100    2.0230 c2        1 Z78     -0.069000
      8 CAG         5.9080   -5.5370    5.6230 c2        1 Z78     -0.057000
      9 CAH         6.3850   -6.8190    2.0200 c1        1 Z78     -0.158000
     10 CAI         5.9610   -5.0870    4.4090 c1        1 Z78     -0.117000
     11 CAJ        -2.9080   -1.8450   -0.8920 c1        1 Z78     -0.101000
     12 CAK        -2.5230   -1.5500    0.2020 c1        1 Z78     -0.277000
     13 CAL        -1.8080    3.2080    3.9010 c2        1 Z78      0.223000
     14 CAM        -0.7180    1.7210    2.1020 c1        1 Z78      0.198000
     15 CAN         6.2530   -2.2130   -0.7390 c1        1 Z78     -0.127000
     16 CAO         5.6390   -2.5970   -1.6880 c1        1 Z78     -0.171000
     17 CAP         0.1610    1.4210   -0.1150 c2        1 Z78      0.053000
     18 CAS         4.9600   -2.4410    2.8580 c2        1 Z78      0.352000
     19 CAT        -2.0130    2.7970    5.2950 c3        1 Z78     -0.291000
     20 CAU         5.8670   -5.6070    2.0060 c2        1 Z78      0.078000
     21 CAV        -0.1310    0.9380    1.1210 c2        1 Z78     -0.151000
     22 CAW         6.0090   -4.6850    3.1570 c2        1 Z78     -0.070000
     23 CAX         0.2580   -0.4750    1.4750 c2        1 Z78      0.352000
     24 CAY        -1.2290    2.4220    2.9690 c1        1 Z78     -0.249000
     25 CAZ        -2.1220   -1.2090    1.5460 c3        1 Z78      0.088000
     26 HN1        -0.4100   -2.3180    1.9670 hn        1 Z78      0.250000
     27 HN3         6.8770   -2.8570    3.5430 hn        1 Z78      0.272500
     28 HAA        -3.0580    3.0860    5.6580 hc        1 Z78      0.220000
     29 HAAA       -1.9480    1.6740    5.4420 hc        1 Z78      0.220000
     30 HAAB       -0.4170    4.2200    5.9110 ha        1 Z78      0.088000
     31 HAF         6.3390   -8.8830    2.4150 ha        1 Z78      0.172000
     32 HAG         4.9650   -5.5680    6.1990 ha        1 Z78      0.184500
     33 HAH         7.9010   -8.2250    1.6310 ha        1 Z78      0.172000
     34 HAI         6.8010   -5.9170    6.1520 ha        1 Z78      0.184500
     35 HAJ        -3.2600   -2.1100   -1.8610 ha        1 Z78      0.246000
     36 HAK        -2.6880   -1.8700    2.2730 h1        1 Z78      0.115000
     37 HAL        -2.0760    4.2530    3.6210 ha        1 Z78      0.193000
     38 HAM        -2.4140   -0.1360    1.7550 h1        1 Z78      0.115000
     39 HAN         5.1040   -2.9600   -2.5310 ha        1 Z78      0.260000
     40 HAO         3.3410   -1.8930    1.7780 hn        1 Z78      0.287000
     41 HAOA        8.6680   -1.8470    2.0390 ha        1 Z78      0.003500
     42 HAP        -0.0750    2.4530   -0.4210 ha        1 Z78      0.169000
     43 HAPA        0.6520    0.7860   -0.8730 ha        1 Z78      0.169000
     44 H19         7.6300   -1.2290    0.0360 ho        1 Z78      0.268000
     45 H20         8.3220   -1.3150    2.2770 ha        1 Z78      0.003500
     46 H21         4.4230   -2.9300    0.9210 hn        1 Z78      0.287000
     47 H32         6.7130   -3.2120    1.9110 hn        1 Z78      0.272500
     48 FAE         5.1550   -5.1270    0.9480 f         1 Z78     -0.110000
     49 OAD         6.9040   -1.8080    0.3480 oh        1 Z78     -0.226000
@<TRIPOS>BOND
     1    1   23 1   
     2    1   25 1   
     3    1   26 1   
     4    2   18 1   
     5    2   40 1   
     6    2   46 1   
     7    3   18 1   
     8    3   22 1   
     9    3   27 1   
    10    3   47 1   
    11    4   19 1   
    12    4   30 1   
    13    5   18 1   
    14    6   23 1   
    15    7    9 1   
    16    7   31 1   
    17    7   33 1   
    18    8   10 1   
    19    8   32 1   
    20    8   34 1   
    21    9   20 1   
    22   10   22 1   
    23   11   12 1   
    24   11   35 1   
    25   12   25 1   
    26   13   19 1   
    27   13   24 1   
    28   13   37 1   
    29   14   21 1   
    30   14   24 1   
    31   15   16 1   
    32   15   49 1   
    33   16   39 1   
    34   17   21 1   
    35   17   42 1   
    36   17   43 1   
    37   19   28 1   
    38   19   29 1   
    39   20   22 1   
    40   20   48 1   
    41   21   23 1   
    42   25   36 1   
    43   25   38 1   
    44   41   45 1   
    45   44   49 1   
@<TRIPOS>SUBSTRUCTURE
     1 Z78         1 TEMP              0 ****  ****    0 ROOT
