@<TRIPOS>MOLECULE
Z78
   48    45     1     0     0
SMALL
bcc


@<TRIPOS>ATOM
      1 N1         -0.1540    0.9510   -0.9930 ns        1 Z78     -0.336000
      2 N2          3.4270   -1.8460    1.3130 n8        1 Z78     -0.297000
      3 N3          4.8250   -2.9980    2.8850 n7        1 Z78     -0.219000
      4 CAA         0.8760   -0.6800    6.1560 c1        1 Z78     -0.018000
      5 OAB         2.6160   -2.4430    3.4390 os        1 Z78     -0.224000
      6 OAC         1.7340   -0.1690   -0.4000 o         1 Z78     -0.415000
      7 CAF         4.2500   -7.1880    5.3970 c2        1 Z78     -0.084000
      8 CAG         5.2930   -3.1490    6.4450 c2        1 Z78     -0.103000
      9 CAH         4.5690   -6.2850    4.5270 c1        1 Z78     -0.182000
     10 CAI         5.0970   -3.5070    5.2160 c1        1 Z78     -0.120000
     11 CAJ        -3.3780   -0.2670   -0.3000 c1        1 Z78     -0.138000
     12 CAK        -2.4870    0.5150   -0.4550 c1        1 Z78     -0.244000
     13 CAL         2.2310   -1.1770    4.0630 c3        1 Z78      0.136000
     14 CAM         1.3410    0.5410    2.2760 c1        1 Z78     -0.008000
     15 CAN         6.3330   -3.3450   -0.6380 c1        1 Z78     -0.120000
     16 CAO         7.1780   -2.8600   -1.3290 c1        1 Z78     -0.172000
     17 CAP         0.7810    2.7110    1.3520 c2        1 Z78     -0.093000
     18 CAS         3.6420   -2.4110    2.5130 c2        1 Z78      0.375000
     19 CAT         1.1620   -1.5950    5.0860 c3        1 Z78     -0.244000
     20 CAU         4.8970   -5.3680    3.6390 c2        1 Z78      0.100000
     21 CAV         0.9410    1.3860    1.2220 c2        1 Z78     -0.081000
     22 CAW         4.9220   -3.9180    3.9760 c2        1 Z78      0.035000
     23 CAX         0.8450    0.6620   -0.0910 c2        1 Z78      0.350000
     24 CAY         1.7420   -0.2390    3.0940 c1        1 Z78     -0.254000
     25 CAZ        -1.4440    1.4970   -0.6450 c3        1 Z78      0.079000
     26 HN1        -0.1350    0.4100   -1.8350 hn        1 Z78      0.244000
     27 HN3         5.5120   -3.1660    2.1630 hn        1 Z78      0.283000
     28 HAA         0.1840   -1.8040    4.5560 hc        1 Z78      0.180000
     29 HAAA        1.4670   -2.5810    5.5520 hc        1 Z78      0.180000
     30 HAAB        1.4060    0.2810    6.1920 ha        1 Z78      0.060000
     31 HAF         3.2130   -7.5420    5.5270 ha        1 Z78      0.157000
     32 HAG         4.4680   -3.0230    7.1660 ha        1 Z78      0.164500
     33 HAH         4.9980   -7.6590    6.0580 ha        1 Z78      0.157000
     34 HAI         6.3050   -2.9610    6.8450 ha        1 Z78      0.164500
     35 HAJ        -4.1770   -0.9550   -0.1650 ha        1 Z78      0.235000
     36 HAK        -1.3570    2.1180    0.2960 h1        1 Z78      0.119500
     37 HAL         3.1450   -0.7660    4.5830 h1        1 Z78      0.123000
     38 HAM        -1.7480    2.1880   -1.4920 h1        1 Z78      0.119500
     39 HAN         7.9260   -2.4230   -1.9420 ha        1 Z78      0.256000
     40 HAO         2.5810   -1.3330    1.1240 hn        1 Z78      0.300000
     41 HAOA        3.4070   -1.4450   -1.5870 ha        1 Z78      0.003000
     42 HAP         0.9180    3.2260    2.3140 ha        1 Z78      0.148500
     43 HAPA        0.5160    3.3570    0.5010 ha        1 Z78      0.148500
     44 H19         5.4020   -4.7920    0.0740 ho        1 Z78      0.263000
     45 H20         3.8290   -0.9400   -1.4240 ha        1 Z78      0.003000
     46 H21         4.0860   -1.9340    0.5600 hn        1 Z78      0.300000
     47 FAE         5.2440   -5.6930    2.3610 f         1 Z78     -0.112000
     48 OAD         5.3700   -3.8170    0.1480 oh        1 Z78     -0.222000
@<TRIPOS>BOND
     1    1   23 1   
     2    1   25 1   
     3    1   26 1   
     4    2   18 1   
     5    2   40 1   
     6    2   46 1   
     7    3   18 1   
     8    3   22 1   
     9    3   27 1   
    10    4   19 1   
    11    4   30 1   
    12    5   13 1   
    13    5   18 1   
    14    6   23 1   
    15    7    9 1   
    16    7   31 1   
    17    7   33 1   
    18    8   10 1   
    19    8   32 1   
    20    8   34 1   
    21    9   20 1   
    22   10   22 1   
    23   11   12 1   
    24   11   35 1   
    25   12   25 1   
    26   13   19 1   
    27   13   24 1   
    28   13   37 1   
    29   14   21 1   
    30   14   24 1   
    31   15   16 1   
    32   15   48 1   
    33   16   39 1   
    34   17   21 1   
    35   17   42 1   
    36   17   43 1   
    37   19   28 1   
    38   19   29 1   
    39   20   22 1   
    40   20   47 1   
    41   21   23 1   
    42   25   36 1   
    43   25   38 1   
    44   41   45 1   
    45   44   48 1   
@<TRIPOS>SUBSTRUCTURE
     1 Z78         1 TEMP              0 ****  ****    0 ROOT
