@<TRIPOS>MOLECULE
Z78
   47    49     1     0     0
SMALL
bcc


@<TRIPOS>ATOM
      1 N1          3.6650   -1.6710   -0.6500 n         1 Z78     -0.438100
      2 N2         -0.8070   -1.7450    0.6360 n         1 Z78     -0.469800
      3 N3         -2.7340   -0.3310    0.2250 n         1 Z78     -0.470100
      4 CAA         5.1380    3.7680    0.1620 c3        1 Z78     -0.050800
      5 OAB        -1.0010    0.3350    1.6210 o         1 Z78     -0.652100
      6 OAC         2.2250   -3.4060   -0.3700 o         1 Z78     -0.658500
      7 OAD        -3.3210   -3.2140   -0.0890 oh        1 Z78     -0.605800
      8 CAF        -4.9540    3.2700    0.1590 ca        1 Z78     -0.132000
      9 CAG        -4.0880    3.0070    1.2180 ca        1 Z78     -0.122000
     10 CAH        -5.0750    2.3540   -0.8800 ca        1 Z78     -0.141000
     11 CAI        -3.3410    1.8340    1.2570 ca        1 Z78     -0.128000
     12 CAJ         5.5580    1.5050   -0.8060 ca        1 Z78     -0.075000
     13 CAK         5.2210    0.1820   -1.0160 ca        1 Z78     -0.183000
     14 CAL         3.5750    1.8500    0.5230 ca        1 Z78     -0.065000
     15 CAM         2.0010   -0.0330    0.9100 cc        1 Z78      0.004800
     16 CAN        -2.0210   -3.6880   -0.3760 c3        1 Z78      0.114400
     17 CAO        -1.0110   -2.5430   -0.5500 c3        1 Z78      0.034000
     18 CAP         0.4380   -1.9370    1.3510 c3        1 Z78      0.152200
     19 CAS        -1.4860   -0.5190    0.8360 c         1 Z78      0.774100
     20 CAT         4.7410    2.3550   -0.0360 ca        1 Z78     -0.114300
     21 CAU        -4.3220    1.1710   -0.8660 ca        1 Z78      0.069900
     22 CAV         1.6570   -1.3300    0.7170 cd        1 Z78     -0.237400
     23 CAW        -3.4330    0.8850    0.2190 ca        1 Z78      0.048600
     24 CAX         2.4930   -2.2130   -0.1120 c         1 Z78      0.699700
     25 CAY         3.2040    0.5080    0.3310 ca        1 Z78     -0.137800
     26 CAZ         4.0310   -0.3450   -0.4500 ca        1 Z78      0.091600
     27 HN1         4.2490   -2.2550   -1.2060 hn        1 Z78      0.333500
     28 HN3        -3.0780   -1.0300   -0.4060 hn        1 Z78      0.346500
     29 HAA         5.2110    4.2920   -0.8240 hc        1 Z78      0.046033
     30 HAAA        4.3960    4.3140    0.7960 hc        1 Z78      0.046033
     31 HAAB        6.1370    3.8230    0.6620 hc        1 Z78      0.046033
     32 HAF        -5.5420    4.1990    0.1400 ha        1 Z78      0.138000
     33 HAG        -3.9920    3.7320    2.0410 ha        1 Z78      0.138000
     34 HAH        -5.7550    2.5430   -1.7240 ha        1 Z78      0.148000
     35 HAI        -2.6630    1.6530    2.1080 ha        1 Z78      0.175000
     36 HAJ         6.4830    1.9090   -1.2480 ha        1 Z78      0.138000
     37 HAK         5.8760   -0.4630   -1.6220 ha        1 Z78      0.139000
     38 HAL         2.9210    2.4980    1.1280 ha        1 Z78      0.144000
     39 HAM         1.3570    0.6360    1.5120 ha        1 Z78      0.174000
     40 HAN        -1.6730   -4.4070    0.4100 h1        1 Z78      0.056200
     41 HAO        -1.3430   -1.9010   -1.4150 h1        1 Z78      0.070700
     42 HAOA       -0.0250   -3.0150   -0.8450 h1        1 Z78      0.070700
     43 HAP         0.3170   -1.4960    2.3840 h1        1 Z78      0.081200
     44 HAPA        0.5950   -3.0520    1.4440 h1        1 Z78      0.081200
     45 H19        -3.3560   -3.0190    0.8560 ho        1 Z78      0.409000
     46 H20        -2.1200   -4.2250   -1.3590 h1        1 Z78      0.056200
     47 FAE        -4.4570    0.2920   -1.8930 f         1 Z78     -0.145900
@<TRIPOS>BOND
     1    1   24 1   
     2    1   26 1   
     3    1   27 1   
     4    2   17 1   
     5    2   18 1   
     6    2   19 1   
     7    3   19 1   
     8    3   23 1   
     9    3   28 1   
    10    4   20 1   
    11    4   29 1   
    12    4   30 1   
    13    4   31 1   
    14    5   19 2   
    15    6   24 2   
    16    7   16 1   
    17    7   45 1   
    18    8    9 ar  
    19    8   10 ar  
    20    8   32 1   
    21    9   11 ar  
    22    9   33 1   
    23   10   21 ar  
    24   10   34 1   
    25   11   23 ar  
    26   11   35 1   
    27   12   13 ar  
    28   12   20 ar  
    29   12   36 1   
    30   13   26 ar  
    31   13   37 1   
    32   14   20 ar  
    33   14   25 ar  
    34   14   38 1   
    35   15   22 2   
    36   15   25 1   
    37   15   39 1   
    38   16   17 1   
    39   16   40 1   
    40   16   46 1   
    41   17   41 1   
    42   17   42 1   
    43   18   22 1   
    44   18   43 1   
    45   18   44 1   
    46   21   23 ar  
    47   21   47 1   
    48   22   24 1   
    49   25   26 ar  
@<TRIPOS>SUBSTRUCTURE
     1 Z78         1 TEMP              0 ****  ****    0 ROOT
