@<TRIPOS>MOLECULE
Z79
   29    29     1     0     0
SMALL
bcc


@<TRIPOS>ATOM
      1 O4          3.9710    0.7780   -1.4770 o         1 Z79     -0.554100
      2 C8          3.6190    0.9480   -0.3000 c         1 Z79      0.571100
      3 N2          4.5560    1.3450    0.7000 n         1 Z79     -0.348400
      4 O5          5.8310    1.0760    0.4100 oh        1 Z79     -0.432100
      5 C7          2.1390    0.9460    0.1080 c3        1 Z79      0.163800
      6 N1          1.4090   -0.1200   -0.4960 n3        1 Z79     -0.912100
      7 S1          0.4320   -1.1420    0.3050 sy        1 Z79      1.526200
      8 O1          0.4740   -2.3960   -0.3350 o         1 Z79     -0.655300
      9 O2          0.7550   -1.0990    1.6820 o         1 Z79     -0.655300
     10 C3         -1.0890   -0.4740    0.0850 ca        1 Z79     -0.435500
     11 C6         -1.8450   -0.7790   -1.0590 ca        1 Z79      0.020000
     12 C5         -3.1130   -0.2570   -1.2490 ca        1 Z79     -0.211000
     13 C4         -3.6570    0.5960   -0.2650 ca        1 Z79      0.193100
     14 O3         -4.9160    1.0690   -0.5410 os        1 Z79     -0.317900
     15 C9         -5.5110    1.9130    0.4430 c3        1 Z79      0.109700
     16 C2         -2.9260    0.9060    0.8920 ca        1 Z79     -0.211000
     17 C1         -1.6550    0.3670    1.0510 ca        1 Z79      0.020000
     18 HN2         4.3580    0.9340    1.6070 hn        1 Z79      0.305500
     19 HO5         6.0850    1.7050   -0.2960 ho        1 Z79      0.435000
     20 H7          2.0310    0.8770    1.2300 h1        1 Z79      0.075700
     21 H7A         1.7300    1.9470   -0.2250 h1        1 Z79      0.075700
     22 HN1         1.5900   -0.2190   -1.4700 hn        1 Z79      0.463800
     23 H6         -1.4210   -1.4660   -1.8140 ha        1 Z79      0.154500
     24 H5         -3.7050   -0.4970   -2.1440 ha        1 Z79      0.153500
     25 H9         -6.5120    2.1520    0.0030 h1        1 Z79      0.051700
     26 H9A        -5.6230    1.3680    1.4110 h1        1 Z79      0.051700
     27 H9B        -4.9060    2.8420    0.5790 h1        1 Z79      0.051700
     28 H2         -3.3450    1.5600    1.6680 ha        1 Z79      0.153500
     29 H1         -1.0810    0.5930    1.9690 ha        1 Z79      0.154500
@<TRIPOS>BOND
     1    1    2 2   
     2    2    3 1   
     3    2    5 1   
     4    3    4 1   
     5    3   18 1   
     6    4   19 1   
     7    5    6 1   
     8    5   20 1   
     9    5   21 1   
    10    6    7 1   
    11    6   22 1   
    12    7    8 2   
    13    7    9 2   
    14    7   10 1   
    15   10   11 ar  
    16   10   17 ar  
    17   11   12 ar  
    18   11   23 1   
    19   12   13 ar  
    20   12   24 1   
    21   13   14 1   
    22   13   16 ar  
    23   14   15 1   
    24   15   25 1   
    25   15   26 1   
    26   15   27 1   
    27   16   17 ar  
    28   16   28 1   
    29   17   29 1   
@<TRIPOS>SUBSTRUCTURE
     1 Z79         1 TEMP              0 ****  ****    0 ROOT
