@<TRIPOS>MOLECULE
Z79
   31    30     1     0     0
SMALL
bcc


@<TRIPOS>ATOM
      1 O4       -431.8590  307.5570  500.8460 o         1 Z79     -0.392100
      2 C8       -430.9360  307.9900  501.4980 c         1 Z79      0.504100
      3 N2       -431.3940  309.0960  502.5220 ny        1 Z79     -0.482300
      4 O5       -430.4570  310.0670  502.5200 oh        1 Z79     -0.361300
      5 C7       -429.4210  307.6760  501.5000 c3        1 Z79      0.194800
      6 N1       -429.0240  306.7190  500.5660 n8        1 Z79     -0.935800
      7 S1        317.5820 -226.5820 -369.4780 s4        1 Z79      1.663300
      8 O1        318.6710 -227.3090 -369.1380 o         1 Z79     -0.403900
      9 O2        317.0590 -226.5980 -370.7260 o         1 Z79     -0.403900
     10 C3        316.9190 -225.7130 -368.4200 ca        1 Z79     -0.708500
     11 C6        317.4220 -225.6490 -367.0760 ca        1 Z79      0.071500
     12 C5        316.8380 -224.8750 -366.1140 ca        1 Z79     -0.214500
     13 C4        315.6860 -224.0950 -366.4380 ca        1 Z79      0.311100
     14 O3        315.1820 -223.3680 -365.4300 os        1 Z79     -0.262900
     15 C9        314.0200 -222.5560 -365.6810 c3        1 Z79      0.096700
     16 C2        315.1610 -224.1320 -367.7570 ca        1 Z79     -0.214500
     17 C1        315.7640 -224.9160 -368.7050 ca        1 Z79      0.071500
     18 HN2      -432.3220  309.4620  502.2410 hn        1 Z79      0.456300
     19 HO5      -430.7720  310.8270  503.0620 ho        1 Z79      0.473000
     20 H7       -428.9100  308.6680  501.3000 h1        1 Z79      0.116200
     21 H7A      -429.1760  307.3350  502.5490 h1        1 Z79      0.116200
     22 HN1      -429.0340  306.9840  499.6080 hn        1 Z79      0.427800
     23 H6        318.3160 -226.2530 -366.8220 ha        1 Z79      0.179500
     24 H5        317.2340 -224.8330 -365.0830 ha        1 Z79      0.193500
     25 H9        313.1610 -223.2020 -365.9840 h1        1 Z79      0.082700
     26 H9A       314.2520 -221.7870 -366.4560 h1        1 Z79      0.082700
     27 H9B       313.8370 -222.0830 -364.6810 h1        1 Z79      0.082700
     28 H2        314.2720 -223.5320 -368.0150 ha        1 Z79      0.193500
     29 H1        315.3500 -224.9420 -369.7340 ha        1 Z79      0.179500
     30 H22      -431.4710  308.6700  503.4600 hn        1 Z79      0.456300
     31 H12      -429.2820  305.7740  500.7400 hn        1 Z79      0.427800
@<TRIPOS>BOND
     1    1    2 2   
     2    2    3 1   
     3    2    5 1   
     4    3    4 1   
     5    3   18 1   
     6    3   30 1   
     7    4   19 1   
     8    5    6 1   
     9    5   20 1   
    10    5   21 1   
    11    6   22 1   
    12    6   31 1   
    13    7    8 1   
    14    7    9 1   
    15    7   10 1   
    16   10   11 ar  
    17   10   17 ar  
    18   11   12 ar  
    19   11   23 1   
    20   12   13 ar  
    21   12   24 1   
    22   13   14 1   
    23   13   16 ar  
    24   14   15 1   
    25   15   25 1   
    26   15   26 1   
    27   15   27 1   
    28   16   17 ar  
    29   16   28 1   
    30   17   29 1   
@<TRIPOS>SUBSTRUCTURE
     1 Z79         1 TEMP              0 ****  ****    0 ROOT
