@<TRIPOS>MOLECULE
Z79
   31    30     1     0     0
SMALL
bcc


@<TRIPOS>ATOM
      1 O4       -438.3710  356.6560  471.4770 o         1 Z79     -0.400100
      2 C8       -437.4580  357.3730  471.8340 c         1 Z79      0.451100
      3 N2       -437.8930  358.6040  472.6620 n4        1 Z79     -0.473300
      4 O5       -439.2090  358.9060  472.5910 oh        1 Z79     -0.358300
      5 C7       -435.9270  357.2470  471.5830 c3        1 Z79      0.191800
      6 N1       -435.5450  356.1030  470.8850 n3        1 Z79     -0.928800
      7 S1        321.7690 -260.6390 -342.5580 s4        1 Z79      1.663300
      8 O1        320.9360 -260.5220 -341.4980 o         1 Z79     -0.403900
      9 O2        323.0780 -260.9530 -342.4200 o         1 Z79     -0.403900
     10 C3        321.2170 -260.4080 -343.9560 ca        1 Z79     -0.708500
     11 C6        319.8380 -260.0710 -344.1740 ca        1 Z79      0.071500
     12 C5        319.3260 -259.8610 -345.4230 ca        1 Z79     -0.214500
     13 C4        320.1780 -259.9760 -346.5640 ca        1 Z79      0.311100
     14 O3        319.5870 -259.7520 -347.7470 os        1 Z79     -0.262900
     15 C9        320.3830 -259.8510 -348.9420 c3        1 Z79      0.096700
     16 C2        321.5480 -260.3080 -346.3870 ca        1 Z79     -0.214500
     17 C1        322.0380 -260.5140 -345.1250 ca        1 Z79      0.071500
     18 HN2      -437.6400  358.4600  473.6580 hn        1 Z79      0.476800
     19 HO5      -439.7230  358.0790  472.4110 ho        1 Z79      0.485000
     20 H7       -435.6390  358.1740  471.0030 h1        1 Z79      0.107700
     21 H7A      -435.4410  357.2650  472.6040 h1        1 Z79      0.107700
     22 HN1      -435.7720  356.0590  469.9170 hn        1 Z79      0.431800
     23 H6        319.1750 -259.9810 -343.2900 ha        1 Z79      0.179500
     24 H5        318.2630 -259.6030 -345.5780 ha        1 Z79      0.193500
     25 H9        320.7830 -260.8870 -349.0510 h1        1 Z79      0.082700
     26 H9A       321.2010 -259.0910 -348.9200 h1        1 Z79      0.082700
     27 H9B       319.6370 -259.6180 -349.7470 h1        1 Z79      0.082700
     28 H2        322.2120 -260.3980 -347.2630 ha        1 Z79      0.193500
     29 H1        323.1090 -260.7730 -344.9910 ha        1 Z79      0.179500
     30 H22      -437.3970  359.4480  472.3160 hn        1 Z79      0.476800
     31 H12      -435.5930  355.2330  471.3670 hn        1 Z79      0.431800
@<TRIPOS>BOND
     1    1    2 2   
     2    2    3 1   
     3    2    5 1   
     4    3    4 1   
     5    3   18 1   
     6    3   30 1   
     7    4   19 1   
     8    5    6 1   
     9    5   20 1   
    10    5   21 1   
    11    6   22 1   
    12    6   31 1   
    13    7    8 1   
    14    7    9 1   
    15    7   10 1   
    16   10   11 ar  
    17   10   17 ar  
    18   11   12 ar  
    19   11   23 1   
    20   12   13 ar  
    21   12   24 1   
    22   13   14 1   
    23   13   16 ar  
    24   14   15 1   
    25   15   25 1   
    26   15   26 1   
    27   15   27 1   
    28   16   17 ar  
    29   16   28 1   
    30   17   29 1   
@<TRIPOS>SUBSTRUCTURE
     1 Z79         1 TEMP              0 ****  ****    0 ROOT
