@<TRIPOS>MOLECULE
Z80
   41    40     1     0     0
SMALL
bcc


@<TRIPOS>ATOM
      1 C1          0.1400    0.2550   -0.1090 c2        1 Z80     -0.015000
      2 N1          1.3740   -0.4390   -0.3190 na        1 Z80     -0.209000
      3 S1          0.2000   -0.5580    2.4530 ss        1 Z80      0.979000
      4 C2         -0.6420   -0.2460    1.0330 c2        1 Z80     -0.445000
      5 N2          2.8740    2.3810   -4.0090 n3        1 Z80     -0.314000
      6 C3          1.7270   -0.5700    2.0910 c2        1 Z80     -0.290000
      7 C4          2.2970   -0.3980    0.7630 c2        1 Z80     -0.024000
      8 C5         -3.6090   -0.1380   -0.9700 c1        1 Z80     -0.047000
      9 C6         -2.8350   -0.2720   -0.0620 c1        1 Z80     -0.214000
     10 C7         -1.9790   -0.4650    1.0220 c2        1 Z80      0.143000
     11 C8          2.6410   -0.8090    3.2620 c3        1 Z80     -0.012000
     12 C9          3.3390    0.3720    3.6590 c1        1 Z80     -0.227000
     13 C10         3.9350    1.3400    4.0370 c1        1 Z80     -0.109000
     14 C11         3.6470   -0.3100    0.6020 c2        1 Z80     -0.105000
     15 C12         1.9130   -0.4210   -1.6710 c3        1 Z80      0.019000
     16 C13         2.5080    0.8540   -2.1610 c2        1 Z80     -0.396000
     17 C14         2.4170    1.2010   -3.4690 c2        1 Z80      0.035000
     18 C15         4.8440    4.2800   -1.7900 c3        1 Z80     -0.275000
     19 C16         3.0680    2.4930   -5.4250 c3        1 Z80     -0.092000
     20 CL1         4.7270    2.6220    4.5370 cl        1 Z80      0.224000
     21 H1         -1.3210    1.6860   -0.7190 ha        1 Z80      0.150000
     22 H2         -4.3000   -0.0200   -1.7720 ha        1 Z80      0.251000
     23 H3          2.0370   -1.1900    4.1410 hc        1 Z80      0.143500
     24 H4          3.3750   -1.6270    2.9980 hc        1 Z80      0.143500
     25 H5          4.3430   -0.3990    1.4490 ha        1 Z80      0.159000
     26 H6          4.1210   -0.1480   -0.3790 ha        1 Z80      0.159000
     27 H7          1.0620   -0.7360   -2.3450 h1        1 Z80      0.105500
     28 H8          2.6960   -1.2360   -1.7100 h1        1 Z80      0.105500
     29 H9          3.0290    1.4850   -1.4280 ha        1 Z80      0.129000
     30 H10         4.3450    3.4140   -1.3020 hc        1 Z80      0.069250
     31 H11         1.8930    0.5380   -4.1890 h4        1 Z80      0.141000
     32 H12         5.5490    3.9150   -2.5680 hc        1 Z80      0.069250
     33 H13         4.0770    4.9360   -2.2590 hc        1 Z80      0.069250
     34 H14         5.4070    4.8600   -1.0270 hc        1 Z80      0.069250
     35 H15         4.0050    1.9740   -5.7680 h1        1 Z80      0.086000
     36 H16         3.1440    3.5820   -5.6880 h1        1 Z80      0.086000
     37 H17         2.1940    2.0490   -5.9700 h1        1 Z80      0.086000
     38 C17        -0.3260    1.2520   -0.8860 c2        1 Z80     -0.170000
     39 H18        -2.4830   -0.8340    1.9440 ha        1 Z80      0.158000
     40 H20         0.2480    1.6710   -1.7260 ha        1 Z80      0.150000
     41 H21         3.4850    2.9330   -3.4440 hn        1 Z80      0.216000
@<TRIPOS>BOND
     1    1    2 1   
     2    1    4 1   
     3    1   38 1   
     4    2    7 1   
     5    2   15 1   
     6    3    4 1   
     7    3    6 1   
     8    4   10 1   
     9    5   17 1   
    10    5   19 1   
    11    5   41 1   
    12    6    7 1   
    13    6   11 1   
    14    7   14 1   
    15    8    9 1   
    16    8   22 1   
    17    9   10 1   
    18   10   39 1   
    19   11   12 1   
    20   11   23 1   
    21   11   24 1   
    22   12   13 1   
    23   13   20 1   
    24   14   25 1   
    25   14   26 1   
    26   15   16 1   
    27   15   27 1   
    28   15   28 1   
    29   16   17 1   
    30   16   29 1   
    31   17   31 1   
    32   18   30 1   
    33   18   32 1   
    34   18   33 1   
    35   18   34 1   
    36   19   35 1   
    37   19   36 1   
    38   19   37 1   
    39   21   38 1   
    40   38   40 1   
@<TRIPOS>SUBSTRUCTURE
     1 Z80         1 TEMP              0 ****  ****    0 ROOT
