@<TRIPOS>MOLECULE
Z80
   40    38     1     0     0
SMALL
bcc


@<TRIPOS>ATOM
      1 C1         -1.9290    0.6060    0.8230 c1        1 Z80      0.101000
      2 N1         -0.3280    0.5760    0.8470 n3        1 Z80     -0.235000
      3 S1         -1.8110    1.0340    3.4270 ss        1 Z80      0.382000
      4 C2         -2.6350    0.8550    1.9880 c2        1 Z80     -0.295000
      5 N2          1.4250   -0.6780   -3.4830 n3        1 Z80     -0.263000
      6 C3         -0.1850    0.8510    3.4470 c2        1 Z80     -0.296000
      7 C4          0.4820    0.5710    2.2710 c2        1 Z80      0.112000
      8 C5         -4.0020    0.6410   -0.4270 c1        1 Z80     -0.137500
      9 C6         -4.7060    0.8900    0.7400 c1        1 Z80     -0.150000
     10 C7         -4.0350    0.9980    1.9450 c2        1 Z80     -0.085000
     11 C8          0.5450    1.0010    4.6550 c1        1 Z80     -0.081000
     12 C9          1.9330    0.8650    4.6540 c2        1 Z80     -0.146000
     13 C10         2.6060    0.5820    3.4700 c1        1 Z80     -0.032000
     14 C11         1.8830    0.4330    2.2700 c1        1 Z80     -0.175000
     15 C12         0.1590   -0.5160   -0.0010 c3        1 Z80     -0.022000
     16 C13         0.7980    0.0610   -1.2320 c3        1 Z80     -0.198000
     17 C14         1.3620   -1.1040   -2.1310 c3        1 Z80     -0.063000
     18 C15         2.7490   -0.7730   -3.9350 c3        1 Z80     -0.120500
     19 C16         0.5940   -1.5210   -4.2790 c3        1 Z80     -0.120500
     20 CL1         4.3230    0.3850    3.6580 cl        1 Z80     -0.014000
     21 H1         -4.4750    0.5660   -1.2700 ha        1 Z80      0.136000
     22 H2         -5.6460    0.9410    0.7200 ha        1 Z80      0.137000
     23 H3          0.0600    1.2090    5.5130 DU        1 Z80      0.147000
     24 H4          2.4580    0.9720    5.5280 ha        1 Z80      0.151000
     25 H5          2.3300    0.2470    1.4780 ha        1 Z80      0.155000
     26 H6         -0.5850   -1.0830   -0.2590 h1        1 Z80      0.100500
     27 H7          0.8300   -1.0540    0.5010 h1        1 Z80      0.100500
     28 H8          1.5140    0.6390   -0.9760 hc        1 Z80      0.100000
     29 H9          0.1560    0.5540   -1.7190 hc        1 Z80      0.100000
     30 H10         2.2570   -1.3440   -1.8250 h1        1 Z80      0.068500
     31 H11         0.7930   -1.8590   -2.0650 h1        1 Z80      0.068500
     32 H12         2.7640   -0.7340   -4.9250 h1        1 Z80      0.071667
     33 H13         3.1150   -1.5770   -3.6510 h1        1 Z80      0.071667
     34 H14         3.2650   -0.0420   -3.5750 h1        1 Z80      0.071667
     35 H15         0.9130   -2.4730   -4.2010 h1        1 Z80      0.071667
     36 H16         0.6400   -1.2510   -5.1670 h1        1 Z80      0.071667
     37 H17        -0.3780   -1.4560   -3.9510 h1        1 Z80      0.071667
     38 C17        -2.6100    0.4980   -0.3910 c1        1 Z80     -0.137500
     39 H18        -4.5080    1.1640    2.7240 ha        1 Z80      0.143000
     40 H20        -2.1230    0.3260   -1.2000 ha        1 Z80      0.136000
@<TRIPOS>BOND
     1    1    2 1   
     2    1    4 1   
     3    2    7 1   
     4    2   15 1   
     5    3    4 1   
     6    3    6 1   
     7    4   10 1   
     8    5   17 1   
     9    5   18 1   
    10    5   19 1   
    11    6    7 1   
    12    6   11 1   
    13    7   14 1   
    14    8   21 1   
    15    8   38 1   
    16    9   10 1   
    17    9   22 1   
    18   10   39 1   
    19   11   12 1   
    20   12   13 1   
    21   12   24 1   
    22   13   20 1   
    23   14   25 1   
    24   15   16 1   
    25   15   26 1   
    26   15   27 1   
    27   16   17 1   
    28   16   28 1   
    29   16   29 1   
    30   17   30 1   
    31   17   31 1   
    32   18   32 1   
    33   18   33 1   
    34   18   34 1   
    35   19   35 1   
    36   19   36 1   
    37   19   37 1   
    38   38   40 1   
@<TRIPOS>SUBSTRUCTURE
     1 Z80         1 TEMP              0 ****  ****    0 ROOT
