@<TRIPOS>MOLECULE
Z80
   40    42     1     0     0
SMALL
bcc


@<TRIPOS>ATOM
      1 C1         -1.5040   -1.3700    0.1090 ca        1 Z80      0.075700
      2 N1         -0.5070   -0.4910    0.5890 na        1 Z80     -0.166100
      3 S1         -3.3160    0.6870    0.1890 ss        1 Z80     -0.157800
      4 C2         -2.8300   -0.9120   -0.0870 ca        1 Z80     -0.025100
      5 N2          4.1100   -2.2880   -0.2060 n3        1 Z80     -0.737600
      6 C3         -1.8450    1.5220    0.1550 ca        1 Z80     -0.025100
      7 C4         -0.5860    0.8940    0.3370 ca        1 Z80      0.087700
      8 C5         -2.2440   -3.6020   -0.5360 ca        1 Z80     -0.099000
      9 C6         -3.5450   -3.1410   -0.7200 ca        1 Z80     -0.149000
     10 C7         -3.8270   -1.7960   -0.5060 ca        1 Z80     -0.086000
     11 C8         -1.9210    2.9020   -0.0350 ca        1 Z80     -0.081000
     12 C9         -0.7800    3.6970   -0.0300 ca        1 Z80     -0.146000
     13 C10         0.4610    3.0840    0.1450 ca        1 Z80      0.046400
     14 C11         0.5710    1.7040    0.3160 ca        1 Z80     -0.177000
     15 C12         0.7480   -1.0430    1.0520 c3        1 Z80      0.036300
     16 C13         1.8010   -1.3420   -0.0200 c3        1 Z80     -0.119400
     17 C14         3.1150   -1.6950    0.6760 c3        1 Z80      0.172800
     18 C15         4.4850   -1.4350   -1.3110 c3        1 Z80      0.155100
     19 C16         5.2510   -2.7920    0.5260 c3        1 Z80      0.155100
     20 CL1         1.8750    4.0310    0.1450 cl        1 Z80     -0.094400
     21 H1         -2.0050   -4.6620   -0.7110 ha        1 Z80      0.135000
     22 H2         -4.3410   -3.8300   -1.0360 ha        1 Z80      0.137000
     23 H3         -2.9090    3.3690   -0.1870 ha        1 Z80      0.148000
     24 H4         -0.8580    4.7860   -0.1670 ha        1 Z80      0.151000
     25 H5          1.5750    1.2670    0.4390 ha        1 Z80      0.152000
     26 H6          1.1820   -0.3180    1.8010 h1        1 Z80      0.061200
     27 H7          0.5170   -1.9950    1.6130 h1        1 Z80      0.061200
     28 H8          1.4640   -2.1890   -0.6720 hc        1 Z80      0.060700
     29 H9          1.9470   -0.4540   -0.6880 hc        1 Z80      0.060700
     30 H10         2.8990   -2.4480    1.4880 h1        1 Z80      0.030200
     31 H11         3.5100   -0.7620    1.1790 h1        1 Z80      0.030200
     32 H12         4.9100   -0.4460   -0.9850 h1        1 Z80      0.032700
     33 H13         5.2510   -1.9620   -1.9380 h1        1 Z80      0.032700
     34 H14         3.5790   -1.2430   -1.9440 h1        1 Z80      0.032700
     35 H15         4.8980   -3.5370    1.2860 h1        1 Z80      0.032700
     36 H16         5.9390   -3.3110   -0.1910 h1        1 Z80      0.032700
     37 H17         5.8290   -1.9870    1.0570 h1        1 Z80      0.032700
     38 C17        -1.2310   -2.7340   -0.1380 ca        1 Z80     -0.172000
     39 H18        -4.8490   -1.4150   -0.6630 ha        1 Z80      0.143000
     40 H20        -0.2160   -3.1420   -0.0170 ha        1 Z80      0.142000
@<TRIPOS>BOND
     1    1    2 1   
     2    1    4 ar  
     3    1   38 ar  
     4    2    7 1   
     5    2   15 1   
     6    3    4 1   
     7    3    6 1   
     8    4   10 ar  
     9    5   17 1   
    10    5   18 1   
    11    5   19 1   
    12    6    7 ar  
    13    6   11 ar  
    14    7   14 ar  
    15    8    9 ar  
    16    8   21 1   
    17    8   38 ar  
    18    9   10 ar  
    19    9   22 1   
    20   10   39 1   
    21   11   12 ar  
    22   11   23 1   
    23   12   13 ar  
    24   12   24 1   
    25   13   14 ar  
    26   13   20 1   
    27   14   25 1   
    28   15   16 1   
    29   15   26 1   
    30   15   27 1   
    31   16   17 1   
    32   16   28 1   
    33   16   29 1   
    34   17   30 1   
    35   17   31 1   
    36   18   32 1   
    37   18   33 1   
    38   18   34 1   
    39   19   35 1   
    40   19   36 1   
    41   19   37 1   
    42   38   40 1   
@<TRIPOS>SUBSTRUCTURE
     1 Z80         1 TEMP              0 ****  ****    0 ROOT
