@<TRIPOS>MOLECULE
Z81
   44    47     1     0     0
SMALL
bcc


@<TRIPOS>ATOM
      1 C1          0.5220    1.0300    2.6790 ca        1 Z81     -0.135000
      2 F1          6.2390    1.9900   -0.3180 f         1 Z81     -0.136900
      3 N1         -3.6340    3.4620   -1.4350 nb        1 Z81     -0.660000
      4 O1         -3.3170   -0.6190    2.0690 o         1 Z81     -0.590500
      5 C2          1.7650    0.8260    2.0850 ca        1 Z81     -0.104000
      6 F2          2.6380   -2.1630   -0.5580 f         1 Z81     -0.134900
      7 N2         -1.6630   -1.2120   -1.1010 n2        1 Z81     -0.672900
      8 C3         -0.6460    0.6810    2.0060 ca        1 Z81     -0.105000
      9 N3         -3.0370   -2.2760    0.4490 n         1 Z81     -0.440300
     10 C4          5.6920   -0.2260   -1.0290 ca        1 Z81     -0.141000
     11 N4         -2.5060   -3.4220   -1.6770 nh        1 Z81     -0.869800
     12 C5          4.7730   -1.2630   -1.0820 ca        1 Z81     -0.143000
     13 C6         -2.1780    1.5460   -1.7630 ca        1 Z81     -0.225300
     14 C7         -3.3940    1.7770    0.2970 ca        1 Z81     -0.225300
     15 C8          0.6660   -0.0890    0.1280 ca        1 Z81     -0.071000
     16 C9          4.0830    1.1170    0.2200 ca        1 Z81     -0.138000
     17 C10        -2.7700    2.7510   -2.1830 ca        1 Z81      0.385700
     18 C11        -3.9300    2.9710   -0.2160 ca        1 Z81      0.385700
     19 C12         1.8430    0.2650    0.8030 cp        1 Z81     -0.060000
     20 C13         3.1480    0.0770    0.1700 cp        1 Z81     -0.035000
     21 C14        -0.5810    0.1110    0.7280 ca        1 Z81     -0.083300
     22 C15        -2.5040    1.0440   -0.4960 ca        1 Z81     -0.039300
     23 C16         5.3470    0.9710   -0.3740 ca        1 Z81      0.112900
     24 C17         3.5030   -1.1230   -0.4890 ca        1 Z81      0.118900
     25 C18        -2.8310   -0.9930    0.9990 c         1 Z81      0.688500
     26 C19        -2.3560   -2.3180   -0.8220 c2        1 Z81      0.631800
     27 C20        -1.8670   -0.2370    0.0030 c3        1 Z81      0.176800
     28 H1          0.4610    1.4710    3.6860 ha        1 Z81      0.138000
     29 H2          2.6860    1.1000    2.6210 ha        1 Z81      0.137000
     30 H3         -1.6260    0.8530    2.4840 ha        1 Z81      0.158000
     31 H4          6.6840   -0.3300   -1.4910 ha        1 Z81      0.155000
     32 HN4        -1.8540   -3.4340   -2.4340 hn        1 Z81      0.416300
     33 HN4A       -2.5930   -4.2970   -1.2060 hn        1 Z81      0.416300
     34 H5          5.0270   -2.2070   -1.5870 ha        1 Z81      0.154000
     35 H6         -1.4740    1.0240   -2.4260 ha        1 Z81      0.163000
     36 H7         -3.6770    1.4420    1.3070 ha        1 Z81      0.163000
     37 H8          0.7490   -0.5240   -0.8810 ha        1 Z81      0.159000
     38 H9          3.8260    2.0620    0.7240 ha        1 Z81      0.159000
     39 H10        -2.5370    3.1720   -3.1780 h4        1 Z81      0.022600
     40 H11        -4.6380    3.5700    0.3850 h4        1 Z81      0.022600
     41 H21        -4.8210   -3.3550    0.1350 h1        1 Z81      0.053367
     42 H21A       -3.5020   -4.2240    1.0540 h1        1 Z81      0.053367
     43 H21B       -4.4390   -2.8740    1.8620 h1        1 Z81      0.053367
     44 C21        -3.9990   -3.2290    0.8900 c3        1 Z81      0.087300
@<TRIPOS>BOND
     1    1    5 ar  
     2    1    8 ar  
     3    1   28 1   
     4    2   23 1   
     5    3   17 ar  
     6    3   18 ar  
     7    4   25 2   
     8    5   19 ar  
     9    5   29 1   
    10    6   24 1   
    11    7   26 2   
    12    7   27 1   
    13    8   21 ar  
    14    8   30 1   
    15    9   25 1   
    16    9   26 1   
    17    9   44 1   
    18   10   12 ar  
    19   10   23 ar  
    20   10   31 1   
    21   11   26 1   
    22   11   32 1   
    23   11   33 1   
    24   12   24 ar  
    25   12   34 1   
    26   13   17 ar  
    27   13   22 ar  
    28   13   35 1   
    29   14   18 ar  
    30   14   22 ar  
    31   14   36 1   
    32   15   19 ar  
    33   15   21 ar  
    34   15   37 1   
    35   16   20 ar  
    36   16   23 ar  
    37   16   38 1   
    38   17   39 1   
    39   18   40 1   
    40   19   20 1   
    41   20   24 ar  
    42   21   27 1   
    43   22   27 1   
    44   25   27 1   
    45   41   44 1   
    46   42   44 1   
    47   43   44 1   
@<TRIPOS>SUBSTRUCTURE
     1 Z81         1 TEMP              0 ****  ****    0 ROOT
