@<TRIPOS>MOLECULE
Z81
   45    48     1     0     0
SMALL
bcc


@<TRIPOS>ATOM
      1 C1          0.1010    0.0640    0.0530 ca        1 Z81     -0.119000
      2 F1          6.2880   -1.9810   -0.2920 f         1 Z81     -0.121900
      3 N1         -2.3830   -3.5530    4.7680 nb        1 Z81     -0.631000
      4 O1         -2.7920    1.5230    2.7600 o         1 Z81     -0.496500
      5 C2          1.4930    0.0020    0.0800 ca        1 Z81     -0.085000
      6 F2          3.8380    1.6960    2.9860 f         1 Z81     -0.154900
      7 N2          0.0590    0.8390    4.8920 n2        1 Z81     -0.521900
      8 C3         -0.6240    0.1710    1.2380 ca        1 Z81     -0.100000
      9 N3         -1.6300    2.4230    4.5780 n         1 Z81     -0.431300
     10 C4          6.4540   -0.2390    1.3360 ca        1 Z81     -0.130000
     11 N4          0.0930    2.7890    6.3800 nz        1 Z81     -0.779600
     12 C5          5.8230    0.6830    2.1570 ca        1 Z81     -0.134000
     13 C6         -2.7380   -1.2420    4.1090 ca        1 Z81     -0.224800
     14 C7         -0.4960   -2.0670    4.4250 ca        1 Z81     -0.224800
     15 C8          1.4420    0.1300    2.4980 ca        1 Z81     -0.089000
     16 C9          4.2790   -0.9780    0.5110 ca        1 Z81     -0.136000
     17 C10        -3.1970   -2.5310    4.4460 ca        1 Z81      0.406200
     18 C11        -1.0570   -3.3150    4.7520 ca        1 Z81      0.406200
     19 C12         2.1730    0.0340    1.3060 cp        1 Z81     -0.035000
     20 C13         3.6330   -0.0510    1.3360 cp        1 Z81     -0.053000
     21 C14         0.0480    0.2210    2.4660 ca        1 Z81     -0.123300
     22 C15        -1.3590   -1.0120    4.1010 ca        1 Z81     -0.071300
     23 C16         5.6800   -1.0770    0.5090 ca        1 Z81      0.129900
     24 C17         4.4180    0.7810    2.1680 ca        1 Z81      0.108900
     25 C18        -1.8700    1.4350    3.5570 c         1 Z81      0.692500
     26 C19        -0.4620    1.9930    5.2630 c2        1 Z81      0.477800
     27 C20        -0.7610    0.3270    3.7410 c3        1 Z81      0.196800
     28 H1         -0.4320    0.0270   -0.9100 ha        1 Z81      0.157000
     29 H2          2.0600   -0.0700   -0.8620 ha        1 Z81      0.155000
     30 H3         -1.7260    0.2110    1.1990 ha        1 Z81      0.160000
     31 H4          7.5520   -0.3230    1.3230 ha        1 Z81      0.168000
     32 HN4         0.9820    2.3720    6.6960 hn        1 Z81      0.485467
     33 HN4A        0.2570    3.7520    6.0600 hn        1 Z81      0.485467
     34 H5          6.4150    1.3470    2.8050 ha        1 Z81      0.159000
     35 H6         -3.4660   -0.4640    3.8410 ha        1 Z81      0.157500
     36 H7          0.5950   -1.9330    4.4120 ha        1 Z81      0.157500
     37 H8          1.9990    0.1230    3.4480 ha        1 Z81      0.148000
     38 H9          3.6890   -1.6430   -0.1400 ha        1 Z81      0.163000
     39 H10        -4.2810   -2.7550    4.4560 h4        1 Z81      0.042100
     40 H11        -0.4090   -4.1740    5.0110 h4        1 Z81      0.042100
     41 H21        -2.5260    4.0050    5.6220 h1        1 Z81      0.072700
     42 H21A       -3.0230    3.7890    3.8750 h1        1 Z81      0.072700
     43 H21B       -1.3870    4.5050    4.2700 h1        1 Z81      0.072700
     44 H43        -0.5820    2.7910    7.1570 hn        1 Z81      0.485467
     45 C21        -2.1540    3.7490    4.5930 c3        1 Z81      0.057300
@<TRIPOS>BOND
     1    1    5 ar  
     2    1    8 ar  
     3    1   28 1   
     4    2   23 1   
     5    3   17 ar  
     6    3   18 ar  
     7    4   25 2   
     8    5   19 ar  
     9    5   29 1   
    10    6   24 1   
    11    7   26 2   
    12    7   27 1   
    13    8   21 ar  
    14    8   30 1   
    15    9   25 1   
    16    9   26 1   
    17    9   45 1   
    18   10   12 ar  
    19   10   23 ar  
    20   10   31 1   
    21   11   26 1   
    22   11   32 1   
    23   11   33 1   
    24   11   44 1   
    25   12   24 ar  
    26   12   34 1   
    27   13   17 ar  
    28   13   22 ar  
    29   13   35 1   
    30   14   18 ar  
    31   14   22 ar  
    32   14   36 1   
    33   15   19 ar  
    34   15   21 ar  
    35   15   37 1   
    36   16   20 ar  
    37   16   23 ar  
    38   16   38 1   
    39   17   39 1   
    40   18   40 1   
    41   19   20 1   
    42   20   24 ar  
    43   21   27 1   
    44   22   27 1   
    45   25   27 1   
    46   41   45 1   
    47   42   45 1   
    48   43   45 1   
@<TRIPOS>SUBSTRUCTURE
     1 Z81         1 TEMP              0 ****  ****    0 ROOT
