@<TRIPOS>MOLECULE
Z81
   45    48     1     0     0
SMALL
bcc


@<TRIPOS>ATOM
      1 C1          0.0480    0.0780    0.0660 ca        1 Z81     -0.119000
      2 F1          6.2270   -1.9760   -0.3550 f         1 Z81     -0.121900
      3 N1         -2.3880   -3.5350    4.8050 nb        1 Z81     -0.631000
      4 O1         -2.8090    1.5430    2.8070 o         1 Z81     -0.496500
      5 C2          1.4400    0.0150    0.0760 ca        1 Z81     -0.085000
      6 F2          3.8230    1.7040    2.9530 f         1 Z81     -0.154900
      7 N2          0.0650    0.8500    4.9050 n2        1 Z81     -0.521900
      8 C3         -0.6630    0.1860    1.2590 ca        1 Z81     -0.100000
      9 N3         -1.6230    2.4390    4.6120 n         1 Z81     -0.431300
     10 C4          6.4160   -0.2350    1.2720 ca        1 Z81     -0.130000
     11 N4          0.1210    2.7990    6.3940 n4        1 Z81     -0.779600
     12 C5          5.7960    0.6880    2.1000 ca        1 Z81     -0.134000
     13 C6         -2.7460   -1.2230    4.1530 ca        1 Z81     -0.224800
     14 C7         -0.5020   -2.0540    4.4420 ca        1 Z81     -0.224800
     15 C8          1.4190    0.1410    2.4940 ca        1 Z81     -0.089000
     16 C9          4.2300   -0.9700    0.4730 ca        1 Z81     -0.136000
     17 C10        -3.2040   -2.5110    4.4950 ca        1 Z81      0.406200
     18 C11        -1.0620   -3.3020    4.7740 ca        1 Z81      0.406200
     19 C12         2.1350    0.0440    1.2930 cp        1 Z81     -0.035000
     20 C13         3.5950   -0.0420    1.3060 cp        1 Z81     -0.053000
     21 C14         0.0240    0.2340    2.4790 ca        1 Z81     -0.123300
     22 C15        -1.3670   -0.9970    4.1290 ca        1 Z81     -0.071300
     23 C16         5.6310   -1.0710    0.4540 ca        1 Z81      0.129900
     24 C17         4.3910    0.7880    2.1280 ca        1 Z81      0.108900
     25 C18        -1.8770    1.4520    3.5930 c         1 Z81      0.692500
     26 C19        -0.4480    2.0050    5.2830 c2        1 Z81      0.477800
     27 C20        -0.7690    0.3420    3.7630 c3        1 Z81      0.196800
     28 H1         -0.4960    0.0430   -0.8910 ha        1 Z81      0.157000
     29 H2          1.9960   -0.0580   -0.8730 ha        1 Z81      0.155000
     30 H3         -1.7650    0.2280    1.2340 ha        1 Z81      0.160000
     31 H4          7.5130   -0.3200    1.2450 ha        1 Z81      0.168000
     32 HN4         1.0130    2.3790    6.7000 hn        1 Z81      0.485467
     33 HN4A       -0.5440    2.8010    7.1790 hn        1 Z81      0.485467
     34 H5          6.3960    1.3520    2.7410 ha        1 Z81      0.159000
     35 H6         -3.4750   -0.4430    3.8950 ha        1 Z81      0.157500
     36 H7          0.5890   -1.9230    4.4150 ha        1 Z81      0.157500
     37 H8          1.9870    0.1330    3.4370 ha        1 Z81      0.148000
     38 H9          3.6310   -1.6330   -0.1710 ha        1 Z81      0.163000
     39 H10        -4.2880   -2.7330    4.5170 h4        1 Z81      0.042100
     40 H11        -0.4140   -4.1620    5.0240 h4        1 Z81      0.042100
     41 H21        -1.3780    4.5200    4.3030 h1        1 Z81      0.072700
     42 H21A       -2.5020    4.0220    5.6670 h1        1 Z81      0.072700
     43 H21B       -3.0210    3.8090    3.9270 h1        1 Z81      0.072700
     44 H43         0.2850    3.7610    6.0730 hn        1 Z81      0.485467
     45 C21        -2.1440    3.7660    4.6340 c3        1 Z81      0.057300
@<TRIPOS>BOND
     1    1    5 ar  
     2    1    8 ar  
     3    1   28 1   
     4    2   23 1   
     5    3   17 ar  
     6    3   18 ar  
     7    4   25 2   
     8    5   19 ar  
     9    5   29 1   
    10    6   24 1   
    11    7   26 2   
    12    7   27 1   
    13    8   21 ar  
    14    8   30 1   
    15    9   25 1   
    16    9   26 1   
    17    9   45 1   
    18   10   12 ar  
    19   10   23 ar  
    20   10   31 1   
    21   11   26 1   
    22   11   32 1   
    23   11   33 1   
    24   11   44 1   
    25   12   24 ar  
    26   12   34 1   
    27   13   17 ar  
    28   13   22 ar  
    29   13   35 1   
    30   14   18 ar  
    31   14   22 ar  
    32   14   36 1   
    33   15   19 ar  
    34   15   21 ar  
    35   15   37 1   
    36   16   20 ar  
    37   16   23 ar  
    38   16   38 1   
    39   17   39 1   
    40   18   40 1   
    41   19   20 1   
    42   20   24 ar  
    43   21   27 1   
    44   22   27 1   
    45   25   27 1   
    46   41   45 1   
    47   42   45 1   
    48   43   45 1   
@<TRIPOS>SUBSTRUCTURE
     1 Z81         1 TEMP              0 ****  ****    0 ROOT
