@<TRIPOS>MOLECULE
Z82
   14    14     1     0     0
SMALL
bcc


@<TRIPOS>ATOM
      1 C1         -1.9420    0.0260    0.0000 ca        1 Z82     -0.109600
      2 O1         -4.0450    1.1600    0.0010 o         1 Z82     -0.826300
      3 C2         -1.2230    1.2250    0.0000 ca        1 Z82     -0.111000
      4 C3          0.1700    1.2200    0.0000 ca        1 Z82     -0.136000
      5 C4          0.8570    0.0030    0.0000 ca        1 Z82     -0.039900
      6 BR4         2.7400   -0.0120    0.0000 br        1 Z82     -0.166100
      7 C5          0.1510   -1.2030    0.0000 ca        1 Z82     -0.136000
      8 C6         -1.2430   -1.1850    0.0000 ca        1 Z82     -0.111000
      9 C7         -3.4650    0.0380    0.0010 c         1 Z82      0.907200
     10 H2         -1.7880    2.1720    0.0010 ha        1 Z82      0.156000
     11 H3          0.7220    2.1710    0.0000 ha        1 Z82      0.120000
     12 H5          0.6860   -2.1630    0.0000 ha        1 Z82      0.120000
     13 H6         -1.8230   -2.1230    0.0000 ha        1 Z82      0.156000
     14 O2         -4.0620   -1.0750    0.0000 o         1 Z82     -0.826300
@<TRIPOS>BOND
     1    1    3 ar  
     2    1    8 ar  
     3    1    9 1   
     4    2    9 1   
     5    3    4 ar  
     6    3   10 1   
     7    4    5 ar  
     8    4   11 1   
     9    5    6 1   
    10    5    7 ar  
    11    7    8 ar  
    12    7   12 1   
    13    8   13 1   
    14    9   14 1   
@<TRIPOS>SUBSTRUCTURE
     1 Z82         1 TEMP              0 ****  ****    0 ROOT
