@<TRIPOS>MOLECULE
Z82
   14    11     1     0     0
SMALL
bcc


@<TRIPOS>ATOM
      1 C1         -0.4550    0.0010   -0.7880 c1        1 Z82     -0.089000
      2 O1         -1.5230   -1.0940   -2.6430 o         1 Z82     -0.561000
      3 C2          0.9310    0.0010   -0.7880 c2        1 Z82     -0.111000
      4 C3          1.6240    0.0010    0.4120 c1        1 Z82     -0.136000
      5 C4          0.9310    0.0010    1.6120 c2        1 Z82     -0.180000
      6 BR4         1.8870   -0.0000    3.2680 br        1 Z82     -0.026000
      7 C5         -0.4550    0.0010    1.6120 c1        1 Z82     -0.136000
      8 C6         -1.1480    0.0010    0.4120 c1        1 Z82     -0.111000
      9 C7         -1.2120   -0.0030   -2.0990 c1        1 Z82      0.356000
     10 H2          1.4190    0.0010   -1.6340 ha        1 Z82      0.156000
     11 H3          2.6000    0.0010    0.4120 DU        1 Z82      0.120000
     12 H5         -0.9430    0.0010    2.4580 ha        1 Z82      0.120000
     13 H6         -2.1240    0.0010    0.4120 ha        1 Z82      0.156000
     14 O2         -1.5300    1.0860   -2.6450 o         1 Z82     -0.561000
@<TRIPOS>BOND
     1    1    3 1   
     2    1    8 1   
     3    2    9 1   
     4    3    4 1   
     5    3   10 1   
     6    4    5 1   
     7    5    6 1   
     8    5    7 1   
     9    7   12 1   
    10    8   13 1   
    11    9   14 1   
@<TRIPOS>SUBSTRUCTURE
     1 Z82         1 TEMP              0 ****  ****    0 ROOT
