@<TRIPOS>MOLECULE
Z82
   14    13     1     0     0
SMALL
bcc


@<TRIPOS>ATOM
      1 C1         -1.1380    0.5070   -0.1450 cg        1 Z82     -0.001200
      2 O1         -1.2020    1.2030   -2.3810 o         1 Z82     -0.803300
      3 C2          2.1870   -0.5800    0.2410 c2        1 Z82     -0.194000
      4 C3          2.1220   -0.8080    1.5560 ce        1 Z82     -0.131000
      5 C4          1.2180   -0.1440    2.4700 ce        1 Z82     -0.067300
      6 Br4         1.8260   -0.0820    4.2670 br        1 Z82     -0.155700
      7 C5          0.0220    0.4110    2.1780 cf        1 Z82      0.090300
      8 C6         -0.5820    0.4500    0.9220 ch        1 Z82     -0.333300
      9 C7         -1.8100    0.5870   -1.4640 c         1 Z82      0.907800
     10 H2          2.8930   -1.1240   -0.3990 ha        1 Z82      0.126000
     11 H3          1.5390    0.1410   -0.2800 ha        1 Z82      0.126000
     12 H5          2.7970   -1.5510    2.0180 ha        1 Z82      0.112000
     13 H6         -0.5740    0.8880    2.9830 ha        1 Z82      0.128000
     14 O2         -2.9370    0.0360   -1.5770 o         1 Z82     -0.803300
@<TRIPOS>BOND
     1    1    8 3   
     2    1    9 1   
     3    2    9 1   
     4    3    4 2   
     5    3   10 1   
     6    3   11 1   
     7    4    5 1   
     8    4   12 1   
     9    5    6 1   
    10    5    7 2   
    11    7    8 1   
    12    7   13 1   
    13    9   14 1   
@<TRIPOS>SUBSTRUCTURE
     1 Z82         1 TEMP              0 ****  ****    0 ROOT
