@<TRIPOS>MOLECULE
Z83
   48    50     1     0     0
SMALL
bcc


@<TRIPOS>ATOM
      1 CAA        -0.3200    5.1690    1.5390 c3        1 Z83     -0.084767
      2 CAB        -2.1670    4.9340   -0.1040 c3        1 Z83     -0.084767
      3 CAC         0.1180    5.5070   -0.8870 c3        1 Z83     -0.084767
      4 OAD         6.8500   -2.7130    1.0830 o         1 Z83     -0.832800
      5 OAF         4.8380   -3.6330    1.4150 o         1 Z83     -0.832800
      6 CAG        -5.3580   -4.1510   -0.2260 cc        1 Z83      0.352200
      7 CAH        -6.0690   -3.0350    0.1930 cd        1 Z83     -0.335400
      8 CAI         4.0610   -0.0790   -1.0690 ca        1 Z83     -0.136500
      9 CAJ         2.9880   -1.5750    0.4890 ca        1 Z83     -0.136500
     10 CAK         3.0060    0.8230   -0.9500 ca        1 Z83     -0.136500
     11 CAL         1.9340   -0.6850    0.6320 ca        1 Z83     -0.136500
     12 CAM        -1.3060    2.1970   -0.3130 cc        1 Z83     -0.276300
     13 NAO        -4.0100   -3.9570   -0.4330 nc        1 Z83     -0.692000
     14 NAP         0.8950    2.7270    0.1340 nd        1 Z83     -0.487800
     15 NAQ        -0.9200   -0.3000   -0.6300 n         1 Z83     -0.411100
     16 SAS        -5.0730   -1.7120    0.3420 ss        1 Z83      0.034700
     17 CAT         5.6490   -2.9160    0.7620 c         1 Z83      0.920600
     18 CAU        -2.1940   -0.7570   -0.2440 c         1 Z83      0.764100
     19 CAV         4.0610   -1.2950   -0.3760 ca        1 Z83      0.004700
     20 CAW         1.9200    0.5150   -0.1130 ca        1 Z83     -0.055200
     21 CAX        -0.3610    3.2460   -0.0110 cc        1 Z83      0.302600
     22 CAY        -0.5360    1.0140   -0.3320 cd        1 Z83     -0.003700
     23 CAZ        -3.7070   -2.6620   -0.1540 cd        1 Z83      0.494300
     24 NBA         0.8000    1.3990   -0.0050 na        1 Z83      0.168300
     25 CBB        -0.6800    4.7020    0.1330 c3        1 Z83     -0.068300
     26 HAA        -0.5940    6.2450    1.6620 hc        1 Z83      0.036256
     27 HAAA       -0.8740    4.5690    2.2990 hc        1 Z83      0.036256
     28 HAAB        0.7750    5.0550    1.7210 hc        1 Z83      0.036256
     29 HAB        -2.4010    6.0210    0.0010 hc        1 Z83      0.036256
     30 HABA       -2.4540    4.6030   -1.1300 hc        1 Z83      0.036256
     31 HABB       -2.7730    4.3630    0.6400 hc        1 Z83      0.036256
     32 HAC         1.2130    5.3970   -0.7010 hc        1 Z83      0.036256
     33 HACA       -0.1080    5.1550   -1.9210 hc        1 Z83      0.036256
     34 HACB       -0.1500    6.5880   -0.8090 hc        1 Z83      0.036256
     35 HAG        -5.7670   -5.1520   -0.4040 h4        1 Z83      0.036100
     36 HAH        -7.1370   -3.0180    0.3930 h4        1 Z83      0.173000
     37 HAI         4.9130    0.1750   -1.7190 ha        1 Z83      0.168000
     38 HAJ         3.0330   -2.5120    1.0820 ha        1 Z83      0.168000
     39 HAK         3.0340    1.7710   -1.5060 ha        1 Z83      0.131000
     40 HAL         1.1310   -0.9080    1.3500 ha        1 Z83      0.131000
     41 HAM        -2.3760    2.2770   -0.4660 ha        1 Z83      0.182000
     42 HAN         6.0250   -1.8000   -1.0750 hc        1 Z83      0.044700
     43 HANA        4.7760   -3.1140   -1.2050 hc        1 Z83      0.044700
     44 HNAQ       -0.1720   -0.9640   -0.6910 hn        1 Z83      0.333500
     45 HNAR       -1.6890   -2.7810   -0.5020 hn        1 Z83      0.341500
     46 NAR        -2.4090   -2.1540   -0.2100 n         1 Z83     -0.524400
     47 CAN         5.1520   -2.2760   -0.5600 c3        1 Z83     -0.187100
     48 OAE        -3.1410    0.0190    0.0260 o         1 Z83     -0.613100
@<TRIPOS>BOND
     1    1   25 1   
     2    1   26 1   
     3    1   27 1   
     4    1   28 1   
     5    2   25 1   
     6    2   29 1   
     7    2   30 1   
     8    2   31 1   
     9    3   25 1   
    10    3   32 1   
    11    3   33 1   
    12    3   34 1   
    13    4   17 1   
    14    5   17 1   
    15    6    7 2   
    16    6   13 1   
    17    6   35 1   
    18    7   16 1   
    19    7   36 1   
    20    8   10 ar  
    21    8   19 ar  
    22    8   37 1   
    23    9   11 ar  
    24    9   19 ar  
    25    9   38 1   
    26   10   20 ar  
    27   10   39 1   
    28   11   20 ar  
    29   11   40 1   
    30   12   21 1   
    31   12   22 2   
    32   12   41 1   
    33   13   23 2   
    34   14   21 2   
    35   14   24 1   
    36   15   18 1   
    37   15   22 1   
    38   15   44 1   
    39   16   23 1   
    40   17   47 1   
    41   18   46 1   
    42   18   48 2   
    43   19   47 1   
    44   20   24 1   
    45   21   25 1   
    46   22   24 1   
    47   23   46 1   
    48   42   47 1   
    49   43   47 1   
    50   45   46 1   
@<TRIPOS>SUBSTRUCTURE
     1 Z83         1 TEMP              0 ****  ****    0 ROOT
