@<TRIPOS>MOLECULE
Z83
   48    47     1     0     0
SMALL
bcc


@<TRIPOS>ATOM
      1 CAA         1.2740    0.0910   -0.3950 c3        1 Z83     -0.184000
      2 CAB        -0.6240    1.4410    2.5360 c3        1 Z83     -0.275000
      3 CAC         3.7110    0.3290   -0.7890 c2        1 Z83     -0.191000
      4 OAD         5.7900    1.9670  -10.1900 o         1 Z83     -0.533000
      5 OAF         3.7670    1.6910   -9.2580 o         1 Z83     -0.533000
      6 CAG         2.7470    7.8180    5.1210 c1        1 Z83     -0.088000
      7 CAH         2.9000    8.1750    6.2610 c1        1 Z83     -0.255000
      8 CAI         5.6440    3.2980   -6.1520 c2        1 Z83     -0.290000
      9 CAJ         3.2810    3.2530   -6.8620 c3        1 Z83     -0.228000
     10 CAK         5.2440    3.0550   -4.8280 c2        1 Z83      0.068000
     11 CAL         2.8850    3.0600   -5.4850 c1        1 Z83     -0.140000
     12 CAM         1.6550    3.1320   -0.5110 c2        1 Z83     -0.287000
     13 NAO         2.6810    7.5370    3.8120 n2        1 Z83     -0.185000
     14 NAP         2.4730    2.4510   -2.7220 n2        1 Z83     -0.071000
     15 NAQ         1.1490    5.5330   -0.1540 n2        1 Z83     -0.254000
     16 SAS         0.8600    5.5150    4.2520 sh        1 Z83      0.218000
     17 CAT         4.8650    2.2900   -9.4080 c2        1 Z83      0.352000
     18 CAU         1.1040    5.4570    1.2720 c2        1 Z83      0.354000
     19 CAV         4.7180    3.4150   -7.1710 c2        1 Z83      0.105000
     20 CAW         3.8860    2.9250   -4.4970 c2        1 Z83     -0.216000
     21 CAX         2.2310    2.2130   -1.3290 c2        1 Z83      0.091000
     22 CAY         1.3700    4.5020   -0.8990 c2        1 Z83      0.100000
     23 CAZ         1.9140    6.5650    3.3420 c2        1 Z83      0.039000
     24 NBA         3.6080    2.6960   -3.1160 n2        1 Z83     -0.034000
     25 CBB         2.4770    0.8410   -0.8290 c2        1 Z83     -0.092000
     26 HAA         0.7430    0.6400    0.4250 hc        1 Z83      0.088000
     27 HAAA        0.5660   -0.0220   -1.2550 hc        1 Z83      0.088000
     28 HAAB        1.5460   -0.9270   -0.0230 hc        1 Z83      0.088000
     29 HAB        -0.2910    2.4540    2.2150 hc        1 Z83      0.069250
     30 HABA       -1.2440    1.5300    3.4550 hc        1 Z83      0.069250
     31 HABB       -1.2280    0.9750    1.7270 hc        1 Z83      0.069250
     32 HAC         0.2640    0.8060    2.7490 hc        1 Z83      0.069250
     33 HACA        4.5950    0.8840   -1.1320 ha        1 Z83      0.121000
     34 HACB        3.9080   -0.6810   -0.4080 ha        1 Z83      0.121000
     35 HAG         3.0440    8.4990    7.2570 ha        1 Z83      0.227000
     36 HAH         1.1390    5.9720    5.4620 hs        1 Z83     -0.018000
     37 HAI         6.7190    3.3800   -6.3740 ha        1 Z83      0.135000
     38 HAJ         2.9520    2.3170   -7.4620 hc        1 Z83      0.205000
     39 HAK         6.0320    2.9740   -4.0580 ha        1 Z83      0.122000
     40 HAL         2.6690    4.0810   -7.3210 hc        1 Z83      0.205000
     41 HAM         1.3260    4.7240   -1.9930 h4        1 Z83      0.181000
     42 HAN         6.1740    3.8910   -8.6780 hc        1 Z83      0.100000
     43 HANA        4.4580    4.3790   -9.0580 hc        1 Z83      0.100000
     44 HNAQ        1.3550    2.8370    0.5110 ha        1 Z83      0.156000
     45 HNAR        2.5490    6.9480    1.4210 hn        1 Z83      0.262000
     46 NAR         1.9650    6.3400    1.9620 ns        1 Z83     -0.305000
     47 CAN         5.1000    3.6020   -8.5680 c3        1 Z83     -0.271000
     48 OAE         0.3070    4.7340    1.9090 o         1 Z83     -0.351000
@<TRIPOS>BOND
     1    1   25 1   
     2    1   26 1   
     3    1   27 1   
     4    1   28 1   
     5    2   29 1   
     6    2   30 1   
     7    2   31 1   
     8    2   32 1   
     9    3   25 1   
    10    3   33 1   
    11    3   34 1   
    12    4   17 1   
    13    5   17 1   
    14    6    7 1   
    15    6   13 1   
    16    7   35 1   
    17    8   10 1   
    18    8   19 1   
    19    8   37 1   
    20    9   11 1   
    21    9   19 1   
    22    9   38 1   
    23    9   40 1   
    24   10   20 1   
    25   10   39 1   
    26   11   20 1   
    27   12   21 1   
    28   12   22 1   
    29   12   44 1   
    30   13   23 1   
    31   14   21 1   
    32   14   24 1   
    33   15   18 1   
    34   15   22 1   
    35   16   23 1   
    36   16   36 1   
    37   17   47 1   
    38   18   46 1   
    39   18   48 1   
    40   19   47 1   
    41   20   24 1   
    42   21   25 1   
    43   22   41 1   
    44   23   46 1   
    45   42   47 1   
    46   43   47 1   
    47   45   46 1   
@<TRIPOS>SUBSTRUCTURE
     1 Z83         1 TEMP              0 ****  ****    0 ROOT
