@<TRIPOS>MOLECULE
Z83
   48    48     1     0     0
SMALL
bcc


@<TRIPOS>ATOM
      1 CAA         0.4560    0.1690   -0.9710 c3        1 Z83     -0.207000
      2 CAB         1.2800    1.0360    1.2000 c3        1 Z83     -0.207000
      3 CAC         2.9020    0.2700   -0.5000 c3        1 Z83     -0.207000
      4 OAD         6.3310    1.5560   -9.1780 o         1 Z83     -0.533500
      5 OAF         4.3270    0.9170   -8.3960 o         1 Z83     -0.533500
      6 CAG         3.0730    8.0710    5.1160 c2        1 Z83     -0.388000
      7 CAH         3.4780    9.2150    5.6590 c1        1 Z83      0.194000
      8 CAI         5.2980    3.4840   -5.5280 c2        1 Z83     -0.289000
      9 CAJ         3.1420    2.6860   -6.4270 c3        1 Z83     -0.228000
     10 CAK         4.7870    3.3740   -4.2240 c2        1 Z83      0.067000
     11 CAL         2.6160    2.6310   -5.0810 c1        1 Z83     -0.141000
     12 CAM         1.1720    3.4590   -0.2520 c2        1 Z83     -0.301000
     13 NAO         2.9970    7.7240    3.7690 n2        1 Z83     -0.214000
     14 NAP         1.9960    2.3840   -2.3000 n2        1 Z83     -0.075000
     15 NAQ         1.1350    5.9340   -0.1670 n2        1 Z83     -0.250000
     16 SAS         0.5200    6.5580    4.1280 sh        1 Z83      0.214000
     17 CAT         5.2550    1.7520   -8.5660 c2        1 Z83      0.352000
     18 CAU         0.9970    6.0200    1.2520 c2        1 Z83      0.353000
     19 CAV         4.5240    3.1700   -6.6290 c2        1 Z83      0.104000
     20 CAW         3.4700    2.9440   -3.9990 c2        1 Z83     -0.218000
     21 CAX         1.6130    2.3610   -0.9180 c2        1 Z83      0.067000
     22 CAY         1.1880    4.8070   -0.7950 c2        1 Z83      0.096000
     23 CAZ         1.9750    7.0470    3.2900 c2        1 Z83      0.015000
     24 NBA         3.0640    2.8910   -2.6310 n2        1 Z83     -0.038000
     25 CBB         1.5630    0.9720   -0.2960 c3        1 Z83     -0.019000
     26 HAA        -0.5210    0.6980   -0.8720 hc        1 Z83      0.081111
     27 HAAA        0.6760    0.0230   -2.0560 hc        1 Z83      0.081111
     28 HAAB        0.3740   -0.8330   -0.4850 hc        1 Z83      0.081111
     29 HAB         2.0200    1.6950    1.7140 hc        1 Z83      0.081111
     30 HABA        0.2500    1.4200    1.3940 hc        1 Z83      0.081111
     31 HABB        1.3550    0.0110    1.6370 hc        1 Z83      0.081111
     32 HAC         3.7380    0.9160   -0.1430 hc        1 Z83      0.081111
     33 HACA        3.0680    0.0270   -1.5770 hc        1 Z83      0.081111
     34 HACB        2.9170   -0.6870    0.0760 hc        1 Z83      0.081111
     35 HAG         2.8950    7.2650    5.8780 h4        1 Z83      0.168000
     36 HAH         0.7650    7.1330    5.2900 hs        1 Z83     -0.042000
     37 HAI         6.3390    3.8120   -5.6630 ha        1 Z83      0.135000
     38 HAJ         3.1390    1.6080   -6.8530 hc        1 Z83      0.204500
     39 HAK         5.4530    3.6420   -3.3850 ha        1 Z83      0.123000
     40 HAL         2.4170    3.2300   -7.0960 hc        1 Z83      0.204500
     41 HAM         1.2460    4.9200   -1.9040 h4        1 Z83      0.174000
     42 HAN         6.0180    3.7460   -8.0630 hc        1 Z83      0.100000
     43 HANA        4.3070    3.6850   -8.6890 hc        1 Z83      0.100000
     44 HNAQ        0.7370    3.3690    0.7590 ha        1 Z83      0.155000
     45 HNAR        2.8400    6.9740    1.4200 hn        1 Z83      0.259000
     46 NAR         2.0490    6.6560    1.9450 n         1 Z83     -0.310000
     47 CAN         5.0430    3.2050   -7.9950 c3        1 Z83     -0.270000
     48 OAE        -0.0220    5.6420    1.8730 o         1 Z83     -0.349000
@<TRIPOS>BOND
     1    1   25 1   
     2    1   26 1   
     3    1   27 1   
     4    1   28 1   
     5    2   25 1   
     6    2   29 1   
     7    2   30 1   
     8    2   31 1   
     9    3   25 1   
    10    3   32 1   
    11    3   33 1   
    12    3   34 1   
    13    4   17 1   
    14    5   17 1   
    15    6    7 1   
    16    6   13 1   
    17    6   35 1   
    18    8   10 1   
    19    8   19 1   
    20    8   37 1   
    21    9   11 1   
    22    9   19 1   
    23    9   38 1   
    24    9   40 1   
    25   10   20 1   
    26   10   39 1   
    27   11   20 1   
    28   12   21 1   
    29   12   22 1   
    30   12   44 1   
    31   13   23 1   
    32   14   21 1   
    33   14   24 1   
    34   15   18 1   
    35   15   22 1   
    36   16   23 1   
    37   16   36 1   
    38   17   47 1   
    39   18   46 1   
    40   18   48 1   
    41   19   47 1   
    42   20   24 1   
    43   21   25 1   
    44   22   41 1   
    45   23   46 1   
    46   42   47 1   
    47   43   47 1   
    48   45   46 1   
@<TRIPOS>SUBSTRUCTURE
     1 Z83         1 TEMP              0 ****  ****    0 ROOT
