@<TRIPOS>MOLECULE
Z84
   65    68     1     0     0
SMALL
bcc


@<TRIPOS>ATOM
      1 CAA        -5.1610    6.0630   -1.3180 c3        1 Z84     -0.056800
      2 CAB        -5.7480   -3.0260    2.4420 c3        1 Z84     -0.085100
      3 CAC        -6.0560   -3.8170    0.1010 c3        1 Z84     -0.085100
      4 CAD        -7.7180   -2.2850    1.1270 c3        1 Z84     -0.085100
      5 OAE        -1.4460   -1.8610   -0.8390 o         1 Z84     -0.574100
      6 CAF        10.4440    1.5460    1.3610 ca        1 Z84      0.391200
      7 CAG        10.0840   -0.7250    1.3790 ca        1 Z84      0.391200
      8 CAH         9.1350    1.8050    0.9240 ca        1 Z84     -0.234800
      9 CAI         8.7540   -0.5720    0.9430 ca        1 Z84     -0.234800
     10 CAJ        -5.9140    3.7100   -1.7020 ca        1 Z84     -0.124000
     11 CAK        -4.1730    4.1250   -0.0850 ca        1 Z84     -0.124000
     12 CAL        -5.8500    2.3460   -1.4390 ca        1 Z84     -0.127500
     13 CAM        -4.1000    2.7650    0.2000 ca        1 Z84     -0.127500
     14 CAN         2.6710   -2.2180   -2.5120 cc        1 Z84     -0.287400
     15 CAO        -3.9710   -1.5370    0.4000 cc        1 Z84     -0.270300
     16 CAP         4.9030   -0.0600   -0.5140 c3        1 Z84      0.137400
     17 CAR         6.8760    0.9860    0.2600 c3        1 Z84      0.171700
     18 NAS        10.9240    0.3060    1.5880 nb        1 Z84     -0.665000
     19 NAT         2.0060   -0.5590   -1.0020 nd        1 Z84     -0.656000
     20 NAU        -5.8910   -0.2730    0.1840 nd        1 Z84     -0.490800
     21 NAW        -0.2900   -0.0130   -1.6810 n         1 Z84     -0.487400
     22 OAX         6.2450   -0.2520   -0.0620 os        1 Z84     -0.428600
     23 SAY         1.1150   -1.9480   -3.0020 ss        1 Z84      0.041700
     24 CAZ        -1.3710   -0.6230   -0.9650 c         1 Z84      0.742100
     25 CBA        -5.0760    4.6120   -1.0360 ca        1 Z84     -0.072300
     26 CBB         8.2730    0.7200    0.7120 ca        1 Z84     -0.049300
     27 CBC         3.0170   -1.4020   -1.4310 cd        1 Z84      0.354600
     28 CBD        -4.9270    1.8570   -0.4920 ca        1 Z84      0.004800
     29 CBE        -3.6160   -0.2700   -0.0940 cd        1 Z84      0.013300
     30 CBF        -5.4140   -1.4900    0.5550 cc        1 Z84      0.332600
     31 CBG         0.9110   -0.7480   -1.7740 cc        1 Z84      0.442300
     32 NBH        -4.8430    0.4560   -0.2500 na        1 Z84      0.123300
     33 HAA        -5.9500    6.5290   -0.6740 hc        1 Z84      0.048033
     34 HAAA       -4.1890    6.5720   -1.1050 hc        1 Z84      0.048033
     35 HAAB       -5.4310    6.2470   -2.3880 hc        1 Z84      0.048033
     36 HAB        -4.6630   -3.2860    2.4130 hc        1 Z84      0.039478
     37 HABA       -5.8950   -2.1790    3.1550 hc        1 Z84      0.039478
     38 HABB       -6.3210   -3.9100    2.8120 hc        1 Z84      0.039478
     39 HAC        -6.6260   -4.6990    0.4800 hc        1 Z84      0.039478
     40 HACA       -6.4320   -3.5570   -0.9170 hc        1 Z84      0.039478
     41 HACB       -4.9760   -4.0910    0.0250 hc        1 Z84      0.039478
     42 HAD        -7.8820   -1.4270    1.8210 hc        1 Z84      0.039478
     43 HADA       -8.1090   -2.0100    0.1180 hc        1 Z84      0.039478
     44 HADB       -8.2940   -3.1640    1.5050 hc        1 Z84      0.039478
     45 HAG        10.5000   -1.7300    1.5710 h4        1 Z84      0.021600
     46 HAH         8.7980    2.8350    0.7530 ha        1 Z84      0.151000
     47 HAI         8.1080   -1.4470    0.7860 ha        1 Z84      0.151000
     48 HAJ        -6.6370    4.0840   -2.4430 ha        1 Z84      0.139000
     49 HAK        -3.5200    4.8260    0.4570 ha        1 Z84      0.139000
     50 HAL        -6.5260    1.6530   -1.9650 ha        1 Z84      0.152500
     51 HAM        -3.4120    2.4130    0.9850 ha        1 Z84      0.152500
     52 HAN         3.3400   -2.9460   -2.9680 h4        1 Z84      0.186000
     53 HAO        -3.3100   -2.3760    0.5930 ha        1 Z84      0.192000
     54 HAP         4.9100    0.5480   -1.4570 h1        1 Z84      0.039700
     55 HAPA        4.3110    0.4810    0.2720 h1        1 Z84      0.039700
     56 HAR         6.8820    1.6510   -0.6480 h1        1 Z84      0.042200
     57 HARA        6.3000    1.4970    1.0810 h1        1 Z84      0.042200
     58 HNAW       -0.1310    0.9560   -1.4710 hn        1 Z84      0.303500
     59 CBI        -6.2390   -2.6380    1.0510 c3        1 Z84     -0.076300
     60 NAV        -2.3550    0.2410   -0.4240 n         1 Z84     -0.425100
     61 CAQ         4.3430   -1.4520   -0.7630 c3        1 Z84     -0.108700
     62 HAF        11.1530    2.3740    1.5400 h4        1 Z84      0.021600
     63 HAQ         5.0600   -2.0320   -1.4030 hc        1 Z84      0.070200
     64 HAQA        4.2490   -1.9940    0.2160 hc        1 Z84      0.070200
     65 HNAV       -2.3410    1.2000   -0.7070 hn        1 Z84      0.316500
@<TRIPOS>BOND
     1    1   25 1   
     2    1   33 1   
     3    1   34 1   
     4    1   35 1   
     5    2   36 1   
     6    2   37 1   
     7    2   38 1   
     8    2   59 1   
     9    3   39 1   
    10    3   40 1   
    11    3   41 1   
    12    3   59 1   
    13    4   42 1   
    14    4   43 1   
    15    4   44 1   
    16    4   59 1   
    17    5   24 2   
    18    6    8 ar  
    19    6   18 ar  
    20    6   62 1   
    21    7    9 ar  
    22    7   18 ar  
    23    7   45 1   
    24    8   26 ar  
    25    8   46 1   
    26    9   26 ar  
    27    9   47 1   
    28   10   12 ar  
    29   10   25 ar  
    30   10   48 1   
    31   11   13 ar  
    32   11   25 ar  
    33   11   49 1   
    34   12   28 ar  
    35   12   50 1   
    36   13   28 ar  
    37   13   51 1   
    38   14   23 1   
    39   14   27 2   
    40   14   52 1   
    41   15   29 2   
    42   15   30 1   
    43   15   53 1   
    44   16   22 1   
    45   16   54 1   
    46   16   55 1   
    47   16   61 1   
    48   17   22 1   
    49   17   26 1   
    50   17   56 1   
    51   17   57 1   
    52   19   27 1   
    53   19   31 2   
    54   20   30 2   
    55   20   32 1   
    56   21   24 1   
    57   21   31 1   
    58   21   58 1   
    59   23   31 1   
    60   24   60 1   
    61   27   61 1   
    62   28   32 1   
    63   29   32 1   
    64   29   60 1   
    65   30   59 1   
    66   60   65 1   
    67   61   63 1   
    68   61   64 1   
@<TRIPOS>SUBSTRUCTURE
     1 Z84         1 TEMP              0 ****  ****    0 ROOT
