@<TRIPOS>MOLECULE
Z84
   65    66     1     0     0
SMALL
bcc


@<TRIPOS>ATOM
      1 CAA         2.6700   -4.5440   -0.0970 c1        1 Z84     -0.044000
      2 CAB         8.4350    0.8250    3.8130 c3        1 Z84     -0.184000
      3 CAC         7.1320    2.7680    6.9290 c3        1 Z84     -0.278000
      4 CAD         8.2120   -0.5150    1.7480 c2        1 Z84     -0.195000
      5 OAE         3.9890    1.3930    6.3370 o         1 Z84     -0.337000
      6 CAF         4.7300   11.0590   12.1970 c2        1 Z84      0.074000
      7 CAG         2.8040   10.1990   13.1680 c1        1 Z84     -0.010000
      8 CAH         4.8620    9.9720   11.2460 c2        1 Z84     -0.270000
      9 CAI         2.8270    9.0320   12.2480 c3        1 Z84     -0.265000
     10 CAJ         2.0000    2.3300    0.6140 c1        1 Z84     -0.155000
     11 CAK         2.3180   -2.1570    0.5920 c2        1 Z84     -0.169000
     12 CAL         2.3820    1.3020    1.0890 c1        1 Z84     -0.220000
     13 CAM         2.9510   -0.9840    0.5450 c2        1 Z84     -0.149000
     14 CAN         1.5750    2.4480    9.9550 c2        1 Z84     -0.484000
     15 CAO         5.5310    1.1490    3.8680 c2        1 Z84     -0.190000
     16 CAP         2.9370    5.8190    9.6990 c3        1 Z84     -0.015000
     17 CAR         4.0130    7.8350   10.3120 c3        1 Z84     -0.007000
     18 NAS         3.7670   11.1580   13.0900 n2        1 Z84     -0.227000
     19 NAT         1.7860    3.6490    7.9570 n2        1 Z84     -0.123000
     20 NAU         5.2730   -0.1540    1.9780 n2        1 Z84     -0.064000
     21 NAW         1.7120    1.9170    6.2110 ns        1 Z84     -0.254000
     22 OAX         2.9320    6.9440   10.5820 os        1 Z84     -0.288000
     23 SAY         1.5530    1.2240    8.8430 ss        1 Z84      0.621000
     24 CAZ         2.9940    1.6410    5.6290 c2        1 Z84      0.373000
     25 CBA         2.4080   -3.1750   -0.4840 c3        1 Z84     -0.229000
     26 CBB         3.9350    8.9780   11.2650 c2        1 Z84     -0.008000
     27 CBC         1.7020    3.6960    9.3380 c2        1 Z84     -0.072000
     28 CBD         2.8270    0.0360    1.6500 c3        1 Z84      0.192000
     29 CBE         4.1610    1.0450    3.5760 c2        1 Z84      0.039000
     30 CBF         6.1950    0.3730    2.8360 c2        1 Z84     -0.064000
     31 CBG         1.7140    2.3620    7.5520 c2        1 Z84     -0.217000
     32 NBH         4.0560    0.1590    2.4480 na        1 Z84     -0.140000
     33 HAA         3.2080   -2.9030   -1.2390 hc        1 Z84      0.156500
     34 HAAA        1.4360   -3.1910   -1.0680 hc        1 Z84      0.156500
     35 HAAB        2.7900   -4.7470    0.9790 ha        1 Z84      0.043000
     36 HAB         8.1310    0.4210    4.8120 hc        1 Z84      0.085333
     37 HABA        9.5270    0.6340    3.6700 hc        1 Z84      0.085333
     38 HABB        8.2650    1.9310    3.8170 hc        1 Z84      0.085333
     39 HAC         6.1160    2.3110    6.9250 hc        1 Z84      0.069500
     40 HACA        7.7400    2.3270    6.1080 hc        1 Z84      0.069500
     41 HACB        7.6270    2.5670    7.9040 hc        1 Z84      0.069500
     42 HAD         9.3010   -0.6440    1.6940 ha        1 Z84      0.120000
     43 HADA        7.6430   -0.9980    0.9440 ha        1 Z84      0.120000
     44 HADB        7.0470    3.8660    6.7770 hc        1 Z84      0.069500
     45 HAG         2.8370    8.0970   12.8830 hc        1 Z84      0.176000
     46 HAH         5.7040    9.9840   10.5420 ha        1 Z84      0.144000
     47 HAI         1.8360    9.0040   11.7060 hc        1 Z84      0.176000
     48 HAJ         1.6600    3.2420    0.1910 ha        1 Z84      0.230000
     49 HAK         1.6850   -2.4380    1.4500 ha        1 Z84      0.123000
     50 HAL         2.0360   -0.3130    2.3910 h1        1 Z84      0.111000
     51 HAM         3.6030   -0.6920   -0.2930 ha        1 Z84      0.151000
     52 HAN         1.5050    2.3010   11.0310 h4        1 Z84      0.187000
     53 HAO         5.9880    1.6680    4.7070 ha        1 Z84      0.189000
     54 HAP         2.8640    6.1740    8.6370 h1        1 Z84      0.083000
     55 HAPA        3.8890    5.2420    9.8340 h1        1 Z84      0.083000
     56 HAR         3.9380    8.2070    9.2520 h1        1 Z84      0.092500
     57 HARA        4.9890    7.2900   10.4360 h1        1 Z84      0.092500
     58 HNAW        1.0910    2.4550    5.6340 hn        1 Z84      0.215000
     59 CBI         7.6360    0.1850    2.7360 c2        1 Z84     -0.045000
     60 NAV         3.0700    1.6320    4.2190 ns        1 Z84     -0.293000
     61 CAQ         1.7280    4.9810   10.0850 c3        1 Z84     -0.092000
     62 HAF         5.4930   11.8630   12.1690 h4        1 Z84      0.153000
     63 HAQ         1.7550    4.7710   11.1870 hc        1 Z84      0.109000
     64 HAQA        0.7900    5.5630    9.8740 hc        1 Z84      0.109000
     65 HNAV        2.2320    1.7130    3.6840 hn        1 Z84      0.233000
@<TRIPOS>BOND
     1    1   25 1   
     2    1   35 1   
     3    2   36 1   
     4    2   37 1   
     5    2   38 1   
     6    2   59 1   
     7    3   39 1   
     8    3   40 1   
     9    3   41 1   
    10    3   44 1   
    11    4   42 1   
    12    4   43 1   
    13    4   59 1   
    14    5   24 1   
    15    6    8 1   
    16    6   18 1   
    17    6   62 1   
    18    7    9 1   
    19    7   18 1   
    20    8   26 1   
    21    8   46 1   
    22    9   26 1   
    23    9   45 1   
    24    9   47 1   
    25   10   12 1   
    26   10   48 1   
    27   11   13 1   
    28   11   25 1   
    29   11   49 1   
    30   12   28 1   
    31   13   28 1   
    32   13   51 1   
    33   14   23 1   
    34   14   27 1   
    35   14   52 1   
    36   15   29 1   
    37   15   30 1   
    38   15   53 1   
    39   16   22 1   
    40   16   54 1   
    41   16   55 1   
    42   16   61 1   
    43   17   22 1   
    44   17   26 1   
    45   17   56 1   
    46   17   57 1   
    47   19   27 1   
    48   19   31 1   
    49   20   30 1   
    50   20   32 1   
    51   21   24 1   
    52   21   31 1   
    53   21   58 1   
    54   23   31 1   
    55   24   60 1   
    56   25   33 1   
    57   25   34 1   
    58   27   61 1   
    59   28   32 1   
    60   28   50 1   
    61   29   32 1   
    62   29   60 1   
    63   30   59 1   
    64   60   65 1   
    65   61   63 1   
    66   61   64 1   
@<TRIPOS>SUBSTRUCTURE
     1 Z84         1 TEMP              0 ****  ****    0 ROOT
