@<TRIPOS>MOLECULE
Z84
   65    68     1     0     0
SMALL
bcc


@<TRIPOS>ATOM
      1 CAA         1.6320    1.7050   -0.9080 c3        1 Z84     -0.201000
      2 CAB         8.9750   -1.8930    4.2190 c3        1 Z84     -0.207000
      3 CAC         9.0270    0.1980    2.0600 c3        1 Z84     -0.214000
      4 CAD         8.6400   -1.2360    1.8110 c3        1 Z84     -0.150000
      5 OAE         5.8430    1.2920    6.6030 o         1 Z84     -0.377000
      6 CAF        -0.2960   11.1670   12.4570 c2        1 Z84      0.073000
      7 CAG         0.5160    9.6410   14.0070 c1        1 Z84     -0.011000
      8 CAH         0.1820   10.4160   11.3120 c2        1 Z84     -0.273000
      9 CAI         1.0540    8.7800   12.9210 c3        1 Z84     -0.265000
     10 CAJ         2.5120   -0.0250    0.8190 c2        1 Z84     -0.063000
     11 CAK         1.8190    2.0520    1.6250 c2        1 Z84     -0.289000
     12 CAL         2.6940   -0.0640    2.1620 c2        1 Z84     -0.248000
     13 CAM         2.4040    1.2870    2.7370 c1        1 Z84      0.065000
     14 CAN         5.2050    3.9260    9.8560 c2        1 Z84     -0.532000
     15 CAO         6.4690   -0.2480    4.2720 c2        1 Z84     -0.227000
     16 CAP         2.5400    6.4470    9.8880 c3        1 Z84     -0.014000
     17 CAR         1.3550    8.4300   10.3960 c3        1 Z84     -0.007000
     18 NAS        -0.1360   10.7980   13.7110 n2        1 Z84     -0.227000
     19 NAT         3.3290    3.9500    8.4540 n2        1 Z84     -0.170000
     20 NAU         5.5320   -1.8120    2.8590 n2        1 Z84     -0.090000
     21 NAW         3.9460    2.6050    6.5440 n         1 Z84     -0.289000
     22 OAX         2.0170    7.2840   10.9250 os        1 Z84     -0.288000
     23 SAY         5.7250    2.9490    8.6220 ss        1 Z84      0.645000
     24 CAZ         4.7460    1.5480    6.0510 c2        1 Z84      0.402000
     25 CBA         1.9420    1.3360    0.4690 c2        1 Z84      0.010000
     26 CBB         0.8420    9.2480   11.5300 c2        1 Z84     -0.006000
     27 CBC         3.9100    4.3880    9.6350 c2        1 Z84     -0.063000
     28 CBD         3.1560   -1.1920    3.0100 c3        1 Z84      0.056000
     29 CBE         5.0710   -0.0740    4.2720 c2        1 Z84      0.068000
     30 CBF         6.7090   -1.3560    3.3720 c2        1 Z84     -0.088000
     31 CBG         4.2150    3.1590    7.7980 c2        1 Z84     -0.172000
     32 NBH         4.5410   -1.1040    3.4310 na        1 Z84     -0.144000
     33 HAA         2.5690    1.7170   -1.5240 hc        1 Z84      0.108333
     34 HAAA        1.1560    2.7150   -0.9640 hc        1 Z84      0.108333
     35 HAAB        0.9340    0.9520   -1.3600 hc        1 Z84      0.108333
     36 HAB         8.5480   -2.4810    5.0660 hc        1 Z84      0.078667
     37 HABA        7.8960   -3.0210    2.7440 hc        1 Z84      0.101000
     38 HABB        9.1370   -0.8440    4.5640 hc        1 Z84      0.078667
     39 HAC         9.9630   -2.3310    3.9380 hc        1 Z84      0.078667
     40 HACA        9.2930    0.6980    1.0970 hc        1 Z84      0.074333
     41 HACB        9.9090    0.2590    2.7420 hc        1 Z84      0.074333
     42 HAD         9.5470   -1.8140    1.4880 hc        1 Z84      0.080000
     43 HADA        7.8970   -1.2820    0.9710 hc        1 Z84      0.080000
     44 HADB        8.1810    0.7570    2.5310 hc        1 Z84      0.074333
     45 HAG         2.1590    8.6400   13.1100 hc        1 Z84      0.178000
     46 HAH        -0.0030   10.8130   10.3050 ha        1 Z84      0.143000
     47 HAI         0.6070    7.7490   13.0470 hc        1 Z84      0.178000
     48 HAJ         2.7110   -0.7840    0.0620 ha        1 Z84      0.166000
     49 HAK         1.4170    3.0580    1.7430 ha        1 Z84      0.171000
     50 HAL         2.5290   -1.2100    3.9510 h1        1 Z84      0.119500
     51 HAM         3.0050   -2.1670    2.4610 h1        1 Z84      0.119500
     52 HAN         5.8020    4.1690   10.7330 h4        1 Z84      0.181000
     53 HAO         7.1960    0.3090    4.8530 ha        1 Z84      0.189000
     54 HAP         1.7070    6.1230    9.2100 h1        1 Z84      0.081000
     55 HAPA        3.3010    7.0200    9.2960 h1        1 Z84      0.081000
     56 HAR         0.5030    8.1030    9.7380 h1        1 Z84      0.090500
     57 HARA        2.0790    9.0320    9.7790 h1        1 Z84      0.090500
     58 HNAW        3.0330    2.7530    6.1710 hn        1 Z84      0.251000
     59 CBI         8.0400   -1.9350    3.0270 c3        1 Z84     -0.034000
     60 NAV         4.2620    0.8450    4.9410 n         1 Z84     -0.314000
     61 CAQ         3.1730    5.2560   10.5910 c3        1 Z84     -0.090000
     62 HAF        -0.8320   12.1170   12.2630 h4        1 Z84      0.152000
     63 HAQ         3.8810    5.6220   11.3820 hc        1 Z84      0.106500
     64 HAQA        2.3720    4.6580   11.1030 hc        1 Z84      0.106500
     65 HNAV        3.4500    1.1850    4.4340 hn        1 Z84      0.287000
@<TRIPOS>BOND
     1    1   25 1   
     2    1   33 1   
     3    1   34 1   
     4    1   35 1   
     5    2   36 1   
     6    2   38 1   
     7    2   39 1   
     8    2   59 1   
     9    3    4 1   
    10    3   40 1   
    11    3   41 1   
    12    3   44 1   
    13    4   42 1   
    14    4   43 1   
    15    4   59 1   
    16    5   24 1   
    17    6    8 1   
    18    6   18 1   
    19    6   62 1   
    20    7    9 1   
    21    7   18 1   
    22    8   26 1   
    23    8   46 1   
    24    9   26 1   
    25    9   45 1   
    26    9   47 1   
    27   10   12 1   
    28   10   25 1   
    29   10   48 1   
    30   11   13 1   
    31   11   25 1   
    32   11   49 1   
    33   12   13 1   
    34   12   28 1   
    35   14   23 1   
    36   14   27 1   
    37   14   52 1   
    38   15   29 1   
    39   15   30 1   
    40   15   53 1   
    41   16   22 1   
    42   16   54 1   
    43   16   55 1   
    44   16   61 1   
    45   17   22 1   
    46   17   26 1   
    47   17   56 1   
    48   17   57 1   
    49   19   27 1   
    50   19   31 1   
    51   20   30 1   
    52   20   32 1   
    53   21   24 1   
    54   21   31 1   
    55   21   58 1   
    56   23   31 1   
    57   24   60 1   
    58   27   61 1   
    59   28   32 1   
    60   28   50 1   
    61   28   51 1   
    62   29   32 1   
    63   29   60 1   
    64   30   59 1   
    65   37   59 1   
    66   60   65 1   
    67   61   63 1   
    68   61   64 1   
@<TRIPOS>SUBSTRUCTURE
     1 Z84         1 TEMP              0 ****  ****    0 ROOT
