@<TRIPOS>MOLECULE
Z85
   66    66     1     0     0
SMALL
bcc


@<TRIPOS>ATOM
      1 CAA         1.6820   -1.1020   -1.5030 c3        1 Z85     -0.166000
      2 CAB         7.5620   -0.0960    1.6670 c1        1 Z85     -0.073000
      3 CAC        10.9610   -0.8060    1.7560 c3        1 Z85     -0.288000
      4 CAD         8.2940    1.0480    3.6230 c2        1 Z85     -0.019000
      5 OAE         4.9100    1.6180    7.4420 o         1 Z85     -0.337000
      6 CAF         0.4470   11.1580   10.3550 c2        1 Z85     -0.519000
      7 CAG         0.2580   10.3580   11.5190 c1        1 Z85     -0.000000
      8 CAH         1.5880   11.4030    9.7170 c1        1 Z85      0.219000
      9 CAI         1.3790    9.5390   11.9820 c3        1 Z85     -0.214000
     10 CAJ         3.3730   10.6520   11.0070 c2        1 Z85     -0.193000
     11 CAK         2.5020   -0.2950    0.7730 c2        1 Z85     -0.132000
     12 CAL         0.2270   -0.1050    0.3880 c2        1 Z85     -0.121000
     13 CAM         1.8660    0.2900    1.9680 c2        1 Z85     -0.073000
     14 CAN         0.4190    0.3810    1.6470 c2        1 Z85     -0.169000
     15 CAO         3.7980    2.6100   11.6720 c2        1 Z85     -0.484000
     16 CAP         5.5680    0.6450    4.8780 c2        1 Z85     -0.211000
     17 CAQ         2.9410    5.9630   10.4870 c3        1 Z85     -0.015000
     18 CAS         2.9010    8.3230   10.3310 c3        1 Z85      0.008000
     19 NAT         2.6140    3.0780    9.7090 n2        1 Z85     -0.120000
     20 NAU         4.7780    0.5800    2.7100 n2        1 Z85     -0.053000
     21 NAW         2.8450    1.0280    8.3700 n         1 Z85     -0.249000
     22 OAX         2.6770    7.1910   11.1710 os        1 Z85     -0.286000
     23 SAY         4.0300    1.2120   10.8190 ss        1 Z85      0.620000
     24 CAZ         3.7520    1.1900    7.2710 c2        1 Z85      0.384000
     25 CBA         1.5320   -0.5310   -0.1640 c2        1 Z85     -0.094000
     26 CBB         2.5970    9.5580   11.1210 c2        1 Z85     -0.114000
     27 CBC         3.0180    3.5230   10.9560 c2        1 Z85     -0.068000
     28 CBD         2.3800    0.6890    3.1490 c2        1 Z85      0.029000
     29 CBE         4.1650    0.6960    4.9150 c2        1 Z85      0.062000
     30 CBF         5.9080    0.5780    3.4690 c2        1 Z85     -0.086000
     31 CBG         3.0920    1.8310    9.5070 c2        1 Z85     -0.222000
     32 NBH         3.7250    0.6750    3.5450 na        1 Z85     -0.099000
     33 HAA         2.7490   -1.3590   -1.7150 hc        1 Z85      0.085000
     34 HAAA        1.3330   -0.3720   -2.2780 hc        1 Z85      0.085000
     35 HAAB        1.0670   -2.0320   -1.6010 hc        1 Z85      0.085000
     36 HAB         7.8110   -2.3220    2.3190 ha        1 Z85      0.009000
     37 HABA        8.4500   -2.1350    2.1740 ha        1 Z85      0.009000
     38 HABB        6.7210   -0.4970    1.0840 ha        1 Z85      0.058000
     39 HAC        11.5830   -0.7720    0.8360 hc        1 Z85      0.071250
     40 HACA        9.9140   -0.5010    1.5130 hc        1 Z85      0.071250
     41 HACB       11.3870   -0.1120    2.5140 hc        1 Z85      0.071250
     42 HAD        10.9600   -1.8410    2.1630 hc        1 Z85      0.071250
     43 HADA        8.1570    1.5600    4.5860 ha        1 Z85      0.133000
     44 HADB        9.3240    0.9880    3.2350 ha        1 Z85      0.133000
     45 HAG         1.6290    9.8870   13.0270 hc        1 Z85      0.157000
     46 HAH         4.2530   10.6840   10.3500 ha        1 Z85      0.130500
     47 HAI         0.9920    8.4820   12.0890 hc        1 Z85      0.157000
     48 HAJ         3.2050   11.5590   11.6060 ha        1 Z85      0.130500
     49 HAK         3.5690   -0.4910    0.6850 ha        1 Z85      0.164000
     50 HAL        -0.7070   -0.1870   -0.1650 ha        1 Z85      0.145000
     51 HAM         1.7070    1.1090    3.9230 h4        1 Z85      0.148000
     52 HAN        -0.3190    0.7820    2.3380 ha        1 Z85      0.140000
     53 HAO         4.2070    2.8000   12.6630 h4        1 Z85      0.188000
     54 HAP         6.2470    0.6690    5.7250 ha        1 Z85      0.191000
     55 HAQ         2.2880    5.8890    9.5780 h1        1 Z85      0.082000
     56 HAQA        4.0180    5.9320   10.1760 h1        1 Z85      0.082000
     57 HAS         2.2180    8.2650    9.4380 h1        1 Z85      0.081500
     58 HASA        3.9670    8.3180    9.9760 h1        1 Z85      0.081500
     59 HNAW        1.8720    1.0130    8.1220 hn        1 Z85      0.216000
     60 CBI         7.2640    0.5090    2.9280 c2        1 Z85     -0.147000
     61 NAV         3.2900    0.7810    6.0010 n         1 Z85     -0.311000
     62 CAR         2.6260    4.8570   11.4830 c3        1 Z85     -0.093000
     63 HAF        -0.4820   11.6460    9.9840 ha        1 Z85      0.204000
     64 HAR         1.5260    4.8650   11.7120 hc        1 Z85      0.109000
     65 HARA        3.1730    5.0530   12.4430 hc        1 Z85      0.109000
     66 HNAV        2.4500    0.2490    5.9360 hn        1 Z85      0.236000
@<TRIPOS>BOND
     1    1   25 1   
     2    1   33 1   
     3    1   34 1   
     4    1   35 1   
     5    2   38 1   
     6    2   60 1   
     7    3   39 1   
     8    3   40 1   
     9    3   41 1   
    10    3   42 1   
    11    4   43 1   
    12    4   44 1   
    13    4   60 1   
    14    5   24 1   
    15    6    7 1   
    16    6    8 1   
    17    6   63 1   
    18    7    9 1   
    19    9   26 1   
    20    9   45 1   
    21    9   47 1   
    22   10   26 1   
    23   10   46 1   
    24   10   48 1   
    25   11   13 1   
    26   11   25 1   
    27   11   49 1   
    28   12   14 1   
    29   12   25 1   
    30   12   50 1   
    31   13   14 1   
    32   13   28 1   
    33   14   52 1   
    34   15   23 1   
    35   15   27 1   
    36   15   53 1   
    37   16   29 1   
    38   16   30 1   
    39   16   54 1   
    40   17   22 1   
    41   17   55 1   
    42   17   56 1   
    43   17   62 1   
    44   18   22 1   
    45   18   26 1   
    46   18   57 1   
    47   18   58 1   
    48   19   27 1   
    49   19   31 1   
    50   20   30 1   
    51   20   32 1   
    52   21   24 1   
    53   21   31 1   
    54   21   59 1   
    55   23   31 1   
    56   24   61 1   
    57   27   62 1   
    58   28   32 1   
    59   28   51 1   
    60   29   32 1   
    61   29   61 1   
    62   30   60 1   
    63   36   37 1   
    64   61   66 1   
    65   62   64 1   
    66   62   65 1   
@<TRIPOS>SUBSTRUCTURE
     1 Z85         1 TEMP              0 ****  ****    0 ROOT
