@<TRIPOS>MOLECULE
Z85
   66    59     1     0     0
SMALL
bcc


@<TRIPOS>ATOM
      1 CAA        -5.4070   -5.2910   -5.4180 c3        1 Z85     -0.182000
      2 CAB         2.8620   -4.9560   -5.1850 c3        1 Z85     -0.204333
      3 CAC         3.9050   -4.0640   -3.0960 c3        1 Z85     -0.204333
      4 CAD         3.7340   -2.5710   -5.0640 c3        1 Z85     -0.204333
      5 OAE         0.9640   -1.0630   -0.5210 o         1 Z85     -0.335000
      6 CAF         1.3480    7.5410    9.2170 c1        1 Z85     -0.125000
      7 CAG         1.9360    6.4290    8.6310 c1        1 Z85     -0.125000
      8 CAH         0.3120    8.2000    8.5710 c1        1 Z85     -0.125000
      9 CAI         1.4860    5.9760    7.3980 c1        1 Z85     -0.102000
     10 CAJ        -0.1350    7.7480    7.3430 c1        1 Z85     -0.125000
     11 CAK        -3.5150   -5.0860   -3.8910 c1        1 Z85     -0.124000
     12 CAL        -3.5430   -3.5420   -5.7530 c1        1 Z85     -0.125000
     13 CAM        -2.2990   -4.5360   -3.4610 c1        1 Z85     -0.152000
     14 CAN        -2.3350   -2.9960   -5.3250 c1        1 Z85     -0.125000
     15 CAO         0.8410    1.6600    3.1460 c1        1 Z85     -0.492000
     16 CAP         1.3630   -2.4220   -2.7380 c1        1 Z85     -0.203000
     17 CAQ        -0.8150    4.4430    4.0410 c3        1 Z85     -0.014000
     18 CAR        -1.1910    3.0010    4.2870 c3        1 Z85     -0.093000
     19 CAS         0.1470    6.2860    5.3160 c3        1 Z85      0.020000
     20 NAT        -1.3570    1.3460    2.0390 n2        1 Z85     -0.129000
     21 NAU         0.6290   -3.5990   -4.4470 n2        1 Z85     -0.063000
     22 NAV        -0.8120   -1.5220   -1.8770 n         1 Z85     -0.280000
     23 NAW        -1.0570   -0.1380    0.1650 n         1 Z85     -0.254000
     24 OAX        -0.8080    5.1520    5.2770 os        1 Z85     -0.285000
     25 SAY         0.9710    0.6460    2.0180 ss        1 Z85      0.622000
     26 CAZ        -0.2320   -0.9230   -0.7450 c2        1 Z85      0.369000
     27 CBA        -4.1350   -4.5930   -5.0300 c1        1 Z85     -0.065000
     28 CBB         0.4540    6.6330    6.7550 c1        1 Z85     -0.081000
     29 CBC        -0.5500    2.1050    3.1900 c2        1 Z85     -0.066000
     30 CBD        -1.7120   -3.4920   -4.1800 c1        1 Z85      0.050000
     31 CBE        -0.0020   -2.3030   -2.7740 c2        1 Z85      0.043000
     32 CBF         1.7410   -3.2290   -3.7810 c1        1 Z85     -0.091000
     33 CBG        -0.4570    0.4870    1.3520 c2        1 Z85     -0.215000
     34 NBH        -0.4550   -3.0250   -3.8230 n2        1 Z85     -0.113000
     35 CBI         3.0540   -3.6960   -4.2640 c2        1 Z85      0.020000
     36 HAA        -5.6280   -5.0720   -6.3400 hc        1 Z85      0.087333
     37 HAAA       -5.2890   -6.2470   -5.3320 hc        1 Z85      0.087333
     38 HAAB       -6.1590   -4.9860   -4.8100 hc        1 Z85      0.087333
     39 HAB         2.3860   -5.6340   -4.7040 hc        1 Z85      0.078889
     40 HABA        3.7430   -5.3030   -5.4530 hc        1 Z85      0.078889
     41 HABB        2.3500   -4.7030   -5.9880 hc        1 Z85      0.078889
     42 HAC         4.7350   -4.4600   -3.4110 hc        1 Z85      0.078889
     43 HACA        3.4300   -4.7080   -2.5370 hc        1 Z85      0.078889
     44 HACB        4.1010   -3.2640   -2.5740 hc        1 Z85      0.078889
     45 HAD         4.0240   -1.8500   -4.4420 hc        1 Z85      0.078889
     46 HADA        3.0890   -2.1980   -5.7260 hc        1 Z85      0.078889
     47 HADB        4.5170   -2.9310   -5.5370 hc        1 Z85      0.078889
     48 HAF         1.6730    7.8710   10.1120 ha        1 Z85      0.136000
     49 HAG         2.6850    5.9520    9.0970 ha        1 Z85      0.136000
     50 HAH        -0.1180    9.0120    8.9990 ha        1 Z85      0.136000
     51 HAI         1.9090    5.1760    6.9750 ha        1 Z85      0.150000
     52 HAJ        -0.8380    8.1950    6.9060 ha        1 Z85      0.136000
     53 HAK        -3.9400   -5.8420   -3.3710 ha        1 Z85      0.138000
     54 HAL        -3.9550   -3.2150   -6.5120 ha        1 Z85      0.136000
     55 HAM        -1.8580   -4.8870   -2.6520 ha        1 Z85      0.148000
     56 HAN        -1.9140   -2.2480   -5.8410 ha        1 Z85      0.136000
     57 HAO         1.5730    1.9650    3.7470 DU        1 Z85      0.189500
     58 HAP         1.9640   -2.0050   -2.0800 DU        1 Z85      0.189500
     59 HAQ        -1.4840    4.8640    3.4170 h1        1 Z85      0.077000
     60 HAQA        0.0510    4.4820    3.6500 h1        1 Z85      0.077000
     61 HAR        -0.8490    2.7140    5.2010 hc        1 Z85      0.109500
     62 HARA       -2.1900    2.9040    4.2560 hc        1 Z85      0.109500
     63 HAS         0.9690    6.0350    4.8590 h1        1 Z85      0.075500
     64 HASA       -0.2620    7.0890    4.8550 h1        1 Z85      0.075500
     65 HNAV       -1.6760   -1.2960   -2.1210 hn        1 Z85      0.230000
     66 HNAW       -1.9690   -0.0130   -0.0200 hn        1 Z85      0.216000
@<TRIPOS>BOND
     1    1   27 1   
     2    1   36 1   
     3    1   37 1   
     4    1   38 1   
     5    2   35 1   
     6    2   39 1   
     7    2   40 1   
     8    2   41 1   
     9    3   35 1   
    10    3   42 1   
    11    3   43 1   
    12    3   44 1   
    13    4   35 1   
    14    4   45 1   
    15    4   46 1   
    16    4   47 1   
    17    5   26 1   
    18    6    7 1   
    19    6   48 1   
    20    7   49 1   
    21    8   10 1   
    22    8   50 1   
    23    9   28 1   
    24    9   51 1   
    25   10   52 1   
    26   11   27 1   
    27   11   53 1   
    28   12   14 1   
    29   12   54 1   
    30   13   30 1   
    31   13   55 1   
    32   14   56 1   
    33   15   25 1   
    34   15   29 1   
    35   16   31 1   
    36   16   32 1   
    37   17   18 1   
    38   17   24 1   
    39   17   59 1   
    40   17   60 1   
    41   18   29 1   
    42   18   61 1   
    43   18   62 1   
    44   19   24 1   
    45   19   28 1   
    46   19   63 1   
    47   19   64 1   
    48   20   29 1   
    49   20   33 1   
    50   21   32 1   
    51   21   34 1   
    52   22   26 1   
    53   22   31 1   
    54   22   65 1   
    55   23   26 1   
    56   23   33 1   
    57   23   66 1   
    58   25   33 1   
    59   31   34 1   
@<TRIPOS>SUBSTRUCTURE
     1 Z85         1 TEMP              0 ****  ****    0 ROOT
