@<TRIPOS>MOLECULE
Z85
   66    67     1     0     0
SMALL
bcc


@<TRIPOS>ATOM
      1 CAA         2.4470   -1.4500   -1.6040 c3        1 Z85     -0.165000
      2 CAB         7.9090    1.3380    1.7590 c1        1 Z85     -0.023000
      3 CAC         8.1940   -0.9110    2.6880 c3        1 Z85     -0.186500
      4 CAD         8.6940    1.1470    4.0080 c3        1 Z85     -0.186500
      5 OAE         5.1340    1.7130    7.3850 o         1 Z85     -0.334000
      6 CAF         2.5850   10.2980   13.0110 c2        1 Z85     -0.515000
      7 CAG         1.2500    9.8850   12.7380 c1        1 Z85      0.002000
      8 CAH         3.5340   10.6060   12.1330 c1        1 Z85      0.224000
      9 CAI         0.8960    9.5370   11.3600 c3        1 Z85     -0.209000
     10 CAJ         2.5730   10.7900   10.0270 c2        1 Z85     -0.203000
     11 CAK         3.1240   -0.6460    0.7200 c2        1 Z85     -0.131000
     12 CAL         0.8490   -0.7650    0.3100 c2        1 Z85     -0.123000
     13 CAM         2.4010   -0.2170    1.9310 c2        1 Z85     -0.080000
     14 CAN         0.9600   -0.3180    1.5930 c2        1 Z85     -0.169000
     15 CAO         3.8070    2.8880   11.5080 c2        1 Z85     -0.483000
     16 CAP         5.9720    0.6010    4.9240 c2        1 Z85     -0.204000
     17 CAQ         2.6900    6.0240   10.0390 c3        1 Z85     -0.015000
     18 CAS         2.4480    8.3520    9.6990 c3        1 Z85      0.006000
     19 NAT         2.6430    3.0540    9.4860 n2        1 Z85     -0.119000
     20 NAU         5.2440    0.3220    2.7550 n2        1 Z85     -0.070000
     21 NAW         3.1420    0.9360    8.3360 ns        1 Z85     -0.249000
     22 OAX         2.2510    7.2640   10.6000 os        1 Z85     -0.287000
     23 SAY         4.2180    1.4580   10.7870 ss        1 Z85      0.619000
     24 CAZ         4.0450    1.1250    7.2380 c2        1 Z85      0.383000
     25 CBA         2.2050   -0.9730   -0.2420 c2        1 Z85     -0.097000
     26 CBB         1.9980    9.6180   10.3580 c2        1 Z85     -0.112000
     27 CBC         2.9550    3.6440   10.6980 c2        1 Z85     -0.068000
     28 CBD         2.8390    0.1960    3.1380 c2        1 Z85      0.035000
     29 CBE         4.5700    0.5010    4.9350 c2        1 Z85      0.059000
     30 CBF         6.3480    0.4870    3.5290 c2        1 Z85     -0.110000
     31 CBG         3.2600    1.8550    9.4040 c2        1 Z85     -0.223000
     32 NBH         4.1650    0.3520    3.5620 na        1 Z85     -0.099000
     33 HAA         3.5420   -1.5380   -1.8130 hc        1 Z85      0.084000
     34 HAAA        2.0000   -0.7430   -2.3490 hc        1 Z85      0.084000
     35 HAAB        1.9750   -2.4540   -1.7540 hc        1 Z85      0.084000
     36 HAB         6.6910    0.1500    0.2410 ha        1 Z85      0.014000
     37 HABA        7.3480    0.0300    0.1020 ha        1 Z85      0.014000
     38 HABB        7.1170    2.0810    1.5680 ha        1 Z85      0.044000
     39 HAC         7.5070   -1.3920    1.9510 hc        1 Z85      0.088500
     40 HACA        9.2260   -0.8960    2.2640 hc        1 Z85      0.088500
     41 HACB        8.1900   -1.5100    3.6290 hc        1 Z85      0.088500
     42 HAD         8.7630    0.4790    4.8990 hc        1 Z85      0.088500
     43 HADA        8.3160    2.1450    4.3330 hc        1 Z85      0.088500
     44 HADB        9.7110    1.2630    3.5610 hc        1 Z85      0.088500
     45 HAG         0.4810    8.4860   11.4050 hc        1 Z85      0.153000
     46 HAH         3.4180   10.8540    9.3290 ha        1 Z85      0.131000
     47 HAI         0.0400   10.2080   11.0590 hc        1 Z85      0.153000
     48 HAJ         2.1920   11.7560   10.3900 ha        1 Z85      0.131000
     49 HAK         4.2090   -0.6820    0.6350 ha        1 Z85      0.163000
     50 HAL        -0.0590   -0.9540   -0.2600 ha        1 Z85      0.145000
     51 HAM         2.0990    0.4810    3.9130 h4        1 Z85      0.147000
     52 HAN         0.1660   -0.0620    2.2910 ha        1 Z85      0.140000
     53 HAO         4.1590    3.2040   12.4890 h4        1 Z85      0.188000
     54 HAP         6.6250    0.7620    5.7770 ha        1 Z85      0.194000
     55 HAQ         2.1260    5.8160    9.0930 h1        1 Z85      0.081000
     56 HAQA        3.7880    6.0820    9.8130 h1        1 Z85      0.081000
     57 HAS         1.8340    8.1800    8.7710 h1        1 Z85      0.083500
     58 HASA        3.5340    8.4100    9.4120 h1        1 Z85      0.083500
     59 HNAW        2.1850    0.7790    8.0770 hn        1 Z85      0.215000
     60 CBI         7.7420    0.5210    2.9780 c3        1 Z85     -0.067000
     61 NAV         3.6680    0.5570    6.0010 ns        1 Z85     -0.312000
     62 CAR         2.4050    4.9670   11.0960 c3        1 Z85     -0.094000
     63 HAF         2.8180   10.3900   14.0960 ha        1 Z85      0.202000
     64 HAR         1.2950    4.8860   11.2500 hc        1 Z85      0.110000
     65 HARA        2.8610    5.2830   12.0720 hc        1 Z85      0.110000
     66 HNAV        2.9130   -0.0920    5.9750 hn        1 Z85      0.235000
@<TRIPOS>BOND
     1    1   25 1   
     2    1   33 1   
     3    1   34 1   
     4    1   35 1   
     5    2   38 1   
     6    2   60 1   
     7    3   39 1   
     8    3   40 1   
     9    3   41 1   
    10    3   60 1   
    11    4   42 1   
    12    4   43 1   
    13    4   44 1   
    14    4   60 1   
    15    5   24 1   
    16    6    7 1   
    17    6    8 1   
    18    6   63 1   
    19    7    9 1   
    20    9   26 1   
    21    9   45 1   
    22    9   47 1   
    23   10   26 1   
    24   10   46 1   
    25   10   48 1   
    26   11   13 1   
    27   11   25 1   
    28   11   49 1   
    29   12   14 1   
    30   12   25 1   
    31   12   50 1   
    32   13   14 1   
    33   13   28 1   
    34   14   52 1   
    35   15   23 1   
    36   15   27 1   
    37   15   53 1   
    38   16   29 1   
    39   16   30 1   
    40   16   54 1   
    41   17   22 1   
    42   17   55 1   
    43   17   56 1   
    44   17   62 1   
    45   18   22 1   
    46   18   26 1   
    47   18   57 1   
    48   18   58 1   
    49   19   27 1   
    50   19   31 1   
    51   20   30 1   
    52   20   32 1   
    53   21   24 1   
    54   21   31 1   
    55   21   59 1   
    56   23   31 1   
    57   24   61 1   
    58   27   62 1   
    59   28   32 1   
    60   28   51 1   
    61   29   32 1   
    62   29   61 1   
    63   30   60 1   
    64   36   37 1   
    65   61   66 1   
    66   62   64 1   
    67   62   65 1   
@<TRIPOS>SUBSTRUCTURE
     1 Z85         1 TEMP              0 ****  ****    0 ROOT
