@<TRIPOS>MOLECULE
Z85
   66    69     1     0     0
SMALL
bcc


@<TRIPOS>ATOM
      1 CAA        -6.2840    5.8670    1.2550 c3        1 Z85     -0.056800
      2 CAB        -5.7660   -2.2530   -3.0110 c3        1 Z85     -0.086433
      3 CAC        -6.2390   -3.3150   -0.8100 c3        1 Z85     -0.086433
      4 CAD        -4.0250   -3.6240   -1.8910 c3        1 Z85     -0.086433
      5 OAE        -1.0440   -1.0850    1.2370 o         1 Z85     -0.575100
      6 CAF        10.4820   -0.4340   -1.9680 ca        1 Z85     -0.130000
      7 CAG         9.9930    0.1730   -0.8130 ca        1 Z85     -0.132000
      8 CAH         9.6020   -1.0640   -2.8480 ca        1 Z85     -0.132000
      9 CAI         8.6260    0.1550   -0.5350 ca        1 Z85     -0.116500
     10 CAJ         8.2360   -1.0880   -2.5740 ca        1 Z85     -0.116500
     11 CAK        -6.1510    3.9250   -0.3130 ca        1 Z85     -0.122500
     12 CAL        -5.1790    3.7140    1.8830 ca        1 Z85     -0.122500
     13 CAM        -5.7650    2.6240   -0.6210 ca        1 Z85     -0.128500
     14 CAN        -4.7920    2.4090    1.5980 ca        1 Z85     -0.128500
     15 CAO         2.7390   -0.6590    3.5720 cc        1 Z85     -0.282400
     16 CAP        -3.2930   -1.1970   -0.5370 cc        1 Z85     -0.268300
     17 CAQ         4.6200   -0.1790    0.4920 c3        1 Z85      0.135400
     18 CAS         6.2700   -0.5010   -1.1700 c3        1 Z85      0.176700
     19 NAT         2.0460    0.7070    1.8040 nd        1 Z85     -0.650000
     20 NAU        -5.4400   -0.3550   -0.6330 nd        1 Z85     -0.498800
     21 NAW        -0.3740    0.9600    2.1560 n         1 Z85     -0.487400
     22 OAX         6.0180   -0.1670    0.1950 os        1 Z85     -0.429600
     23 SAY         1.1120   -0.5750    3.8550 ss        1 Z85      0.030700
     24 CAZ        -1.2110    0.1470    1.3210 c         1 Z85      0.744100
     25 CBA        -5.8590    4.4860    0.9350 ca        1 Z85     -0.073300
     26 CBB         7.7420   -0.4760   -1.4150 ca        1 Z85     -0.087300
     27 CBC         3.1020    0.0790    2.4420 cd        1 Z85      0.355600
     28 CBD        -5.0710    1.8530    0.3320 ca        1 Z85      0.005800
     29 CBE        -3.3050    0.0680    0.0790 cd        1 Z85      0.017300
     30 CBF        -4.6610   -1.4210   -0.9630 cc        1 Z85      0.334600
     31 CBG         0.9010    0.4390    2.4710 cc        1 Z85      0.442300
     32 NBH        -4.6690    0.5160    0.0480 na        1 Z85      0.129300
     33 HAA        -7.3230    5.8590    1.6730 hc        1 Z85      0.048033
     34 HAAA       -5.6060    6.3310    2.0130 hc        1 Z85      0.048033
     35 HAAB       -6.2820    6.5080    0.3390 hc        1 Z85      0.048033
     36 HAB        -6.6440   -1.5780   -2.8700 hc        1 Z85      0.039811
     37 HABA       -5.0050   -1.7270   -3.6350 hc        1 Z85      0.039811
     38 HABB       -6.1040   -3.1680   -3.5540 hc        1 Z85      0.039811
     39 HAC        -5.8260   -3.5790    0.1920 hc        1 Z85      0.039811
     40 HACA       -7.1130   -2.6340   -0.6700 hc        1 Z85      0.039811
     41 HACB       -6.5900   -4.2490   -1.3110 hc        1 Z85      0.039811
     42 HAD        -4.4070   -4.5310   -2.4180 hc        1 Z85      0.039811
     43 HADA       -3.2280   -3.1560   -2.5170 hc        1 Z85      0.039811
     44 HADB       -3.5790   -3.9380   -0.9170 hc        1 Z85      0.039811
     45 HAG        10.6840    0.6690   -0.1160 ha        1 Z85      0.130500
     46 HAH         9.9860   -1.5450   -3.7600 ha        1 Z85      0.130500
     47 HAI         8.2360    0.6300    0.3780 ha        1 Z85      0.139000
     48 HAJ         7.5440   -1.5890   -3.2670 ha        1 Z85      0.139000
     49 HAK        -6.6940    4.5190   -1.0640 ha        1 Z85      0.139000
     50 HAL        -4.9550    4.1390    2.8740 ha        1 Z85      0.139000
     51 HAM        -6.0140    2.2010   -1.6080 ha        1 Z85      0.150000
     52 HAN        -4.2940    1.8110    2.3780 ha        1 Z85      0.150000
     53 HAO         3.4400   -1.2240    4.1850 h4        1 Z85      0.186000
     54 HAP        -2.4430   -1.8640   -0.6380 ha        1 Z85      0.191000
     55 HAQ         4.2060   -1.2060    0.3100 h1        1 Z85      0.040700
     56 HAQA        4.0870    0.5580   -0.1650 h1        1 Z85      0.040700
     57 HAS         5.8520   -1.5220   -1.3860 h1        1 Z85      0.037700
     58 HASA        5.7580    0.2490   -1.8360 h1        1 Z85      0.037700
     59 HNAW       -0.3360    1.9310    1.9020 hn        1 Z85      0.302500
     60 CBI        -5.1680   -2.6430   -1.6640 c3        1 Z85     -0.074300
     61 NAV        -2.2500    0.8050    0.6220 n         1 Z85     -0.435100
     62 CAR         4.5020    0.2060    1.9590 c3        1 Z85     -0.108700
     63 HAF        11.5600   -0.4170   -2.1860 ha        1 Z85      0.130000
     64 HAR         5.1690   -0.4560    2.5730 hc        1 Z85      0.068200
     65 HARA        4.8560    1.2640    2.0950 hc        1 Z85      0.068200
     66 HNAV       -2.4460    1.7590    0.8400 hn        1 Z85      0.321500
@<TRIPOS>BOND
     1    1   25 1   
     2    1   33 1   
     3    1   34 1   
     4    1   35 1   
     5    2   36 1   
     6    2   37 1   
     7    2   38 1   
     8    2   60 1   
     9    3   39 1   
    10    3   40 1   
    11    3   41 1   
    12    3   60 1   
    13    4   42 1   
    14    4   43 1   
    15    4   44 1   
    16    4   60 1   
    17    5   24 2   
    18    6    7 ar  
    19    6    8 ar  
    20    6   63 1   
    21    7    9 ar  
    22    7   45 1   
    23    8   10 ar  
    24    8   46 1   
    25    9   26 ar  
    26    9   47 1   
    27   10   26 ar  
    28   10   48 1   
    29   11   13 ar  
    30   11   25 ar  
    31   11   49 1   
    32   12   14 ar  
    33   12   25 ar  
    34   12   50 1   
    35   13   28 ar  
    36   13   51 1   
    37   14   28 ar  
    38   14   52 1   
    39   15   23 1   
    40   15   27 2   
    41   15   53 1   
    42   16   29 2   
    43   16   30 1   
    44   16   54 1   
    45   17   22 1   
    46   17   55 1   
    47   17   56 1   
    48   17   62 1   
    49   18   22 1   
    50   18   26 1   
    51   18   57 1   
    52   18   58 1   
    53   19   27 1   
    54   19   31 2   
    55   20   30 2   
    56   20   32 1   
    57   21   24 1   
    58   21   31 1   
    59   21   59 1   
    60   23   31 1   
    61   24   61 1   
    62   27   62 1   
    63   28   32 1   
    64   29   32 1   
    65   29   61 1   
    66   30   60 1   
    67   61   66 1   
    68   62   64 1   
    69   62   65 1   
@<TRIPOS>SUBSTRUCTURE
     1 Z85         1 TEMP              0 ****  ****    0 ROOT
