@<TRIPOS>MOLECULE
Z86
   68    69     1     0     0
SMALL
bcc


@<TRIPOS>ATOM
      1 CAA        -0.4720   -0.1070   -0.4740 c3        1 Z86     -0.200000
      2 CAB         1.6240   -0.5000    0.8110 c3        1 Z86     -0.200000
      3 CAC         1.4310   -1.2960   -1.5320 c3        1 Z86     -0.200000
      4 CAG         3.6530   15.8970    1.6920 c2        1 Z86     -0.435000
      5 CAH         3.1200   14.8860    0.8060 c2        1 Z86     -0.102000
      6 CAI         3.3560   17.1770    1.7300 c1        1 Z86      0.162000
      7 CAJ         3.6830   13.6920    0.5640 c2        1 Z86     -0.100000
      8 CAK         6.0330   13.9460    1.2720 c2        1 Z86     -0.211000
      9 CAL         5.3040    4.5770   -3.8750 c1        1 Z86     -0.069000
     10 CAM         3.1880    5.3970   -4.5650 c2        1 Z86     -0.119000
     11 CAN         4.7410    3.3730   -3.2800 c3        1 Z86     -0.154000
     12 CAO         2.5410    4.2640   -3.9880 c2        1 Z86     -0.133000
     13 CAP         1.8220    7.8770    4.1300 c2        1 Z86     -0.542000
     14 CAQ         1.3430    2.3850   -0.2880 c2        1 Z86     -0.243000
     15 CAR         3.9970   10.7620    3.2720 c1        1 Z86      0.001000
     16 CAT         4.9780   11.7210    1.3810 c3        1 Z86      0.004000
     17 NAV         2.7080    8.5320    2.0600 n2        1 Z86     -0.160000
     18 NAW         2.3170    1.3740   -2.1260 n2        1 Z86     -0.073000
     19 NAX         2.1160    4.7520   -0.8540 n         1 Z86     -0.280000
     20 OAZ         3.7790   11.3380    2.1040 os        1 Z86     -0.169000
     21 SBA         1.6180    6.4820    3.2410 ss        1 Z86      0.553000
     22 CBB         4.5130    7.6620   -2.7090 c2        1 Z86      0.355000
     23 CBC         2.0410    5.2980    0.4430 c2        1 Z86      0.404000
     24 CBD         4.9380   13.1930    1.1030 c2        1 Z86     -0.090000
     25 CBE         4.4920    5.6800   -4.1960 c2        1 Z86     -0.066000
     26 CBF         2.4130    8.8800    3.3730 c2        1 Z86     -0.043000
     27 CBG         3.2480    3.3940   -3.1950 c2        1 Z86     -0.023000
     28 CBH         1.5700    1.1490   -1.0090 c2        1 Z86     -0.111000
     29 CBI         2.0060    3.3750   -1.0400 c2        1 Z86      0.081000
     30 CBJ         2.3340    7.2500    1.8420 c2        1 Z86     -0.109000
     31 NBK         2.6180    2.6810   -2.1390 na        1 Z86     -0.114000
     32 CBL         1.0490   -0.1830   -0.5660 c3        1 Z86      0.024000
     33 HAA        -0.7760    0.7090    0.2250 hc        1 Z86      0.074111
     34 HAAA       -0.9110    0.1010   -1.4780 hc        1 Z86      0.074111
     35 HAAB       -0.8790   -1.0760   -0.0970 hc        1 Z86      0.074111
     36 HAB         1.3630    0.3100    1.5340 hc        1 Z86      0.074111
     37 HABA        2.7350   -0.5850    0.7550 hc        1 Z86      0.074111
     38 HABB        1.2070   -1.4660    1.1840 hc        1 Z86      0.074111
     39 HAC         1.0210   -2.2690   -1.1670 hc        1 Z86      0.074111
     40 HACA        1.0170   -1.0930   -2.5480 hc        1 Z86      0.074111
     41 HACB        2.5410   -1.3830   -1.6100 hc        1 Z86      0.074111
     42 HAI         6.0650   15.0080    0.9960 ha        1 Z86      0.116500
     43 HAJ         3.1560   12.9680   -0.0880 ha        1 Z86      0.155000
     44 HAK         6.9710   13.5330    1.6660 ha        1 Z86      0.116500
     45 HAL         5.0650    2.4960   -3.9140 hc        1 Z86      0.156000
     46 HAM         2.5990    6.0930   -5.1770 ha        1 Z86      0.136000
     47 HAN         5.2230    3.2290   -2.2690 hc        1 Z86      0.156000
     48 HAO         1.4420    4.2210   -4.0580 ha        1 Z86      0.143000
     49 HAP         1.5300    7.9790    5.1710 h4        1 Z86      0.165000
     50 HAQ         0.8010    2.5290    0.6410 ha        1 Z86      0.186000
     51 HAR         6.3940   10.4210    3.8940 ha        1 Z86     -0.000500
     52 HARA        7.0630   10.4350    4.0110 ha        1 Z86     -0.000500
     53 HAT         5.8890   11.4280    1.9670 h1        1 Z86      0.132500
     54 HATA        4.9200   11.1350    0.4210 h1        1 Z86      0.132500
     55 HNAX        2.6210    5.2800   -1.5580 hn        1 Z86      0.298000
     56 NAY         2.5140    6.6060    0.6270 n         1 Z86     -0.287000
     57 HAG         4.4010   15.5280    2.4330 ha        1 Z86      0.200000
     58 HNAY        2.9980    7.0990   -0.1220 hn        1 Z86      0.331000
     59 CAU         4.9840    7.0650   -4.0600 c3        1 Z86     -0.188000
     60 OAE         1.5130    4.6750    1.4030 o         1 Z86     -0.416000
     61 CAS         2.7170   10.2490    3.8740 c3        1 Z86     -0.167000
     62 OAD         3.8540    6.9270   -1.9060 o         1 Z86     -0.590500
     63 OAF         4.8080    8.8590   -2.4670 o         1 Z86     -0.590500
     64 HAH         2.1590   15.1380    0.3240 ha        1 Z86      0.127000
     65 HAS         2.8610   10.2150    4.9860 hc        1 Z86      0.099500
     66 HASA        1.8390   10.9160    3.6520 hc        1 Z86      0.099500
     67 HAU         6.1020    7.1010   -4.0820 hc        1 Z86      0.093000
     68 HAUA        4.5910    7.7190   -4.8780 hc        1 Z86      0.093000
@<TRIPOS>BOND
     1    1   32 1   
     2    1   33 1   
     3    1   34 1   
     4    1   35 1   
     5    2   32 1   
     6    2   36 1   
     7    2   37 1   
     8    2   38 1   
     9    3   32 1   
    10    3   39 1   
    11    3   40 1   
    12    3   41 1   
    13    4    5 1   
    14    4    6 1   
    15    4   57 1   
    16    5    7 1   
    17    5   64 1   
    18    7   24 1   
    19    7   43 1   
    20    8   24 1   
    21    8   42 1   
    22    8   44 1   
    23    9   11 1   
    24    9   25 1   
    25   10   12 1   
    26   10   25 1   
    27   10   46 1   
    28   11   27 1   
    29   11   45 1   
    30   11   47 1   
    31   12   27 1   
    32   12   48 1   
    33   13   21 1   
    34   13   26 1   
    35   13   49 1   
    36   14   28 1   
    37   14   29 1   
    38   14   50 1   
    39   15   20 1   
    40   15   61 1   
    41   16   20 1   
    42   16   24 1   
    43   16   53 1   
    44   16   54 1   
    45   17   26 1   
    46   17   30 1   
    47   18   28 1   
    48   18   31 1   
    49   19   23 1   
    50   19   29 1   
    51   19   55 1   
    52   21   30 1   
    53   22   59 1   
    54   22   62 1   
    55   22   63 1   
    56   23   56 1   
    57   23   60 1   
    58   25   59 1   
    59   26   61 1   
    60   27   31 1   
    61   28   32 1   
    62   29   31 1   
    63   30   56 1   
    64   51   52 1   
    65   56   58 1   
    66   59   67 1   
    67   59   68 1   
    68   61   65 1   
    69   61   66 1   
@<TRIPOS>SUBSTRUCTURE
     1 Z86         1 TEMP              0 ****  ****    0 ROOT
