@<TRIPOS>MOLECULE
Z86
   68    71     1     0     0
SMALL
bcc


@<TRIPOS>ATOM
      1 CAA        -0.0220   -0.3990    0.0880 c3        1 Z86     -0.201333
      2 CAB         2.0950   -0.3130    1.3950 c3        1 Z86     -0.201333
      3 CAC         2.0490   -1.4160   -0.8280 c3        1 Z86     -0.201333
      4 CAG         4.7680   15.8860    3.9420 cu        1 Z86     -0.137000
      5 CAH         5.1350   15.8650    2.4920 cx        1 Z86     -0.173000
      6 CAI         5.3750   14.7800    3.5560 cu        1 Z86     -0.149000
      7 CAJ         4.3550   15.0920    1.4790 c2        1 Z86     -0.120000
      8 CAK         5.2350   13.4310    3.0030 c3        1 Z86     -0.043000
      9 CAL         5.2910    3.6740   -4.4390 c1        1 Z86     -0.102000
     10 CAM         3.2550    4.9250   -4.8020 c2        1 Z86     -0.037000
     11 CAN         4.6350    2.8360   -3.4430 c3        1 Z86     -0.171000
     12 CAO         2.5540    4.1280   -3.8390 c2        1 Z86     -0.175000
     13 CAP         1.3240    8.3220    3.7180 c2        1 Z86     -0.534000
     14 CAQ         1.4040    2.3390   -0.0610 c2        1 Z86     -0.220000
     15 CAR         2.9260   11.3820    2.6050 c1        1 Z86      0.000000
     16 CAT         3.9250   12.6540    0.9030 c3        1 Z86      0.037000
     17 NAV         1.9140    8.8520    1.5110 n2        1 Z86     -0.156000
     18 NAW         2.5360    1.2600   -1.7600 n2        1 Z86     -0.060000
     19 NAX         1.8280    4.7040   -0.9060 ns        1 Z86     -0.271000
     20 OAZ         2.7330   12.0680    1.4940 os        1 Z86     -0.179000
     21 SBA         1.3840    6.8080    3.0350 ss        1 Z86      0.605000
     22 CBB         5.0530    7.2550   -5.2230 c2        1 Z86      0.331000
     23 CBC         1.7710    5.3640    0.3390 c2        1 Z86      0.398000
     24 CBD         4.4570   13.7600    1.7210 c2        1 Z86     -0.165000
     25 CBE         4.6130    4.7930   -4.9830 c2        1 Z86     -0.113000
     26 CBF         1.6290    9.3120    2.7900 c2        1 Z86     -0.035000
     27 CBG         3.2210    3.1920   -3.0990 c2        1 Z86     -0.004000
     28 CBH         1.8180    1.0680   -0.6170 c2        1 Z86     -0.110000
     29 CBI         1.9240    3.3070   -0.9430 c2        1 Z86      0.048000
     30 CBJ         1.8240    7.5000    1.5010 c2        1 Z86     -0.146000
     31 NBK         2.6300    2.5840   -1.9560 na        1 Z86     -0.101000
     32 CBL         1.4950   -0.2600   -0.0060 c3        1 Z86      0.023000
     33 HAA        -0.4520    0.4410    0.6830 hc        1 Z86      0.075667
     34 HAAA       -0.4750   -0.3840   -0.9320 hc        1 Z86      0.075667
     35 HAAB       -0.2840   -1.3640    0.5830 hc        1 Z86      0.075667
     36 HAB         1.7080    0.5320    2.0140 hc        1 Z86      0.075667
     37 HABA        3.2070   -0.2360    1.3420 hc        1 Z86      0.075667
     38 HABB        1.8240   -1.2770    1.8890 hc        1 Z86      0.075667
     39 HAC         1.7830   -2.3850   -0.3400 hc        1 Z86      0.075667
     40 HACA        1.6200   -1.4060   -1.8580 hc        1 Z86      0.075667
     41 HACB        3.1600   -1.3470   -0.9020 hc        1 Z86      0.075667
     42 HAI         4.6450   12.7380    3.6600 hc        1 Z86      0.132000
     43 HAJ         3.8550   15.5720    0.6370 ha        1 Z86      0.145000
     44 HAK         6.2100   12.9410    2.7550 hc        1 Z86      0.132000
     45 HAL         4.6570    1.7770   -3.8380 hc        1 Z86      0.156500
     46 HAM         2.6940    5.7160   -5.3320 ha        1 Z86      0.180000
     47 HAN         5.2870    2.8430   -2.5210 hc        1 Z86      0.156500
     48 HAO         1.4860    4.3490   -3.6840 ha        1 Z86      0.136000
     49 HAP         1.0790    8.5080    4.7600 h4        1 Z86      0.173000
     50 HAQ         0.8390    2.5180    0.8480 ha        1 Z86      0.185000
     51 HAR         5.2940   10.6200    2.5950 ha        1 Z86      0.000000
     52 HARA        5.9380   10.4160    2.5240 ha        1 Z86      0.000000
     53 HAT         4.6930   11.8450    0.7770 h1        1 Z86      0.119500
     54 HATA        3.5520   13.0060   -0.0970 h1        1 Z86      0.119500
     55 HNAX        2.2390    5.1930   -1.6810 hn        1 Z86      0.256000
     56 NAY         2.0960    6.7340    0.3690 ns        1 Z86     -0.293000
     57 HAG         4.3610   16.5080    4.7110 ha        1 Z86      0.187000
     58 HNAY        2.3600    7.2180   -0.4650 hn        1 Z86      0.273000
     59 CAU         5.3530    5.8250   -5.7410 c3        1 Z86     -0.193000
     60 OAE         1.4010    4.7880    1.3910 o         1 Z86     -0.381000
     61 CAS         1.6430   10.7690    3.0920 c3        1 Z86     -0.168000
     62 OAD         3.9130    7.4970   -4.7250 o         1 Z86     -0.574000
     63 OAF         5.9640    8.1160   -5.3510 o         1 Z86     -0.574000
     64 HAH         5.8780   16.5700    2.0930 hc        1 Z86      0.127000
     65 HAS         1.6110   10.9210    4.2040 hc        1 Z86      0.104500
     66 HASA        0.7250   11.2430    2.6450 hc        1 Z86      0.104500
     67 HAU         6.4540    5.6390   -5.6860 hc        1 Z86      0.089500
     68 HAUA        5.0480    5.8060   -6.8200 hc        1 Z86      0.089500
@<TRIPOS>BOND
     1    1   32 1   
     2    1   33 1   
     3    1   34 1   
     4    1   35 1   
     5    2   32 1   
     6    2   36 1   
     7    2   37 1   
     8    2   38 1   
     9    3   32 1   
    10    3   39 1   
    11    3   40 1   
    12    3   41 1   
    13    4    5 1   
    14    4    6 1   
    15    4   57 1   
    16    5    6 1   
    17    5    7 1   
    18    5   64 1   
    19    6    8 1   
    20    7   24 1   
    21    7   43 1   
    22    8   24 1   
    23    8   42 1   
    24    8   44 1   
    25    9   11 1   
    26    9   25 1   
    27   10   12 1   
    28   10   25 1   
    29   10   46 1   
    30   11   27 1   
    31   11   45 1   
    32   11   47 1   
    33   12   27 1   
    34   12   48 1   
    35   13   21 1   
    36   13   26 1   
    37   13   49 1   
    38   14   28 1   
    39   14   29 1   
    40   14   50 1   
    41   15   20 1   
    42   15   61 1   
    43   16   20 1   
    44   16   24 1   
    45   16   53 1   
    46   16   54 1   
    47   17   26 1   
    48   17   30 1   
    49   18   28 1   
    50   18   31 1   
    51   19   23 1   
    52   19   29 1   
    53   19   55 1   
    54   21   30 1   
    55   22   59 1   
    56   22   62 1   
    57   22   63 1   
    58   23   56 1   
    59   23   60 1   
    60   25   59 1   
    61   26   61 1   
    62   27   31 1   
    63   28   32 1   
    64   29   31 1   
    65   30   56 1   
    66   51   52 1   
    67   56   58 1   
    68   59   67 1   
    69   59   68 1   
    70   61   65 1   
    71   61   66 1   
@<TRIPOS>SUBSTRUCTURE
     1 Z86         1 TEMP              0 ****  ****    0 ROOT
