@<TRIPOS>MOLECULE
Z86
   68    71     1     0     0
SMALL
bcc


@<TRIPOS>ATOM
      1 CAA        -5.2810    5.0350   -0.9890 c3        1 Z86     -0.083433
      2 CAB        -5.2430    5.0820    1.5000 c3        1 Z86     -0.083433
      3 CAC        -7.1440    4.0260    0.3040 c3        1 Z86     -0.083433
      4 CAG        11.6170   -1.9230    0.3930 ca        1 Z86     -0.134000
      5 CAH        10.9280   -1.2890   -0.6390 ca        1 Z86     -0.133500
      6 CAI        10.9270   -2.3540    1.5270 ca        1 Z86     -0.133500
      7 CAJ         9.5510   -1.0860   -0.5430 ca        1 Z86     -0.116500
      8 CAK         9.5530   -2.1520    1.6280 ca        1 Z86     -0.116500
      9 CAL        -5.4330   -2.4470    1.6850 ca        1 Z86     -0.136500
     10 CAM        -3.9900   -2.8260   -0.2120 ca        1 Z86     -0.136500
     11 CAN        -5.3470   -1.0710    1.4900 ca        1 Z86     -0.137000
     12 CAO        -3.9040   -1.4590   -0.4310 ca        1 Z86     -0.137000
     13 CAP         3.3840    2.4740   -1.6010 cc        1 Z86     -0.335400
     14 CAQ        -3.4270    2.8940    0.2890 cc        1 Z86     -0.280300
     15 CAR         5.5100   -0.2150   -0.1760 c3        1 Z86      0.136400
     16 CAT         7.3810   -1.3380    0.7310 c3        1 Z86      0.175700
     17 NAV         2.6990    0.3690   -0.8340 nd        1 Z86     -0.692000
     18 NAW        -5.4190    1.7270    0.2970 nd        1 Z86     -0.483800
     19 NAX        -1.9170    0.8450    0.3470 n         1 Z86     -0.411100
     20 OAZ         6.9170   -0.4490   -0.2830 os        1 Z86     -0.433600
     21 SBA         1.7560    2.7260   -1.4100 ss        1 Z86      0.045700
     22 CBB        -4.9410   -5.6590   -0.1630 c         1 Z86      0.920600
     23 CBC        -0.7930    1.4000   -0.2900 c         1 Z86      0.766100
     24 CBD         8.8570   -1.5170    0.5910 ca        1 Z86     -0.082300
     25 CBE        -4.7410   -3.3420    0.8590 ca        1 Z86      0.004700
     26 CBF         3.7460    1.1730   -1.2600 cd        1 Z86      0.363600
     27 CBG        -4.5600   -0.5640    0.4420 ca        1 Z86     -0.054200
     28 CBH        -4.8710    2.9770    0.2890 cc        1 Z86      0.302600
     29 CBI        -3.1480    1.5120    0.2900 cd        1 Z86     -0.001700
     30 CBJ         1.5500    1.0890   -0.8720 cc        1 Z86      0.497300
     31 NBK        -4.4120    0.8460    0.2460 na        1 Z86      0.165300
     32 CBL        -5.6390    4.2610    0.2770 c3        1 Z86     -0.070300
     33 HAA        -4.1800    5.2130   -1.0340 hc        1 Z86      0.036033
     34 HAAA       -5.5860    4.4570   -1.8930 hc        1 Z86      0.036033
     35 HAAB       -5.8080    6.0190   -0.9960 hc        1 Z86      0.036033
     36 HAB        -5.7720    6.0660    1.4860 hc        1 Z86      0.036033
     37 HABA       -5.5190    4.5400    2.4360 hc        1 Z86      0.036033
     38 HABB       -4.1420    5.2650    1.5040 hc        1 Z86      0.036033
     39 HAC        -7.4650    3.4370   -0.5870 hc        1 Z86      0.036033
     40 HACA       -7.4360    3.4680    1.2250 hc        1 Z86      0.036033
     41 HACB       -7.6780    5.0070    0.2950 hc        1 Z86      0.036033
     42 HAI        11.4680   -2.8550    2.3430 ha        1 Z86      0.127500
     43 HAJ         9.0020   -0.5850   -1.3560 ha        1 Z86      0.141000
     44 HAK         9.0100   -2.4910    2.5230 ha        1 Z86      0.141000
     45 HAL        -6.0590   -2.8360    2.5010 ha        1 Z86      0.168500
     46 HAM        -3.5000   -3.5500   -0.8960 ha        1 Z86      0.168500
     47 HAN        -5.9010   -0.3900    2.1540 ha        1 Z86      0.131000
     48 HAO        -3.3470   -1.0860   -1.3030 ha        1 Z86      0.131000
     49 HAP         4.0820    3.2350   -1.9440 h4        1 Z86      0.175000
     50 HAQ        -2.7100    3.7060    0.2660 ha        1 Z86      0.181000
     51 HAR         5.2940    0.3070    0.7930 h1        1 Z86      0.041700
     52 HARA        4.9590   -1.1920   -0.2020 h1        1 Z86      0.041700
     53 HAT         7.1340   -0.9120    1.7430 h1        1 Z86      0.038700
     54 HATA        6.8640   -2.3320    0.6200 h1        1 Z86      0.038700
     55 HNAX       -1.9700   -0.1510    0.4430 hn        1 Z86      0.334500
     56 NAY         0.3050    0.5480   -0.5510 n         1 Z86     -0.526400
     57 HAG        12.7020   -2.0830    0.3160 ha        1 Z86      0.126000
     58 HNAY        0.2850   -0.4050   -0.2540 hn        1 Z86      0.341500
     59 CAU        -4.7810   -4.7980    1.1170 c3        1 Z86     -0.187100
     60 OAE        -0.7130    2.6150   -0.5930 o         1 Z86     -0.613100
     61 CAS         5.1370    0.6570   -1.3630 c3        1 Z86     -0.105700
     62 OAD        -4.0100   -5.6310   -1.0170 o         1 Z86     -0.832300
     63 OAF        -5.9780   -6.3690   -0.2530 o         1 Z86     -0.832300
     64 HAH        11.4680   -0.9470   -1.5340 ha        1 Z86      0.127500
     65 HAS         5.8480    1.5230   -1.4280 hc        1 Z86      0.063200
     66 HASA        5.2430    0.0600   -2.3090 hc        1 Z86      0.063200
     67 HAU        -5.6150   -5.0490    1.8210 hc        1 Z86      0.044700
     68 HAUA       -3.8120   -5.1040    1.5940 hc        1 Z86      0.044700
@<TRIPOS>BOND
     1    1   32 1   
     2    1   33 1   
     3    1   34 1   
     4    1   35 1   
     5    2   32 1   
     6    2   36 1   
     7    2   37 1   
     8    2   38 1   
     9    3   32 1   
    10    3   39 1   
    11    3   40 1   
    12    3   41 1   
    13    4    5 ar  
    14    4    6 ar  
    15    4   57 1   
    16    5    7 ar  
    17    5   64 1   
    18    6    8 ar  
    19    6   42 1   
    20    7   24 ar  
    21    7   43 1   
    22    8   24 ar  
    23    8   44 1   
    24    9   11 ar  
    25    9   25 ar  
    26    9   45 1   
    27   10   12 ar  
    28   10   25 ar  
    29   10   46 1   
    30   11   27 ar  
    31   11   47 1   
    32   12   27 ar  
    33   12   48 1   
    34   13   21 1   
    35   13   26 2   
    36   13   49 1   
    37   14   28 1   
    38   14   29 2   
    39   14   50 1   
    40   15   20 1   
    41   15   51 1   
    42   15   52 1   
    43   15   61 1   
    44   16   20 1   
    45   16   24 1   
    46   16   53 1   
    47   16   54 1   
    48   17   26 1   
    49   17   30 2   
    50   18   28 2   
    51   18   31 1   
    52   19   23 1   
    53   19   29 1   
    54   19   55 1   
    55   21   30 1   
    56   22   59 1   
    57   22   62 1   
    58   22   63 1   
    59   23   56 1   
    60   23   60 2   
    61   25   59 1   
    62   26   61 1   
    63   27   31 1   
    64   28   32 1   
    65   29   31 1   
    66   30   56 1   
    67   56   58 1   
    68   59   67 1   
    69   59   68 1   
    70   61   65 1   
    71   61   66 1   
@<TRIPOS>SUBSTRUCTURE
     1 Z86         1 TEMP              0 ****  ****    0 ROOT
