@<TRIPOS>MOLECULE
Z87
   46    47     1     0     0
SMALL
bcc


@<TRIPOS>ATOM
      1 CAA         0.0220   -0.2150    0.2340 c3        1 Z87     -0.203000
      2 CAB         2.1920   -0.1840    1.4570 c3        1 Z87     -0.203000
      3 CAC         1.9840   -1.4300   -0.6800 c3        1 Z87     -0.203000
      4 OAE         1.7180    4.9480    1.1170 o         1 Z87     -0.366000
      5 CAL         4.4360    2.5230   -5.4700 c2        1 Z87     -0.182000
      6 CAM         3.9650    4.8330   -4.7710 c3        1 Z87     -0.181000
      7 CAN         3.8590    2.0320   -4.2580 c2        1 Z87     -0.003000
      8 CAO         3.3840    4.3130   -3.5510 c1        1 Z87     -0.168000
      9 CAP         1.4830    8.1620    3.5610 c2        1 Z87     -0.745000
     10 CAQ         1.6120    2.4050   -0.1490 c2        1 Z87     -0.236000
     11 NAV         2.1180    8.9680    0.7770 n2        1 Z87     -0.307000
     12 NAW         2.6020    1.1430   -1.8080 n2        1 Z87     -0.096000
     13 NAX         2.1160    4.6750   -1.1730 n         1 Z87     -0.294000
     14 SBA         1.6480    6.8530    2.4860 ss        1 Z87      0.447000
     15 CBC         2.0360    5.4380    0.0010 c2        1 Z87      0.398000
     16 CBE         4.5020    3.8530   -5.7460 c2        1 Z87     -0.055000
     17 CBF         2.4340    8.3250    4.4470 c1        1 Z87      0.268000
     18 CBG         3.3420    2.9120   -3.3160 c2        1 Z87     -0.021000
     19 CBH         1.9230    1.0740   -0.6350 c2        1 Z87     -0.072000
     20 CBI         2.1540    3.2830   -1.1060 c2        1 Z87      0.098000
     21 CBJ         2.0330    7.6900    0.9840 c2        1 Z87     -0.037000
     22 NBK         2.7860    2.4520   -2.0940 na        1 Z87     -0.102000
     23 CBL         1.5390   -0.1870    0.0780 c3        1 Z87      0.017000
     24 HAA        -0.4710   -0.2390   -0.7670 hc        1 Z87      0.078667
     25 HAAA       -0.3290    0.6900    0.7850 hc        1 Z87      0.078667
     26 HAAB       -0.2820   -1.1250    0.8060 hc        1 Z87      0.078667
     27 HAB         1.8780   -1.0920    2.0260 hc        1 Z87      0.078667
     28 HABA        1.8850    0.7250    2.0290 hc        1 Z87      0.078667
     29 HABB        3.3030   -0.1870    1.3600 hc        1 Z87      0.078667
     30 HAC         1.6760   -2.3430   -0.1150 hc        1 Z87      0.078667
     31 HACA        3.0940   -1.4420   -0.7980 hc        1 Z87      0.078667
     32 HACB        1.5140   -1.4620   -1.6920 hc        1 Z87      0.078667
     33 HAL         3.8460    0.9370   -4.1120 ha        1 Z87      0.169000
     34 HAM         3.1710    5.4700   -5.2700 hc        1 Z87      0.174000
     35 HAN         4.8300    1.7770   -6.1790 ha        1 Z87      0.146000
     36 HAO         4.7840    5.5530   -4.4660 hc        1 Z87      0.174000
     37 HAQ         1.0940    2.6740    0.7660 ha        1 Z87      0.194000
     38 HNAX        2.5230    5.0730   -2.0270 hn        1 Z87      0.298000
     39 HBF         1.9650    9.5370    1.5820 hn        1 Z87      0.169000
     40 CAU         5.0920    4.3830   -6.9910 c3        1 Z87     -0.198000
     41 NAY         2.2840    6.8190   -0.1020 n         1 Z87     -0.328000
     42 HAP         0.5510    8.7470    3.5390 h4        1 Z87      0.200000
     43 HAU         4.3290    4.9730   -7.5590 hc        1 Z87      0.096000
     44 HAUA        5.4650    3.5620   -7.6520 hc        1 Z87      0.096000
     45 HAUB        5.9500    5.0610   -6.7530 hc        1 Z87      0.096000
     46 HNAY        2.4740    7.2300   -0.9910 hn        1 Z87      0.250000
@<TRIPOS>BOND
     1    1   23 1   
     2    1   24 1   
     3    1   25 1   
     4    1   26 1   
     5    2   23 1   
     6    2   27 1   
     7    2   28 1   
     8    2   29 1   
     9    3   23 1   
    10    3   30 1   
    11    3   31 1   
    12    3   32 1   
    13    4   15 1   
    14    5    7 1   
    15    5   16 1   
    16    5   35 1   
    17    6    8 1   
    18    6   16 1   
    19    6   34 1   
    20    6   36 1   
    21    7   18 1   
    22    7   33 1   
    23    8   18 1   
    24    9   14 1   
    25    9   17 1   
    26    9   42 1   
    27   10   19 1   
    28   10   20 1   
    29   10   37 1   
    30   11   21 1   
    31   11   39 1   
    32   12   19 1   
    33   12   22 1   
    34   13   15 1   
    35   13   20 1   
    36   13   38 1   
    37   14   21 1   
    38   15   41 1   
    39   16   40 1   
    40   18   22 1   
    41   19   23 1   
    42   20   22 1   
    43   21   41 1   
    44   40   43 1   
    45   40   44 1   
    46   40   45 1   
    47   41   46 1   
@<TRIPOS>SUBSTRUCTURE
     1 Z87         1 TEMP              0 ****  ****    0 ROOT
