@<TRIPOS>MOLECULE
Z87
   46    47     1     0     0
SMALL
bcc


@<TRIPOS>ATOM
      1 CAA         0.0190   -0.2130    0.2340 c3        1 Z87     -0.203000
      2 CAB         2.1880   -0.1830    1.4580 c3        1 Z87     -0.203000
      3 CAC         1.9800   -1.4300   -0.6790 c3        1 Z87     -0.203000
      4 OAE         1.7170    4.9490    1.1160 o         1 Z87     -0.366000
      5 CAL         4.4390    2.5210   -5.4680 c2        1 Z87     -0.182000
      6 CAM         3.9700    4.8310   -4.7700 c3        1 Z87     -0.181000
      7 CAN         3.8610    2.0300   -4.2570 c2        1 Z87     -0.003000
      8 CAO         3.3870    4.3120   -3.5510 c1        1 Z87     -0.168000
      9 CAP         1.4780    8.1640    3.5580 c2        1 Z87     -0.745000
     10 CAQ         1.6110    2.4060   -0.1490 c2        1 Z87     -0.236000
     11 NAV         2.1170    8.9690    0.7750 n2        1 Z87     -0.307000
     12 NAW         2.6010    1.1430   -1.8080 n2        1 Z87     -0.096000
     13 NAX         2.1170    4.6760   -1.1740 ns        1 Z87     -0.294000
     14 SBA         1.6450    6.8540    2.4840 ss        1 Z87      0.447000
     15 CBC         2.0350    5.4390   -0.0010 c2        1 Z87      0.398000
     16 CBE         4.5070    3.8500   -5.7440 c2        1 Z87     -0.055000
     17 CBF         2.4290    8.3270    4.4450 c1        1 Z87      0.268000
     18 CBG         3.3440    2.9110   -3.3150 c2        1 Z87     -0.021000
     19 CBH         1.9210    1.0740   -0.6350 c2        1 Z87     -0.072000
     20 CBI         2.1540    3.2830   -1.1060 c2        1 Z87      0.098000
     21 CBJ         2.0330    7.6910    0.9820 c2        1 Z87     -0.037000
     22 NBK         2.7860    2.4520   -2.0930 na        1 Z87     -0.102000
     23 CBL         1.5360   -0.1860    0.0780 c3        1 Z87      0.017000
     24 HAA        -0.4730   -0.2370   -0.7670 hc        1 Z87      0.078667
     25 HAAA       -0.3310    0.6930    0.7840 hc        1 Z87      0.078667
     26 HAAB       -0.2860   -1.1230    0.8060 hc        1 Z87      0.078667
     27 HAB         1.8730   -1.0910    2.0260 hc        1 Z87      0.078667
     28 HABA        1.8820    0.7260    2.0290 hc        1 Z87      0.078667
     29 HABB        3.3000   -0.1880    1.3610 hc        1 Z87      0.078667
     30 HAC         1.6720   -2.3420   -0.1150 hc        1 Z87      0.078667
     31 HACA        3.0900   -1.4420   -0.7970 hc        1 Z87      0.078667
     32 HACB        1.5110   -1.4620   -1.6910 hc        1 Z87      0.078667
     33 HAL         3.8460    0.9350   -4.1110 ha        1 Z87      0.169000
     34 HAM         3.1770    5.4680   -5.2700 hc        1 Z87      0.174000
     35 HAN         4.8330    1.7740   -6.1770 ha        1 Z87      0.146000
     36 HAO         4.7890    5.5510   -4.4640 hc        1 Z87      0.174000
     37 HAQ         1.0920    2.6760    0.7650 ha        1 Z87      0.194000
     38 HNAX        2.5260    5.0730   -2.0270 hn        1 Z87      0.298000
     39 HBF         1.9640    9.5380    1.5790 hn        1 Z87      0.169000
     40 CAU         5.0990    4.3800   -6.9890 c3        1 Z87     -0.198000
     41 NAY         2.2840    6.8200   -0.1040 ns        1 Z87     -0.328000
     42 HAP         0.5470    8.7490    3.5340 h4        1 Z87      0.200000
     43 HAU         4.3370    4.9720   -7.5560 hc        1 Z87      0.096000
     44 HAUA        5.4710    3.5580   -7.6500 hc        1 Z87      0.096000
     45 HAUB        5.9580    5.0560   -6.7490 hc        1 Z87      0.096000
     46 HNAY        2.4750    7.2300   -0.9920 hn        1 Z87      0.250000
@<TRIPOS>BOND
     1    1   23 1   
     2    1   24 1   
     3    1   25 1   
     4    1   26 1   
     5    2   23 1   
     6    2   27 1   
     7    2   28 1   
     8    2   29 1   
     9    3   23 1   
    10    3   30 1   
    11    3   31 1   
    12    3   32 1   
    13    4   15 1   
    14    5    7 1   
    15    5   16 1   
    16    5   35 1   
    17    6    8 1   
    18    6   16 1   
    19    6   34 1   
    20    6   36 1   
    21    7   18 1   
    22    7   33 1   
    23    8   18 1   
    24    9   14 1   
    25    9   17 1   
    26    9   42 1   
    27   10   19 1   
    28   10   20 1   
    29   10   37 1   
    30   11   21 1   
    31   11   39 1   
    32   12   19 1   
    33   12   22 1   
    34   13   15 1   
    35   13   20 1   
    36   13   38 1   
    37   14   21 1   
    38   15   41 1   
    39   16   40 1   
    40   18   22 1   
    41   19   23 1   
    42   20   22 1   
    43   21   41 1   
    44   40   43 1   
    45   40   44 1   
    46   40   45 1   
    47   41   46 1   
@<TRIPOS>SUBSTRUCTURE
     1 Z87         1 TEMP              0 ****  ****    0 ROOT
