@<TRIPOS>MOLECULE
Z87
   46    48     1     0     0
SMALL
bcc


@<TRIPOS>ATOM
      1 CAA        -1.2980    4.5240   -1.5480 c3        1 Z87     -0.085100
      2 CAB        -0.8880    4.6560    0.9050 c3        1 Z87     -0.085100
      3 CAC        -3.1990    4.3730    0.0420 c3        1 Z87     -0.085100
      4 OAE         2.2720    0.7060    0.2540 o         1 Z87     -0.576100
      5 CAL        -4.1980   -2.3390    1.1060 ca        1 Z87     -0.123500
      6 CAM        -3.0930   -2.9860   -0.9370 ca        1 Z87     -0.123500
      7 CAN        -3.5130   -1.1290    1.1080 ca        1 Z87     -0.128000
      8 CAO        -2.4040   -1.7780   -0.9590 ca        1 Z87     -0.128000
      9 CAP         6.2290   -1.2760    0.8360 cc        1 Z87     -0.285400
     10 CAQ        -0.2290    1.8900   -0.3390 cc        1 Z87     -0.272300
     11 NAV         4.6280   -2.0130   -0.7000 nd        1 Z87     -0.656000
     12 NAW        -2.4780    1.5890    0.0910 nd        1 Z87     -0.491800
     13 NAX         0.4070   -0.5690   -0.3030 n         1 Z87     -0.427100
     14 SBA         4.8250   -0.9270    1.6450 ss        1 Z87      0.031700
     15 CBC         1.7500   -0.4170    0.1240 c         1 Z87      0.744100
     16 CBE        -3.9930   -3.2820    0.0930 ca        1 Z87     -0.072300
     17 CBF         5.9600   -1.8570   -0.4010 cd        1 Z87      0.342200
     18 CBG        -2.5940   -0.8430    0.0780 ca        1 Z87      0.004800
     19 CBH        -1.5200    2.5250   -0.1400 cc        1 Z87      0.332600
     20 CBI        -0.4760    0.5120   -0.2060 cd        1 Z87      0.015300
     21 CBJ         3.8850   -1.5500    0.3340 cc        1 Z87      0.439300
     22 NBK        -1.8710    0.3850    0.1010 na        1 Z87      0.123300
     23 CBL        -1.7380    4.0060   -0.1820 c3        1 Z87     -0.076300
     24 HAA        -0.2300    4.2640   -1.7370 hc        1 Z87      0.039256
     25 HAAA       -1.9250    4.0740   -2.3540 hc        1 Z87      0.039256
     26 HAAB       -1.4100    5.6350   -1.5850 hc        1 Z87      0.039256
     27 HAB        -1.0000    5.7660    0.8590 hc        1 Z87      0.039256
     28 HABA       -1.2130    4.3040    1.9130 hc        1 Z87      0.039256
     29 HABB        0.1880    4.3960    0.7640 hc        1 Z87      0.039256
     30 HAC        -3.8440    3.9140   -0.7450 hc        1 Z87      0.039256
     31 HACA       -3.5440    4.0180    1.0420 hc        1 Z87      0.039256
     32 HACB       -3.3170    5.4830   -0.0030 hc        1 Z87      0.039256
     33 HAL        -4.9130   -2.5560    1.9150 ha        1 Z87      0.139000
     34 HAM        -2.9340   -3.7130   -1.7480 ha        1 Z87      0.139000
     35 HAN        -3.6960   -0.3950    1.9090 ha        1 Z87      0.152500
     36 HAO        -1.7350   -1.5520   -1.8050 ha        1 Z87      0.152500
     37 HAQ         0.7260    2.3720   -0.5220 ha        1 Z87      0.192000
     38 HNAX       -0.0100   -1.4740   -0.2240 hn        1 Z87      0.316500
     39 HBF         6.7050   -2.1840   -1.1350 h4        1 Z87      0.047100
     40 CAU        -4.7350   -4.5620    0.0980 c3        1 Z87     -0.056800
     41 NAY         2.4780   -1.6150    0.4220 n         1 Z87     -0.487400
     42 HAP         7.2260   -1.0690    1.2190 h4        1 Z87      0.184000
     43 HAU        -5.7200   -4.4330   -0.4200 hc        1 Z87      0.048033
     44 HAUA       -4.1630   -5.3620   -0.4350 hc        1 Z87      0.048033
     45 HAUB       -4.9340   -4.9050    1.1430 hc        1 Z87      0.048033
     46 HNAY        2.1070   -2.4550    0.0150 hn        1 Z87      0.304500
@<TRIPOS>BOND
     1    1   23 1   
     2    1   24 1   
     3    1   25 1   
     4    1   26 1   
     5    2   23 1   
     6    2   27 1   
     7    2   28 1   
     8    2   29 1   
     9    3   23 1   
    10    3   30 1   
    11    3   31 1   
    12    3   32 1   
    13    4   15 2   
    14    5    7 ar  
    15    5   16 ar  
    16    5   33 1   
    17    6    8 ar  
    18    6   16 ar  
    19    6   34 1   
    20    7   18 ar  
    21    7   35 1   
    22    8   18 ar  
    23    8   36 1   
    24    9   14 1   
    25    9   17 2   
    26    9   42 1   
    27   10   19 1   
    28   10   20 2   
    29   10   37 1   
    30   11   17 1   
    31   11   21 2   
    32   12   19 2   
    33   12   22 1   
    34   13   15 1   
    35   13   20 1   
    36   13   38 1   
    37   14   21 1   
    38   15   41 1   
    39   16   40 1   
    40   17   39 1   
    41   18   22 1   
    42   19   23 1   
    43   20   22 1   
    44   21   41 1   
    45   40   43 1   
    46   40   44 1   
    47   40   45 1   
    48   41   46 1   
@<TRIPOS>SUBSTRUCTURE
     1 Z87         1 TEMP              0 ****  ****    0 ROOT
