@<TRIPOS>MOLECULE
Z88
   22    22     1     0     0
SMALL
bcc


@<TRIPOS>ATOM
      1 CAA        -4.0060    2.5400    1.0650 c3        1 Z88     -0.177100
      2 OAB        -2.5980    1.9670   -0.8030 o         1 Z88     -0.579100
      3 OAC        -2.6380   -2.1360    0.7000 o         1 Z88     -0.639300
      4 OAD        -2.8090   -1.1060   -1.4540 o         1 Z88     -0.639300
      5 CAF         1.2060    0.4820   -0.9690 ca        1 Z88     -0.137000
      6 CAG         1.4560   -1.0350    0.9010 ca        1 Z88     -0.137000
      7 CAH        -0.1630    0.2240   -0.9850 ca        1 Z88     -0.006500
      8 CAI         0.0880   -1.2840    0.8740 ca        1 Z88     -0.006500
      9 NAJ        -3.0900    0.2670    0.6430 n         1 Z88     -0.678300
     10 CAK        -3.1840    1.5960    0.2270 c         1 Z88      0.693100
     11 CAL         2.0200   -0.1470   -0.0230 ca        1 Z88      0.038100
     12 CAM        -0.7420   -0.6600   -0.0670 ca        1 Z88     -0.387500
     13 SAN        -2.3810   -1.0170   -0.1250 sy        1 Z88      1.511900
     14 HAA        -3.9720    3.5570    0.6040 hc        1 Z88      0.074367
     15 HAAA       -5.0680    2.1950    1.1070 hc        1 Z88      0.074367
     16 HAAB       -3.5990    2.5960    2.1040 hc        1 Z88      0.074367
     17 HAF         1.6360    1.1810   -1.7040 ha        1 Z88      0.157500
     18 HAG         2.0880   -1.5410    1.6490 ha        1 Z88      0.157500
     19 HAH        -0.8070    0.7300   -1.7310 ha        1 Z88      0.170500
     20 HAI        -0.3520   -1.9980    1.5950 ha        1 Z88      0.170500
     21 HNAJ       -3.5450    0.0840    1.5120 hn        1 Z88      0.335500
     22 BRAE        3.8600    0.1940    0.0110 br        1 Z88     -0.069100
@<TRIPOS>BOND
     1    1   10 1   
     2    1   14 1   
     3    1   15 1   
     4    1   16 1   
     5    2   10 2   
     6    3   13 2   
     7    4   13 2   
     8    5    7 ar  
     9    5   11 ar  
    10    5   17 1   
    11    6    8 ar  
    12    6   11 ar  
    13    6   18 1   
    14    7   12 ar  
    15    7   19 1   
    16    8   12 ar  
    17    8   20 1   
    18    9   10 1   
    19    9   13 1   
    20    9   21 1   
    21   11   22 1   
    22   12   13 1   
@<TRIPOS>SUBSTRUCTURE
     1 Z88         1 TEMP              0 ****  ****    0 ROOT
