@<TRIPOS>MOLECULE
Z88
   23    20     1     0     0
SMALL
bcc


@<TRIPOS>ATOM
      1 CAA         0.0200    0.2500    0.6440 c3        1 Z88     -0.187100
      2 OAB         1.4830   -1.6680    0.8610 o         1 Z88     -0.542100
      3 OAC         3.9370    0.6760   -2.1920 o         1 Z88     -0.438400
      4 OAD         3.6390    0.9810    0.1460 o         1 Z88     -0.438400
      5 CAF         5.1900   -3.2240    0.5340 ce        1 Z88     -0.235000
      6 CAG         6.6600   -3.7040   -3.6660 c1        1 Z88     -0.001500
      7 CAH         4.5580   -1.9500    0.4690 ce        1 Z88      0.267000
      8 CAI         6.1750   -3.3880   -2.6550 c1        1 Z88     -0.001500
      9 NAJ         1.6270   -0.5570   -1.1280 nt        1 Z88     -0.727000
     10 CAK         1.0420   -0.7360    0.1750 c         1 Z88      0.632100
     11 CAL         5.2630   -4.0040    1.6370 c2        1 Z88      0.038700
     12 CAM         4.5130   -1.1940   -0.6800 c2        1 Z88     -0.799300
     13 SAN         3.9290    0.1960   -0.9230 s4        1 Z88      1.692100
     14 HAA        -0.3610   -0.0660    1.6480 hc        1 Z88      0.098367
     15 HAAA       -0.8390    0.3030   -0.0700 hc        1 Z88      0.098367
     16 HAAB        0.4810    1.2670    0.7380 hc        1 Z88      0.098367
     17 HAF         4.0680   -1.5610    1.3920 ha        1 Z88      0.174000
     18 HAG         5.7780   -4.9820    1.5680 h4        1 Z88      0.191000
     19 HAH         5.6570   -3.6000   -0.4040 ha        1 Z88      0.180000
     20 HAI         4.9930   -1.7050   -1.5620 h4        1 Z88      0.247000
     21 HNAJ        1.7300   -1.4300   -1.6170 hn        1 Z88      0.307000
     22 HAJ2        1.1170    0.1010   -1.6920 hn        1 Z88      0.307000
     23 BrAE        4.6060   -3.6600    3.3190 br        1 Z88      0.040300
@<TRIPOS>BOND
     1    1   10 1   
     2    1   14 1   
     3    1   15 1   
     4    1   16 1   
     5    2   10 2   
     6    3   13 1   
     7    4   13 1   
     8    5    7 1   
     9    5   11 2   
    10    5   19 1   
    11    6    8 1   
    12    7   12 2   
    13    7   17 1   
    14    9   10 1   
    15    9   21 1   
    16    9   22 1   
    17   11   18 1   
    18   11   23 1   
    19   12   13 1   
    20   12   20 1   
@<TRIPOS>SUBSTRUCTURE
     1 Z88         1 TEMP              0 ****  ****    0 ROOT
