@<TRIPOS>MOLECULE
Z88
   22    21     1     0     0
SMALL
bcc


@<TRIPOS>ATOM
      1 CAA        -0.2710    0.3820   -1.1860 c3        1 Z88     -0.245000
      2 OAB         1.0620   -0.6060    0.5590 o         1 Z88     -0.352000
      3 OAC         4.3980    1.8160   -0.8860 o         1 Z88     -0.926000
      4 OAD         3.4730    1.4150    1.2810 o         1 Z88     -0.926000
      5 CAF         5.5040   -4.6440    0.7370 c1        1 Z88      0.304000
      6 CAG         5.5120   -6.0300    1.1580 c2        1 Z88     -0.698000
      7 CAH         3.8780   -1.5810    0.6780 c2        1 Z88      0.020000
      8 CAI         4.8990   -7.0230    1.7270 c1        1 Z88      0.396000
      9 NAJ         2.1290    0.9000   -0.7900 n         1 Z88     -0.852000
     10 CAK         1.0000    0.1790   -0.4030 c2        1 Z88      0.338000
     11 CAL         6.7140   -5.4630    0.4770 c3        1 Z88     -0.244000
     12 CAM         4.1950   -0.5560   -0.1160 c2        1 Z88     -0.967000
     13 SAN         3.6130    0.9920   -0.0490 s6        1 Z88      2.848000
     14 HAA        -0.1150    0.1210   -2.2600 hc        1 Z88      0.112333
     15 HAAA       -1.0670   -0.2780   -0.7610 hc        1 Z88      0.112333
     16 HAAB       -0.6040    1.4460   -1.1120 hc        1 Z88      0.112333
     17 HAF         3.1030   -1.4940    1.4610 ha        1 Z88      0.145500
     18 HAG         7.6290   -5.3280    1.0910 h1        1 Z88      0.178000
     19 HAH         4.3620   -2.5700    0.5980 ha        1 Z88      0.145500
     20 HAI         4.9700   -0.7240   -0.8910 h4        1 Z88      0.183000
     21 HNAJ        1.9950    1.4500   -1.6110 hn        1 Z88      0.247000
     22 BRAE        7.2070   -6.0340   -1.2540 br        1 Z88      0.068000
@<TRIPOS>BOND
     1    1   10 1   
     2    1   14 1   
     3    1   15 1   
     4    1   16 1   
     5    2   10 1   
     6    3   13 1   
     7    4   13 1   
     8    5    6 1   
     9    5   11 1   
    10    6    8 1   
    11    6   11 1   
    12    7   12 1   
    13    7   17 1   
    14    7   19 1   
    15    9   10 1   
    16    9   13 1   
    17    9   21 1   
    18   11   18 1   
    19   11   22 1   
    20   12   13 1   
    21   12   20 1   
@<TRIPOS>SUBSTRUCTURE
     1 Z88         1 TEMP              0 ****  ****    0 ROOT
