@<TRIPOS>MOLECULE
Z89
   33    35     1     0     0
SMALL
bcc


@<TRIPOS>ATOM
      1 C          -4.1720    1.6680   -1.4070 c         1 Z89      0.920600
      2 N          -2.3770   -0.0300   -0.7620 n         1 Z89     -0.332400
      3 OXT        -4.2180    1.2870   -2.6080 o         1 Z89     -0.830800
      4 CA         -2.8840    1.3320   -0.5750 c3        1 Z89     -0.024300
      5 CB         -3.0260    1.6850    0.9040 c3        1 Z89     -0.187400
      6 CG         -1.7350    1.5570    1.7060 c         1 Z89      0.900600
      7 CAA         3.0440   -2.1150    0.2690 ca        1 Z89      0.033600
      8 CAB         1.9320   -1.2010    0.1710 ca        1 Z89     -0.056800
      9 CAC         2.1240    0.1470    0.4250 ca        1 Z89     -0.003000
     10 CAD         3.4310    0.5960    0.6900 ca        1 Z89     -0.053900
     11 BRAE        3.7460    2.4230    0.9920 br        1 Z89     -0.120100
     12 CAF         4.5100   -0.2850    0.7400 ca        1 Z89     -0.102000
     13 CAG         4.3290   -1.6580    0.5460 ca        1 Z89     -0.198000
     14 CAH         0.7300   -1.9910   -0.1110 cc        1 Z89     -0.119400
     15 CAI         1.1830   -3.4250   -0.0670 c         1 Z89      0.694700
     16 NAJ         2.6040   -3.4320    0.0480 n         1 Z89     -0.475100
     17 OAK         0.5380   -4.4790   -0.1630 o         1 Z89     -0.627500
     18 CAL        -0.5360   -1.6110   -0.3780 cd        1 Z89      0.039400
     19 CAM        -0.9380   -0.1930   -0.7440 c         1 Z89      0.753700
     20 CAW        -3.0720   -1.1730   -0.5390 c         1 Z89      0.448000
     21 SAX        -4.5330   -1.6560   -0.3990 s         1 Z89     -0.368400
     22 SAY        -1.9220   -2.5550   -0.3960 ss        1 Z89     -0.160200
     23 OAZ        -0.1690    0.6370   -1.2370 o         1 Z89     -0.579500
     24 OD1        -1.6210    2.2080    2.7820 o         1 Z89     -0.854800
     25 OD2        -0.7900    0.7860    1.3090 o         1 Z89     -0.854800
     26 O          -5.0460    2.3880   -0.8530 o         1 Z89     -0.830800
     27 HA         -2.0810    2.0010   -1.0170 h1        1 Z89      0.076700
     28 HB         -3.3930    2.7430    0.9550 hc        1 Z89      0.062700
     29 HBA        -3.8080    1.0430    1.3830 hc        1 Z89      0.062700
     30 HAG         5.1810   -2.3460    0.6140 ha        1 Z89      0.115000
     31 HNAJ        3.1090   -4.2160    0.3680 hn        1 Z89      0.307500
     32 HAC         1.2470    0.8370    0.4500 ha        1 Z89      0.245000
     33 HAF         5.5240    0.0880    0.9480 ha        1 Z89      0.119000
@<TRIPOS>BOND
     1    1    3 1   
     2    1    4 1   
     3    1   26 1   
     4    2    4 1   
     5    2   19 1   
     6    2   20 1   
     7    4    5 1   
     8    4   27 1   
     9    5    6 1   
    10    5   28 1   
    11    5   29 1   
    12    6   24 1   
    13    6   25 1   
    14    7    8 ar  
    15    7   13 ar  
    16    7   16 1   
    17    8    9 ar  
    18    8   14 1   
    19    9   10 ar  
    20    9   32 1   
    21   10   11 1   
    22   10   12 ar  
    23   12   13 ar  
    24   12   33 1   
    25   13   30 1   
    26   14   15 1   
    27   14   18 2   
    28   15   16 1   
    29   15   17 2   
    30   16   31 1   
    31   18   19 1   
    32   18   22 1   
    33   19   23 2   
    34   20   21 2   
    35   20   22 1   
@<TRIPOS>SUBSTRUCTURE
     1 Z89         1 TEMP              0 ****  ****    0 ROOT
