@<TRIPOS>MOLECULE
Z89
   33    35     1     0     0
SMALL
bcc


@<TRIPOS>ATOM
      1 C          -0.2270   -0.2310    0.7500 c         1 Z89      0.920600
      2 N           1.4680   -1.4230   -0.7440 n         1 Z89     -0.332400
      3 OXT        -1.2220   -0.7290    0.1560 o         1 Z89     -0.830800
      4 CA          1.1440   -0.1930   -0.0150 c3        1 Z89     -0.024300
      5 CB          2.3020    0.2620    0.8690 c3        1 Z89     -0.187400
      6 CG          3.6080    0.5000    0.1190 c         1 Z89      0.900600
      7 CAA         5.2090   -2.1540   -5.2460 ca        1 Z89      0.033600
      8 CAB         4.4480   -1.5210   -4.1970 ca        1 Z89     -0.056800
      9 CAC         4.5010   -0.1450   -4.0410 ca        1 Z89     -0.003000
     10 CAD         5.2370    0.6030   -4.9780 ca        1 Z89     -0.053900
     11 BrAE        5.2970    2.4750   -4.8350 br        1 Z89     -0.120100
     12 CAF         5.9350   -0.0100   -6.0170 ca        1 Z89     -0.102000
     13 CAG         5.9440   -1.4010   -6.1570 ca        1 Z89     -0.198000
     14 CAH         3.8100   -2.5790   -3.4090 cc        1 Z89     -0.119400
     15 CAI         4.3240   -3.8670   -3.9910 c         1 Z89      0.694700
     16 NAJ         5.0670   -3.5510   -5.1660 ns        1 Z89     -0.475100
     17 OAK         4.1500   -5.0420   -3.6360 o         1 Z89     -0.627500
     18 CAL         2.9330   -2.5150   -2.3860 cd        1 Z89      0.039400
     19 CAM         2.1640   -1.2620   -2.0040 c         1 Z89      0.753700
     20 CAW         1.5650   -2.6630   -0.2050 c         1 Z89      0.448000
     21 SAX         1.1190   -3.4400    1.0540 s         1 Z89     -0.368400
     22 SAY         2.4710   -3.7370   -1.3360 ss        1 Z89     -0.160200
     23 OAZ         1.9240   -0.3350   -2.7840 o         1 Z89     -0.579500
     24 OD1         4.4750    1.2620    0.6330 o         1 Z89     -0.854800
     25 OD2         3.8350   -0.0800   -1.0020 o         1 Z89     -0.854800
     26 O          -0.2750    0.3290    1.8770 o         1 Z89     -0.830800
     27 HA          0.9940    0.5900   -0.8220 h1        1 Z89      0.076700
     28 HB          1.9800    1.2120    1.3680 hc        1 Z89      0.062700
     29 HBA         2.4890   -0.4860    1.6810 hc        1 Z89      0.062700
     30 HAG         6.5180   -1.8750   -6.9620 ha        1 Z89      0.115000
     31 HNAJ        5.7230   -4.1700   -5.5650 hn        1 Z89      0.307500
     32 HAC         3.9960    0.3340   -3.1690 ha        1 Z89      0.245000
     33 HAF         6.5030    0.5950   -6.7390 ha        1 Z89      0.119000
@<TRIPOS>BOND
     1    1    3 1   
     2    1    4 1   
     3    1   26 1   
     4    2    4 1   
     5    2   19 1   
     6    2   20 1   
     7    4    5 1   
     8    4   27 1   
     9    5    6 1   
    10    5   28 1   
    11    5   29 1   
    12    6   24 1   
    13    6   25 1   
    14    7    8 ar  
    15    7   13 ar  
    16    7   16 1   
    17    8    9 ar  
    18    8   14 1   
    19    9   10 ar  
    20    9   32 1   
    21   10   11 1   
    22   10   12 ar  
    23   12   13 ar  
    24   12   33 1   
    25   13   30 1   
    26   14   15 1   
    27   14   18 2   
    28   15   16 1   
    29   15   17 2   
    30   16   31 1   
    31   18   19 1   
    32   18   22 1   
    33   19   23 2   
    34   20   21 2   
    35   20   22 1   
@<TRIPOS>SUBSTRUCTURE
     1 Z89         1 TEMP              0 ****  ****    0 ROOT
