@<TRIPOS>MOLECULE
Z89
   33    30     1     0     0
SMALL
bcc


@<TRIPOS>ATOM
      1 C          -1.6870    1.4830    1.8580 c1        1 Z89      0.332000
      2 N           0.1150   -0.0740    1.6140 n         1 Z89     -0.061000
      3 OXT        -1.9850    2.4520    1.1120 o         1 Z89     -0.573000
      4 CA         -0.2370    1.1840    2.1670 c2        1 Z89     -0.042000
      5 CB         -0.0380    1.1490    3.6660 c3        1 Z89     -0.212000
      6 CG          0.1530    2.5570    4.1820 c2        1 Z89      0.314000
      7 CAA        -0.4550   -1.0160   -3.1160 c1        1 Z89      0.049000
      8 CAB         0.5390   -0.8300   -2.1430 c1        1 Z89     -0.061000
      9 CAC         1.6510   -0.0360   -2.4260 c2        1 Z89     -0.013000
     10 CAD         1.7740    0.5720   -3.6740 c1        1 Z89     -0.190000
     11 BRAE        3.0380    1.7490   -4.4920 br        1 Z89      0.028000
     12 CAF         0.7810    0.3860   -4.6450 c1        1 Z89     -0.102000
     13 CAG        -0.3300   -0.4060   -4.3640 c2        1 Z89     -0.204000
     14 CAH         0.1710   -1.6410   -0.9510 c1        1 Z89     -0.132000
     15 CAI        -1.0800   -2.3200   -1.2440 c2        1 Z89      0.346000
     16 NAJ        -1.5130   -1.9030   -2.5360 n2        1 Z89     -0.339000
     17 OAK        -1.6840   -3.0600   -0.4930 o         1 Z89     -0.321000
     18 CAL         0.9240   -1.8120    0.1520 c1        1 Z89     -0.039000
     19 CAM         1.3320   -0.4260    1.1660 c2        1 Z89      0.349000
     20 CAW        -0.5650   -1.5060    1.9850 c2        1 Z89     -0.480000
     21 SAX        -1.4230   -1.8560    3.3790 s         1 Z89      0.209500
     22 SAY         0.3520   -2.6150    1.0660 s         1 Z89      0.209500
     23 OAZ         2.1490   -0.5480    2.0530 o         1 Z89     -0.282000
     24 OD1         1.2940    2.9460    4.5420 o         1 Z89     -0.602500
     25 OD2        -0.8370    3.3280    4.2880 o         1 Z89     -0.602500
     26 O          -2.5970    0.7740    2.3620 o         1 Z89     -0.573000
     27 HA          0.3290    1.8810    1.7790 h4        1 Z89      0.128000
     28 HB          0.7540    0.6140    3.8780 hc        1 Z89      0.091000
     29 HBA        -0.8240    0.7490    4.0900 hc        1 Z89      0.091000
     30 HAC         2.3390    0.1010   -1.7460 ha        1 Z89      0.235000
     31 HAF         0.8680    0.8120   -5.5190 ha        1 Z89      0.118000
     32 HAG        -1.0220   -0.5350   -5.0410 ha        1 Z89      0.114000
     33 HNAJ       -2.2870   -2.1530   -2.9480 hn        1 Z89      0.216000
@<TRIPOS>BOND
     1    1    3 1   
     2    1   26 1   
     3    2    4 1   
     4    2   19 1   
     5    2   20 1   
     6    4    5 1   
     7    4   27 1   
     8    5    6 1   
     9    5   28 1   
    10    5   29 1   
    11    6   24 1   
    12    6   25 1   
    13    7    8 1   
    14    7   13 1   
    15    8    9 1   
    16    9   10 1   
    17    9   30 1   
    18   10   11 1   
    19   12   13 1   
    20   12   31 1   
    21   13   32 1   
    22   14   15 1   
    23   14   18 1   
    24   15   16 1   
    25   15   17 1   
    26   16   33 1   
    27   18   19 1   
    28   19   23 1   
    29   20   21 1   
    30   20   22 1   
@<TRIPOS>SUBSTRUCTURE
     1 Z89         1 TEMP              0 ****  ****    0 ROOT
