@<TRIPOS>MOLECULE
Z89
   33    35     1     0     0
SMALL
bcc


@<TRIPOS>ATOM
      1 C          -0.1990   -0.2280    0.7810 c         1 Z89      0.920600
      2 N           1.4750   -1.4210   -0.7360 n         1 Z89     -0.332400
      3 OXT        -1.2030   -0.7100    0.1890 o         1 Z89     -0.830800
      4 CA          1.1670   -0.1950    0.0070 c3        1 Z89     -0.024300
      5 CB          2.3350    0.2400    0.8880 c3        1 Z89     -0.187400
      6 CG          3.6390    0.4730    0.1320 c         1 Z89      0.900600
      7 CAA         5.1800   -2.1430   -5.2690 ca        1 Z89      0.033600
      8 CAB         4.4320   -1.5130   -4.2080 ca        1 Z89     -0.056800
      9 CAC         4.4980   -0.1400   -4.0400 ca        1 Z89     -0.003000
     10 CAD         5.2360    0.6110   -4.9740 ca        1 Z89     -0.053900
     11 BRAE        5.3130    2.4810   -4.8140 br        1 Z89     -0.120100
     12 CAF         5.9210    0.0020   -6.0240 ca        1 Z89     -0.102000
     13 CAG         5.9160   -1.3880   -6.1770 ca        1 Z89     -0.198000
     14 CAH         3.7890   -2.5740   -3.4260 cc        1 Z89     -0.119400
     15 CAI         4.2870   -3.8600   -4.0250 c         1 Z89      0.694700
     16 NAJ         5.0250   -3.5400   -5.2010 n         1 Z89     -0.475100
     17 OAK         4.1040   -5.0360   -3.6790 o         1 Z89     -0.627500
     18 CAL         2.9190   -2.5110   -2.3970 cd        1 Z89      0.039400
     19 CAM         2.1640   -1.2540   -1.9980 c         1 Z89      0.753700
     20 CAW         1.5640   -2.6670   -0.2090 c         1 Z89      0.448000
     21 SAX         1.1180   -3.4520    1.0450 s         1 Z89     -0.368400
     22 SAY         2.4520   -3.7390   -1.3560 ss        1 Z89     -0.160200
     23 OAZ         1.9280   -0.3180   -2.7680 o         1 Z89     -0.579500
     24 OD1         4.5160    1.2220    0.6480 o         1 Z89     -0.854800
     25 OD2         3.8530   -0.0980   -0.9960 o         1 Z89     -0.854800
     26 O          -0.2340    0.3220    1.9140 o         1 Z89     -0.830800
     27 HA          1.0200    0.5960   -0.7910 h1        1 Z89      0.076700
     28 HB          2.5210   -0.5180    1.6910 hc        1 Z89      0.062700
     29 HBA         2.0260    1.1890    1.3990 hc        1 Z89      0.062700
     30 HAG         6.4810   -1.8600   -6.9910 ha        1 Z89      0.115000
     31 HNAJ        5.6720   -4.1610   -5.6110 hn        1 Z89      0.307500
     32 HAC         4.0040    0.3350   -3.1600 ha        1 Z89      0.245000
     33 HAF         6.4890    0.6080   -6.7440 ha        1 Z89      0.119000
@<TRIPOS>BOND
     1    1    3 1   
     2    1    4 1   
     3    1   26 1   
     4    2    4 1   
     5    2   19 1   
     6    2   20 1   
     7    4    5 1   
     8    4   27 1   
     9    5    6 1   
    10    5   28 1   
    11    5   29 1   
    12    6   24 1   
    13    6   25 1   
    14    7    8 ar  
    15    7   13 ar  
    16    7   16 1   
    17    8    9 ar  
    18    8   14 1   
    19    9   10 ar  
    20    9   32 1   
    21   10   11 1   
    22   10   12 ar  
    23   12   13 ar  
    24   12   33 1   
    25   13   30 1   
    26   14   15 1   
    27   14   18 2   
    28   15   16 1   
    29   15   17 2   
    30   16   31 1   
    31   18   19 1   
    32   18   22 1   
    33   19   23 2   
    34   20   21 2   
    35   20   22 1   
@<TRIPOS>SUBSTRUCTURE
     1 Z89         1 TEMP              0 ****  ****    0 ROOT
