@<TRIPOS>MOLECULE
Z8B
   33    27     1     0     0
SMALL
bcc


@<TRIPOS>ATOM
      1 N1         -2.5090   -0.3590   -3.9660 n1        1 Z8B     -0.266000
      2 C2         -1.0940   -0.5690   -3.9160 c1        1 Z8B      0.037000
      3 N3         -0.4070   -0.4640   -2.6690 n1        1 Z8B     -0.215000
      4 C4         -1.1200   -0.1540   -1.5020 c1        1 Z8B     -0.081000
      5 C5         -2.4970    0.0480   -1.5500 c1        1 Z8B     -0.081000
      6 C6         -3.1900   -0.0570   -2.8180 c1        1 Z8B      0.251000
      7 N6         -4.4900   -0.1400   -3.0610 n2        1 Z8B     -0.351000
      8 N7         -2.9660    0.0910   -0.2750 n1        1 Z8B     -0.122500
      9 C8         -2.0310   -0.0590    0.4580 c1        1 Z8B     -0.103000
     10 BR8        -1.8980    0.5590    2.2850 br        1 Z8B      0.152000
     11 N9         -0.8060   -0.2180   -0.3880 n1        1 Z8B     -0.122500
     12 C1'         0.6710   -0.1560   -0.2800 c2        1 Z8B      0.126000
     13 C2'         0.9850    1.1650    0.1250 c3        1 Z8B     -0.036000
     14 O2'         1.5920    1.9550   -1.0540 oh        1 Z8B     -0.319000
     15 C3'         1.9550    1.0400    1.1700 c3        1 Z8B      0.022000
     16 O3'         3.2710    1.5400    0.7970 oh        1 Z8B     -0.299000
     17 C4'         2.0270   -0.4680    1.4670 c3        1 Z8B     -0.034000
     18 C5'         1.7850   -0.7030    2.8640 c3        1 Z8B     -0.075000
     19 O5'         1.0360   -1.0330    0.7990 os        1 Z8B     -0.283000
     20 N51         1.8530   -2.0560    3.1320 n2        1 Z8B     -0.291000
     21 N52         2.1090   -2.4200    4.3080 n2        1 Z8B      0.229000
     22 N53         2.4110   -2.8450    5.6950 n1        1 Z8B     -0.039000
     23 H2         -0.6010   -0.7850   -4.7160 ha        1 Z8B      0.194000
     24 H1N6       -5.1640   -0.0230   -2.2720 hn        1 Z8B      0.248000
     25 H2N6       -4.7730   -0.1090   -3.8690 hn        1 Z8B      0.248000
     26 H1'         1.0630   -0.3670   -1.0680 h4        1 Z8B      0.162000
     27 H2'         0.1760    1.6150    0.4390 h1        1 Z8B      0.118000
     28 HO2'        1.3540    2.7990   -0.9820 ho        1 Z8B      0.224000
     29 H3'         1.6510    1.5220    1.9720 h1        1 Z8B      0.135000
     30 HO3'        3.3830    2.0030    1.0940 ho        1 Z8B      0.225000
     31 H4'         2.9350   -0.8550    1.1960 h1        1 Z8B      0.119000
     32 H15'        2.5210   -0.1420    3.4720 h1        1 Z8B      0.113000
     33 H25'        0.7690   -0.3550    3.1130 h1        1 Z8B      0.113000
@<TRIPOS>BOND
     1    1    6 1   
     2    2    3 1   
     3    2   23 1   
     4    4    5 1   
     5    7   24 1   
     6    7   25 1   
     7    8    9 1   
     8    9   11 1   
     9   12   13 1   
    10   12   19 1   
    11   12   26 1   
    12   13   14 1   
    13   13   15 1   
    14   13   27 1   
    15   14   28 1   
    16   15   16 1   
    17   15   17 1   
    18   15   29 1   
    19   16   30 1   
    20   17   18 1   
    21   17   19 1   
    22   17   31 1   
    23   18   20 1   
    24   18   32 1   
    25   18   33 1   
    26   20   21 1   
    27   21   22 1   
@<TRIPOS>SUBSTRUCTURE
     1 Z8B         1 TEMP              0 ****  ****    0 ROOT
