@<TRIPOS>MOLECULE
Z8B
   33    35     1     0     0
SMALL
bcc


@<TRIPOS>ATOM
      1 N1         -4.4500   -0.4210    1.7930 nb        1 Z8B     -0.793000
      2 C2         -3.6540   -1.5190    1.8520 ca        1 Z8B      0.698900
      3 N3         -2.4740   -1.7800    1.2400 nb        1 Z8B     -0.737000
      4 C4         -2.0520   -0.7490    0.4490 ca        1 Z8B      0.481800
      5 C5         -2.7960    0.4900    0.2800 ca        1 Z8B     -0.238200
      6 C6         -4.0380    0.6210    0.9930 ca        1 Z8B      0.772200
      7 N6         -4.7940    1.7530    0.8610 nh        1 Z8B     -0.954500
      8 N7         -2.1110    1.3440   -0.5890 nc        1 Z8B     -0.496100
      9 C8         -0.9990    0.6760   -0.9440 cd        1 Z8B      0.350800
     10 BR8         0.2450    1.3830   -2.1330 br        1 Z8B      0.021700
     11 N9         -0.9110   -0.6310   -0.3760 na        1 Z8B     -0.254000
     12 C1'         0.1840   -1.5690   -0.3040 c3        1 Z8B      0.222800
     13 C2'         0.8660   -1.9250   -1.6600 c3        1 Z8B      0.079100
     14 O2'         0.7410   -3.3000   -1.9330 oh        1 Z8B     -0.576800
     15 C3'         2.3480   -1.5240   -1.4860 c3        1 Z8B      0.085100
     16 O3'         3.1920   -2.6460   -1.6690 oh        1 Z8B     -0.592800
     17 C4'         2.4960   -1.0790   -0.0200 c3        1 Z8B      0.111100
     18 C5'         3.1230    0.3140    0.0940 c3        1 Z8B      0.152800
     19 O5'         1.2050   -1.1030    0.5960 os        1 Z8B     -0.416600
     20 N51         3.0820    0.9920    1.3710 n2        1 Z8B     -0.433200
     21 N52         3.0510    0.3720    2.4600 n1        1 Z8B      0.222000
     22 N53         2.9990    0.0090    3.5350 n1        1 Z8B     -0.048000
     23 H2         -4.0330   -2.3310    2.5120 h5        1 Z8B      0.056100
     24 H1N6       -4.4450    2.5030    0.3180 hn        1 Z8B      0.452800
     25 H2N6       -5.6330    1.8630    1.3740 hn        1 Z8B      0.452800
     26 H1'        -0.2260   -2.5160    0.1740 h2        1 Z8B      0.126700
     27 H2'         0.3870   -1.4220   -2.5420 h1        1 Z8B      0.114700
     28 HO2'        1.2080   -3.7880   -1.2380 ho        1 Z8B      0.420000
     29 H3'         2.6320   -0.7080   -2.2020 h1        1 Z8B      0.068700
     30 HO3'        3.0270   -2.9800   -2.5610 ho        1 Z8B      0.424000
     31 H4'         3.1170   -1.8330    0.5450 h1        1 Z8B      0.086700
     32 H15'        4.1960    0.2140   -0.2470 h1        1 Z8B      0.070200
     33 H25'        2.5970    1.0350   -0.5960 h1        1 Z8B      0.070200
@<TRIPOS>BOND
     1    1    2 ar  
     2    1    6 ar  
     3    2    3 ar  
     4    2   23 1   
     5    3    4 ar  
     6    4    5 ar  
     7    4   11 1   
     8    5    6 ar  
     9    5    8 1   
    10    6    7 1   
    11    7   24 1   
    12    7   25 1   
    13    8    9 2   
    14    9   10 1   
    15    9   11 1   
    16   11   12 1   
    17   12   13 1   
    18   12   19 1   
    19   12   26 1   
    20   13   14 1   
    21   13   15 1   
    22   13   27 1   
    23   14   28 1   
    24   15   16 1   
    25   15   17 1   
    26   15   29 1   
    27   16   30 1   
    28   17   18 1   
    29   17   19 1   
    30   17   31 1   
    31   18   20 1   
    32   18   32 1   
    33   18   33 1   
    34   20   21 1   
    35   21   22 3   
@<TRIPOS>SUBSTRUCTURE
     1 Z8B         1 TEMP              0 ****  ****    0 ROOT
