@<TRIPOS>MOLECULE
Z8B
   33    35     1     0     0
SMALL
bcc


@<TRIPOS>ATOM
      1 N1          0.0690   -0.6890    0.2410 nb        1 Z8B     -0.792000
      2 C2          1.4180   -0.5350    0.2650 ca        1 Z8B      0.698900
      3 N3          2.2400   -0.1790    1.2810 nb        1 Z8B     -0.741000
      4 C4          1.5680    0.0460    2.4480 ca        1 Z8B      0.474800
      5 C5          0.1240   -0.0690    2.5790 ca        1 Z8B     -0.236200
      6 C6         -0.6200   -0.4510    1.4100 ca        1 Z8B      0.770200
      7 N6         -1.9820   -0.5540    1.4600 nv        1 Z8B     -0.952500
      8 N7         -0.2650    0.2350    3.8890 nc        1 Z8B     -0.498100
      9 C8          0.8750    0.5250    4.5410 cd        1 Z8B      0.355800
     10 Br8         0.9100    1.0290    6.3300 br        1 Z8B      0.032700
     11 N9          2.0380    0.4660    3.7120 na        1 Z8B     -0.260000
     12 C1'         3.4350    0.4540    4.0680 c3        1 Z8B      0.221800
     13 C2'         3.9610    1.7750    4.7140 c3        1 Z8B      0.074100
     14 O2'         4.7790    2.4760    3.8010 oh        1 Z8B     -0.592800
     15 C3'         4.8420    1.3210    5.8970 c3        1 Z8B      0.135100
     16 O3'         6.2210    1.5630    5.7190 oh        1 Z8B     -0.586800
     17 C4'         4.6620   -0.2100    5.9780 c3        1 Z8B      0.110100
     18 C5'         4.1820   -0.6470    7.3650 c3        1 Z8B      0.157800
     19 O5'         3.7170   -0.6200    4.9830 os        1 Z8B     -0.416600
     20 N51         3.7260   -2.0070    7.5530 n2        1 Z8B     -0.435200
     21 N52         4.1090   -2.9530    6.8250 n1        1 Z8B      0.223000
     22 N53         4.3130   -3.9260    6.2770 n1        1 Z8B     -0.049000
     23 H2          1.9250   -0.7380   -0.7050 h5        1 Z8B      0.057100
     24 H1N6       -2.4390   -0.4420    2.3310 hn        1 Z8B      0.452800
     25 H2N6       -2.4950   -0.8610    0.6710 hn        1 Z8B      0.452800
     26 H1'         4.0310    0.2370    3.1260 h2        1 Z8B      0.122700
     27 H2'         3.1280    2.4380    5.0700 h1        1 Z8B      0.071700
     28 HO2'        4.2120    2.7640    3.0740 ho        1 Z8B      0.428000
     29 H3'         4.5030    1.8290    6.8400 h1        1 Z8B      0.061700
     30 HO3'        6.3240    2.4200    5.2840 ho        1 Z8B      0.433000
     31 H4'         5.6360   -0.7160    5.7190 h1        1 Z8B      0.088700
     32 H15'        5.0300   -0.4370    8.0810 h1        1 Z8B      0.069200
     33 H25'        3.2920   -0.0280    7.6760 h1        1 Z8B      0.069200
@<TRIPOS>BOND
     1    1    2 ar  
     2    1    6 ar  
     3    2    3 ar  
     4    2   23 1   
     5    3    4 ar  
     6    4    5 ar  
     7    4   11 1   
     8    5    6 ar  
     9    5    8 1   
    10    6    7 1   
    11    7   24 1   
    12    7   25 1   
    13    8    9 2   
    14    9   10 1   
    15    9   11 1   
    16   11   12 1   
    17   12   13 1   
    18   12   19 1   
    19   12   26 1   
    20   13   14 1   
    21   13   15 1   
    22   13   27 1   
    23   14   28 1   
    24   15   16 1   
    25   15   17 1   
    26   15   29 1   
    27   16   30 1   
    28   17   18 1   
    29   17   19 1   
    30   17   31 1   
    31   18   20 1   
    32   18   32 1   
    33   18   33 1   
    34   20   21 1   
    35   21   22 3   
@<TRIPOS>SUBSTRUCTURE
     1 Z8B         1 TEMP              0 ****  ****    0 ROOT
