@<TRIPOS>MOLECULE
Z8Z
   97   100     1     0     0
SMALL
bcc


@<TRIPOS>ATOM
      1 O30         5.6170   -1.4640   -0.5330 o         1 Z8Z     -0.595000
      2 C29         5.5880   -0.2790   -0.1570 c         1 Z8Z      0.734100
      3 O31         6.6250    0.5570   -0.5350 os        1 Z8Z     -0.442900
      4 C32         7.5910   -0.0510   -1.4160 c3        1 Z8Z      0.130100
      5 C33         8.5760    0.9930   -1.7440 cc        1 Z8Z      0.138700
      6 O37         8.3310    1.7710   -2.8860 os        1 Z8Z     -0.374800
      7 C36         9.4170    2.6480   -2.9630 cc        1 Z8Z      0.488300
      8 N35        10.2890    2.4730   -1.9740 nd        1 Z8Z     -0.673000
      9 C34         9.7740    1.4300   -1.1900 cd        1 Z8Z      0.262900
     10 N28         4.6100    0.3770    0.5610 n         1 Z8Z     -0.518900
     11 C20         3.6420   -0.3970    1.3210 c3        1 Z8Z      0.104700
     12 C21         3.4550    0.1480    2.7510 c3        1 Z8Z     -0.059100
     13 C22         4.7300    0.1990    3.5140 ca        1 Z8Z     -0.092300
     14 C27         5.4160    1.4090    3.6700 ca        1 Z8Z     -0.126500
     15 C26         6.6060    1.4540    4.3940 ca        1 Z8Z     -0.125000
     16 C25         7.1210    0.2920    4.9680 ca        1 Z8Z     -0.128000
     17 C24         6.4410   -0.9160    4.8170 ca        1 Z8Z     -0.125000
     18 C23         5.2510   -0.9650    4.0940 ca        1 Z8Z     -0.126500
     19 C19         2.2620   -0.4350    0.6440 c3        1 Z8Z     -0.089400
     20 C18         2.3200   -1.0620   -0.7310 c3        1 Z8Z     -0.098400
     21 C17         0.9780   -1.7030   -1.1290 c3        1 Z8Z      0.105700
     22 C38         1.1800   -2.4100   -2.4850 c3        1 Z8Z     -0.051100
     23 C39        -0.0100   -3.1960   -2.9050 ca        1 Z8Z     -0.082300
     24 C44        -0.7830   -2.7870   -3.9970 ca        1 Z8Z     -0.125000
     25 C43        -1.8900   -3.5360   -4.3960 ca        1 Z8Z     -0.124000
     26 C42        -2.2320   -4.6990   -3.7080 ca        1 Z8Z     -0.128000
     27 C41        -1.4640   -5.1140   -2.6200 ca        1 Z8Z     -0.124000
     28 C40        -0.3580   -4.3670   -2.2200 ca        1 Z8Z     -0.125000
     29 N16        -0.1180   -0.7600   -1.1640 n         1 Z8Z     -0.553900
     30 C14        -0.9890   -0.5920   -0.1160 c         1 Z8Z      0.638100
     31 O15        -0.8640   -1.2290    0.9530 o         1 Z8Z     -0.636100
     32 C13        -2.1420    0.4300   -0.3080 c3        1 Z8Z      0.028700
     33 C45        -1.6610    1.8390    0.1170 c3        1 Z8Z     -0.064700
     34 C47        -1.1400    1.8690    1.5360 c3        1 Z8Z     -0.099100
     35 C46        -0.6160    2.3570   -0.8480 c3        1 Z8Z     -0.099100
     36 N12        -3.3200    0.0260    0.4290 n         1 Z8Z     -0.524900
     37 C10        -4.4020   -0.5310   -0.2850 c         1 Z8Z      0.747100
     38 O11        -4.5130   -0.3200   -1.5200 o         1 Z8Z     -0.646100
     39 N08        -5.3650   -1.3220    0.3870 n         1 Z8Z     -0.440800
     40 C09        -5.3390   -1.4310    1.8210 c3        1 Z8Z      0.064300
     41 C07        -6.6430   -1.4910   -0.2670 c3        1 Z8Z      0.064700
     42 C06        -7.6650   -0.4210    0.0010 cc        1 Z8Z      0.300600
     43 N05        -8.1450   -0.1740    1.2840 nc        1 Z8Z     -0.637000
     44 C48        -8.2220    0.3770   -0.9920 cd        1 Z8Z     -0.233400
     45 S49        -9.3450    1.4270   -0.3440 ss        1 Z8Z     -0.098300
     46 C04        -9.0560    0.8000    1.2420 cd        1 Z8Z      0.401700
     47 C02        -9.7800    1.3320    2.4340 c3        1 Z8Z     -0.098000
     48 C03        -8.8290    2.0890    3.3420 c3        1 Z8Z     -0.096600
     49 C01       -10.9360    2.2180    2.0130 c3        1 Z8Z     -0.096600
     50 H1          8.0820   -0.9060   -0.8790 h1        1 Z8Z      0.078700
     51 H2          7.0640   -0.4250   -2.3340 h1        1 Z8Z      0.078700
     52 H3          9.4120    3.3450   -3.8020 h5        1 Z8Z      0.089100
     53 H4         10.2980    1.0790   -0.3010 h4        1 Z8Z      0.057100
     54 H5          4.8330    1.2850    0.9010 hn        1 Z8Z      0.321500
     55 H6          4.0220   -1.4630    1.3950 h1        1 Z8Z      0.077700
     56 H7          2.9900    1.1690    2.7050 hc        1 Z8Z      0.063700
     57 H8          2.7270   -0.5280    3.2740 hc        1 Z8Z      0.063700
     58 H9          5.0110    2.3300    3.2240 ha        1 Z8Z      0.131500
     59 H10         7.1390    2.4090    4.5120 ha        1 Z8Z      0.134000
     60 H11         8.0600    0.3290    5.5390 ha        1 Z8Z      0.133000
     61 H12         6.8450   -1.8350    5.2690 ha        1 Z8Z      0.134000
     62 H13         4.7160   -1.9190    3.9750 ha        1 Z8Z      0.131500
     63 H14         1.5730   -1.0290    1.3060 hc        1 Z8Z      0.059200
     64 H15         1.8390    0.6010    0.5750 hc        1 Z8Z      0.059200
     65 H16         2.6170   -0.2930   -1.4900 hc        1 Z8Z      0.058200
     66 H17         3.1060   -1.8650   -0.7500 hc        1 Z8Z      0.058200
     67 H18         0.7210   -2.4890   -0.3540 h1        1 Z8Z      0.083700
     68 H19         1.4460   -1.6540   -3.2690 hc        1 Z8Z      0.058200
     69 H20         2.0590   -3.1010   -2.3750 hc        1 Z8Z      0.058200
     70 H21        -0.5180   -1.8710   -4.5440 ha        1 Z8Z      0.129000
     71 H22        -2.4950   -3.2040   -5.2520 ha        1 Z8Z      0.131500
     72 H23        -3.1070   -5.2870   -4.0210 ha        1 Z8Z      0.131000
     73 H24        -1.7330   -6.0300   -2.0750 ha        1 Z8Z      0.131500
     74 H25         0.2450   -4.6940   -1.3600 ha        1 Z8Z      0.129000
     75 H26        -0.2490   -0.2390   -1.9970 hn        1 Z8Z      0.313500
     76 H27        -2.4170    0.4840   -1.4070 h1        1 Z8Z      0.104700
     77 H28        -2.5570    2.5220    0.0530 hc        1 Z8Z      0.069700
     78 H29        -0.3140    1.1270    1.6710 hc        1 Z8Z      0.040033
     79 H30        -0.7470    2.8870    1.7760 hc        1 Z8Z      0.040033
     80 H31        -1.9520    1.6260    2.2620 hc        1 Z8Z      0.040033
     81 H32        -0.9250    2.1790   -1.9060 hc        1 Z8Z      0.040033
     82 H33        -0.4840    3.4570   -0.7010 hc        1 Z8Z      0.040033
     83 H34         0.3730    1.8670   -0.6740 hc        1 Z8Z      0.040033
     84 H35        -3.1170   -0.3430    1.3350 hn        1 Z8Z      0.313500
     85 H36        -5.4120   -0.4310    2.3290 h1        1 Z8Z      0.047033
     86 H37        -6.2030   -2.0600    2.1630 h1        1 Z8Z      0.047033
     87 H38        -4.3860   -1.9370    2.1370 h1        1 Z8Z      0.047033
     88 H39        -6.4690   -1.5380   -1.3820 h1        1 Z8Z      0.079700
     89 H40        -7.0630   -2.4820    0.0750 h1        1 Z8Z      0.079700
     90 H41        -7.9550    0.3360   -2.0470 h4        1 Z8Z      0.189000
     91 H42       -10.1980    0.4540    3.0120 hc        1 Z8Z      0.075700
     92 H43        -7.9950    1.4250    3.6720 hc        1 Z8Z      0.043367
     93 H44        -8.3950    2.9700    2.8120 hc        1 Z8Z      0.043367
     94 H45        -9.3780    2.4520    4.2440 hc        1 Z8Z      0.043367
     95 H46       -11.6730    1.6420    1.4030 hc        1 Z8Z      0.043367
     96 H47       -11.4570    2.6140    2.9170 hc        1 Z8Z      0.043367
     97 H48       -10.5710    3.0860    1.4090 hc        1 Z8Z      0.043367
@<TRIPOS>BOND
     1    1    2 2   
     2    2    3 1   
     3    2   10 1   
     4    3    4 1   
     5    4    5 1   
     6    4   50 1   
     7    4   51 1   
     8    5    6 1   
     9    5    9 2   
    10    6    7 1   
    11    7    8 2   
    12    7   52 1   
    13    8    9 1   
    14    9   53 1   
    15   10   11 1   
    16   10   54 1   
    17   11   12 1   
    18   11   19 1   
    19   11   55 1   
    20   12   13 1   
    21   12   56 1   
    22   12   57 1   
    23   13   14 ar  
    24   13   18 ar  
    25   14   15 ar  
    26   14   58 1   
    27   15   16 ar  
    28   15   59 1   
    29   16   17 ar  
    30   16   60 1   
    31   17   18 ar  
    32   17   61 1   
    33   18   62 1   
    34   19   20 1   
    35   19   63 1   
    36   19   64 1   
    37   20   21 1   
    38   20   65 1   
    39   20   66 1   
    40   21   22 1   
    41   21   29 1   
    42   21   67 1   
    43   22   23 1   
    44   22   68 1   
    45   22   69 1   
    46   23   24 ar  
    47   23   28 ar  
    48   24   25 ar  
    49   24   70 1   
    50   25   26 ar  
    51   25   71 1   
    52   26   27 ar  
    53   26   72 1   
    54   27   28 ar  
    55   27   73 1   
    56   28   74 1   
    57   29   30 1   
    58   29   75 1   
    59   30   31 2   
    60   30   32 1   
    61   32   33 1   
    62   32   36 1   
    63   32   76 1   
    64   33   34 1   
    65   33   35 1   
    66   33   77 1   
    67   34   78 1   
    68   34   79 1   
    69   34   80 1   
    70   35   81 1   
    71   35   82 1   
    72   35   83 1   
    73   36   37 1   
    74   36   84 1   
    75   37   38 2   
    76   37   39 1   
    77   39   40 1   
    78   39   41 1   
    79   40   85 1   
    80   40   86 1   
    81   40   87 1   
    82   41   42 1   
    83   41   88 1   
    84   41   89 1   
    85   42   43 1   
    86   42   44 2   
    87   43   46 2   
    88   44   45 1   
    89   44   90 1   
    90   45   46 1   
    91   46   47 1   
    92   47   48 1   
    93   47   49 1   
    94   47   91 1   
    95   48   92 1   
    96   48   93 1   
    97   48   94 1   
    98   49   95 1   
    99   49   96 1   
   100   49   97 1   
@<TRIPOS>SUBSTRUCTURE
     1 Z8Z         1 TEMP              0 ****  ****    0 ROOT
