@<TRIPOS>MOLECULE
Z8Z
  101   104     1     0     0
SMALL
bcc


@<TRIPOS>ATOM
      1 O30         2.1470   -1.4480    0.3470 o         1 Z8Z     -0.495000
      2 C29         1.1750   -0.7550    0.6330 c         1 Z8Z      0.644100
      3 O31         0.2740   -0.9590    1.5870 os        1 Z8Z     -0.395900
      4 C32         0.5510   -1.9950    2.6230 c3        1 Z8Z      0.162100
      5 C33         1.0640   -1.3470    3.8150 cc        1 Z8Z     -0.002300
      6 O37         2.4650   -1.2030    3.9310 os        1 Z8Z     -0.402800
      7 C36         2.6600   -0.6480    5.1990 cc        1 Z8Z      0.553300
      8 N35         1.5160   -0.4350    5.8490 nd        1 Z8Z     -0.641000
      9 C34         0.4980   -0.8690    4.9980 cd        1 Z8Z      0.378900
     10 N28         0.8380    0.4810   -0.1540 ny        1 Z8Z     -0.656800
     11 C20         0.8120    0.2640   -1.6470 c3        1 Z8Z      0.139500
     12 C21        -0.1460    1.2860   -2.3050 c3        1 Z8Z     -0.042100
     13 C22        -1.4660    1.3420   -1.6250 ca        1 Z8Z     -0.198300
     14 C27        -1.7540    2.3900   -0.7380 ca        1 Z8Z     -0.130000
     15 C26        -3.0150    2.4850   -0.1520 ca        1 Z8Z     -0.104500
     16 C25        -3.9980    1.5380   -0.4490 ca        1 Z8Z     -0.073000
     17 C24        -3.7160    0.4940   -1.3330 ca        1 Z8Z     -0.104500
     18 C23        -2.4550    0.3970   -1.9210 ca        1 Z8Z     -0.130000
     19 C19         2.1870    0.3680   -2.3290 c3        1 Z8Z     -0.113400
     20 C18         3.0070   -0.9060   -2.2550 c3        1 Z8Z     -0.133400
     21 C17         3.7760   -1.2410   -3.5400 c3        1 Z8Z      0.145500
     22 C38         4.2450   -2.7000   -3.5060 c3        1 Z8Z     -0.074100
     23 C39         4.6550   -3.2170   -4.8390 ca        1 Z8Z     -0.158300
     24 C44         5.9840   -3.5930   -5.0760 ca        1 Z8Z     -0.143000
     25 C43         6.3340   -4.2070   -6.2820 ca        1 Z8Z     -0.142000
     26 C42         5.3600   -4.4600   -7.2520 ca        1 Z8Z     -0.095000
     27 C41         4.0350   -4.0870   -7.0200 ca        1 Z8Z     -0.142000
     28 C40         3.6830   -3.4700   -5.8190 ca        1 Z8Z     -0.143000
     29 N16         4.9630   -0.2900   -3.7240 ny        1 Z8Z     -0.662800
     30 C14         5.5330   -0.3000   -5.1030 c         1 Z8Z      0.527100
     31 O15         4.7800   -0.1230   -6.0510 o         1 Z8Z     -0.381100
     32 C13         7.0600   -0.4620   -5.2470 c3        1 Z8Z      0.065500
     33 C45         7.7440    0.9270   -5.1310 c3        1 Z8Z     -0.085700
     34 C47         7.3330    1.8730   -6.2370 c3        1 Z8Z     -0.133100
     35 C46         7.4750    1.5300   -3.7690 c3        1 Z8Z     -0.133100
     36 N12         7.3680   -1.1430   -6.5630 ny        1 Z8Z     -0.679800
     37 C10         8.8600   -1.3940   -6.7420 c         1 Z8Z      0.493100
     38 O11         9.4900   -1.6700   -5.7320 o         1 Z8Z     -0.348100
     39 N08         9.4680   -1.3920   -8.0900 nx        1 Z8Z     -0.585200
     40 C09         8.6000   -0.9010   -9.1810 c3        1 Z8Z      0.038100
     41 C07        10.0820   -2.8350   -8.4550 c3        1 Z8Z      0.172500
     42 C06        11.3440   -2.6340   -9.1360 cc        1 Z8Z      0.160600
     43 N05        11.3870   -2.1080  -10.4380 nc        1 Z8Z     -0.641000
     44 C48        12.6090   -3.0470   -8.6410 cd        1 Z8Z     -0.226400
     45 S49        13.7650   -2.8740   -9.7590 ss        1 Z8Z      0.268700
     46 C04        12.6290   -2.1800  -10.8970 cd        1 Z8Z      0.431700
     47 C02        13.1150   -1.7630  -12.2480 c3        1 Z8Z     -0.118000
     48 C03        12.7530   -0.3240  -12.5530 c3        1 Z8Z     -0.110100
     49 C01        14.6150   -1.9740  -12.3340 c3        1 Z8Z     -0.110100
     50 H1          1.2540   -2.7550    2.1930 h1        1 Z8Z      0.122200
     51 H2         -0.4890   -2.4030    2.7790 h1        1 Z8Z      0.122200
     52 H3          3.6980   -0.4740    5.5050 h5        1 Z8Z      0.114100
     53 H4         -0.5530   -0.8180    5.3040 h4        1 Z8Z      0.085100
     54 H5          1.5140    1.2120    0.0900 hn        1 Z8Z      0.486800
     55 H6          0.3830   -0.7720   -1.8010 hx        1 Z8Z      0.117700
     56 H7         -0.2870    0.9610   -3.3730 hc        1 Z8Z      0.084700
     57 H8          0.3350    2.3000   -2.3150 hc        1 Z8Z      0.084700
     58 H9         -1.0050    3.1720   -0.5390 ha        1 Z8Z      0.131500
     59 H10        -3.2440    3.3210    0.5310 ha        1 Z8Z      0.171500
     60 H11        -5.0010    1.6230    0.0030 ha        1 Z8Z      0.179000
     61 H12        -4.4970   -0.2440   -1.5800 ha        1 Z8Z      0.171500
     62 H13        -2.2510   -0.4110   -2.6400 ha        1 Z8Z      0.131500
     63 H14         2.7660    1.2290   -1.9000 hc        1 Z8Z      0.073200
     64 H15         1.9750    0.6200   -3.4060 hc        1 Z8Z      0.073200
     65 H16         2.3200   -1.7830   -2.0670 hc        1 Z8Z      0.115200
     66 H17         3.6990   -0.8810   -1.3680 hc        1 Z8Z      0.115200
     67 H18         3.1110   -1.0760   -4.4450 hx        1 Z8Z      0.129700
     68 H19         5.0600   -2.8420   -2.7450 hc        1 Z8Z      0.114200
     69 H20         3.3740   -3.3240   -3.1450 hc        1 Z8Z      0.114200
     70 H21         6.7320   -3.5160   -4.2700 ha        1 Z8Z      0.152000
     71 H22         7.3520   -4.6070   -6.4150 ha        1 Z8Z      0.174500
     72 H23         5.6230   -5.0040   -8.1770 ha        1 Z8Z      0.183000
     73 H24         3.2550   -4.3180   -7.7700 ha        1 Z8Z      0.174500
     74 H25         2.6250   -3.2230   -5.6270 ha        1 Z8Z      0.152000
     75 H26         4.6250    0.6660   -3.5250 hn        1 Z8Z      0.475300
     76 H27         7.4690   -1.1420   -4.4330 hx        1 Z8Z      0.155700
     77 H28         8.8590    0.7420   -5.1970 hc        1 Z8Z      0.105700
     78 H29         6.2220    1.9420   -6.3350 hc        1 Z8Z      0.077033
     79 H30         7.7180    2.9040   -6.0100 hc        1 Z8Z      0.077033
     80 H31         7.7650    1.5710   -7.2220 hc        1 Z8Z      0.077033
     81 H32         8.2170    2.3570   -3.5870 hc        1 Z8Z      0.077033
     82 H33         6.4600    1.9930   -3.7170 hc        1 Z8Z      0.077033
     83 H34         7.6080    0.7830   -2.9500 hc        1 Z8Z      0.077033
     84 H35         6.8840   -2.0780   -6.5760 hn        1 Z8Z      0.495800
     85 H36         9.1990   -0.9140  -10.1470 hx        1 Z8Z      0.130700
     86 H37         8.2780    0.1600   -9.0000 hx        1 Z8Z      0.130700
     87 H38         7.7180   -1.5790   -9.3290 hx        1 Z8Z      0.130700
     88 H39        10.2120   -3.3820   -7.4820 hx        1 Z8Z      0.116700
     89 H40         9.2870   -3.3030   -9.1000 hx        1 Z8Z      0.116700
     90 H41        12.7580   -3.4720   -7.6420 h4        1 Z8Z      0.212000
     91 H42        12.6090   -2.4300  -13.0110 hc        1 Z8Z      0.111700
     92 H43        13.1360   -0.0570  -13.5700 hc        1 Z8Z      0.063700
     93 H44        13.2150    0.3720  -11.8120 hc        1 Z8Z      0.063700
     94 H45        11.6460   -0.1830  -12.5450 hc        1 Z8Z      0.063700
     95 H46        14.8920   -3.0270  -12.0730 hc        1 Z8Z      0.063700
     96 H47        15.1630   -1.2690  -11.6620 hc        1 Z8Z      0.063700
     97 H48        14.9600   -1.7830  -13.3820 hc        1 Z8Z      0.063700
     98 H282       -0.1120    0.8080    0.1380 hn        1 Z8Z      0.486800
     99 H162        5.6900   -0.5250   -3.0350 hn        1 Z8Z      0.475300
    100 H122        6.9920   -0.5600   -7.3270 hn        1 Z8Z      0.495800
    101 H081       10.2980   -0.7600   -8.0290 hn        1 Z8Z      0.499800
@<TRIPOS>BOND
     1    1    2 2   
     2    2    3 1   
     3    2   10 1   
     4    3    4 1   
     5    4    5 1   
     6    4   50 1   
     7    4   51 1   
     8    5    6 1   
     9    5    9 2   
    10    6    7 1   
    11    7    8 2   
    12    7   52 1   
    13    8    9 1   
    14    9   53 1   
    15   10   11 1   
    16   10   54 1   
    17   10   98 1   
    18   11   12 1   
    19   11   19 1   
    20   11   55 1   
    21   12   13 1   
    22   12   56 1   
    23   12   57 1   
    24   13   14 ar  
    25   13   18 ar  
    26   14   15 ar  
    27   14   58 1   
    28   15   16 ar  
    29   15   59 1   
    30   16   17 ar  
    31   16   60 1   
    32   17   18 ar  
    33   17   61 1   
    34   18   62 1   
    35   19   20 1   
    36   19   63 1   
    37   19   64 1   
    38   20   21 1   
    39   20   65 1   
    40   20   66 1   
    41   21   22 1   
    42   21   29 1   
    43   21   67 1   
    44   22   23 1   
    45   22   68 1   
    46   22   69 1   
    47   23   24 ar  
    48   23   28 ar  
    49   24   25 ar  
    50   24   70 1   
    51   25   26 ar  
    52   25   71 1   
    53   26   27 ar  
    54   26   72 1   
    55   27   28 ar  
    56   27   73 1   
    57   28   74 1   
    58   29   30 1   
    59   29   75 1   
    60   29   99 1   
    61   30   31 2   
    62   30   32 1   
    63   32   33 1   
    64   32   36 1   
    65   32   76 1   
    66   33   34 1   
    67   33   35 1   
    68   33   77 1   
    69   34   78 1   
    70   34   79 1   
    71   34   80 1   
    72   35   81 1   
    73   35   82 1   
    74   35   83 1   
    75   36   37 1   
    76   36   84 1   
    77   36  100 1   
    78   37   38 2   
    79   37   39 1   
    80   39   40 1   
    81   39   41 1   
    82   39  101 1   
    83   40   85 1   
    84   40   86 1   
    85   40   87 1   
    86   41   42 1   
    87   41   88 1   
    88   41   89 1   
    89   42   43 1   
    90   42   44 2   
    91   43   46 2   
    92   44   45 1   
    93   44   90 1   
    94   45   46 1   
    95   46   47 1   
    96   47   48 1   
    97   47   49 1   
    98   47   91 1   
    99   48   92 1   
   100   48   93 1   
   101   48   94 1   
   102   49   95 1   
   103   49   96 1   
   104   49   97 1   
@<TRIPOS>SUBSTRUCTURE
     1 Z8Z         1 TEMP              0 ****  ****    0 ROOT
