@<TRIPOS>MOLECULE
Z90
   79    82     1     0     0
SMALL
bcc


@<TRIPOS>ATOM
      1 OAA        -4.2460   -4.0060   -0.3560 o         1 Z90     -0.867800
      2 OAB         9.2950   -1.6060    1.6750 o         1 Z90     -0.839300
      3 OAC        -3.8740   -2.0620    0.6390 o         1 Z90     -0.867800
      4 OAD         9.7520   -1.0020   -0.4210 o         1 Z90     -0.839300
      5 CAE        -9.3560   -2.5640   -0.5770 ca        1 Z90     -0.156000
      6 CAF        -8.0410   -3.0170   -0.4720 ca        1 Z90     -0.149000
      7 CAG        -9.6510   -1.2240   -0.3280 ca        1 Z90     -0.149000
      8 CAH         4.0490    4.6020    0.7780 ca        1 Z90     -0.164000
      9 CAI         2.9940    5.4960    0.6290 ca        1 Z90     -0.116000
     10 CAJ        -7.0150   -2.1400   -0.1190 ca        1 Z90     -0.123000
     11 CAK        -8.6310   -0.3410    0.0230 ca        1 Z90     -0.123000
     12 CAL         3.7930    3.2360    0.9030 ca        1 Z90     -0.099000
     13 CAM         1.6780    5.0350    0.6050 ca        1 Z90     -0.211000
     14 CAN        -3.3210    1.0470    0.0150 ca        1 Z90     -0.132000
     15 CAO        -4.4640    3.0980   -0.5590 ca        1 Z90     -0.132000
     16 CAP        -2.1500    1.7680    0.2430 ca        1 Z90     -0.126500
     17 CAQ        -3.2950    3.8170   -0.3290 ca        1 Z90     -0.126500
     18 CAR         5.1730   -1.8970    0.7810 ca        1 Z90     -0.149000
     19 CAS         5.6790   -1.2470   -1.4870 ca        1 Z90     -0.149000
     20 CAT         6.5260   -1.8070    1.1050 ca        1 Z90     -0.117000
     21 CAU         7.0300   -1.1610   -1.1600 ca        1 Z90     -0.117000
     22 CAV        -1.1770   -2.2520   -0.4160 c3        1 Z90     -0.071400
     23 CAW         0.3070   -2.3330   -0.1210 c3        1 Z90     -0.079400
     24 CAX        -1.9480   -3.4310    0.1270 c3        1 Z90     -0.180400
     25 CAY        -6.2140    0.1420    0.5090 c3        1 Z90     -0.053100
     26 CBA         2.2350    1.2820    1.0210 c3        1 Z90     -0.039100
     27 CBB         0.9920   -1.0720   -0.6510 c3        1 Z90      0.166800
     28 CBC         2.7530    0.5190   -0.2070 c3        1 Z90      0.175800
     29 CBD        -0.8950    3.9720    0.2720 c3        1 Z90      0.182700
     30 CBE         3.2950   -1.7640   -0.8950 c3        1 Z90      0.226100
     31 OBF         0.1540    3.1180    0.7480 os        1 Z90     -0.319900
     32 CBG        -3.4520   -3.1490    0.1310 c         1 Z90      0.906600
     33 CBH         8.9420   -1.3430    0.4900 c         1 Z90      0.906200
     34 CBI        -7.3100   -0.7910    0.1280 ca        1 Z90     -0.076300
     35 CBJ        -4.4870    1.7070   -0.3960 ca        1 Z90     -0.069300
     36 CBK        -2.1270    3.1540    0.0680 ca        1 Z90     -0.112300
     37 CBL         4.7390   -1.6180   -0.5190 ca        1 Z90     -0.117300
     38 CBM         7.4670   -1.4400    0.1390 ca        1 Z90     -0.123600
     39 CBN         2.4880    2.7410    0.8760 ca        1 Z90     -0.085300
     40 CBO         1.4250    3.6630    0.7250 ca        1 Z90      0.126100
     41 NBP         2.3650   -0.8850   -0.1930 n3        1 Z90     -0.734600
     42 HAG       -10.6850   -0.8630   -0.4080 ha        1 Z90      0.118000
     43 HAH         5.0860    4.9660    0.7960 ha        1 Z90      0.128000
     44 HAI         3.1910    6.5730    0.5310 ha        1 Z90      0.115000
     45 HAJ        -5.9620   -2.5080   -0.0300 ha        1 Z90      0.173000
     46 HAK        -8.8630    0.7160    0.2180 ha        1 Z90      0.173000
     47 HAL         4.6300    2.5270    1.0190 ha        1 Z90      0.153000
     48 HAM         0.8540    5.7520    0.4940 ha        1 Z90      0.125000
     49 HAN        -3.3380   -0.0570    0.1610 ha        1 Z90      0.166000
     50 HAO        -5.3750    3.6270   -0.8750 ha        1 Z90      0.166000
     51 HAP        -1.2360    1.2380    0.5600 ha        1 Z90      0.130500
     52 HAQ        -3.2860    4.9080   -0.4620 ha        1 Z90      0.130500
     53 HAR         4.4360   -2.1850    1.5460 ha        1 Z90      0.113000
     54 HAS         5.3480   -1.0240   -2.5120 ha        1 Z90      0.113000
     55 HAT         6.8810   -2.0240    2.1250 ha        1 Z90      0.146000
     56 HAU         7.7810   -0.8720   -1.9130 ha        1 Z90      0.146000
     57 HAV        -1.5980   -1.3130    0.0390 hc        1 Z90      0.039700
     58 HAVA       -1.3350   -2.1810   -1.5240 hc        1 Z90      0.039700
     59 HAW         0.4690   -2.4260    0.9840 hc        1 Z90      0.038700
     60 HAWA        0.7470   -3.2440   -0.6020 hc        1 Z90      0.038700
     61 HAX        -1.7410   -4.3480   -0.4800 hc        1 Z90      0.028200
     62 HAXA       -1.6380   -3.6390    1.1830 hc        1 Z90      0.028200
     63 HAY        -5.3570   -0.4550    0.9390 hc        1 Z90      0.076200
     64 HAYA       -6.5750    0.8540    1.2970 hc        1 Z90      0.076200
     65 HBA         1.1370    1.0950    1.1680 hc        1 Z90      0.065700
     66 HBAA        2.7610    0.9020    1.9380 hc        1 Z90      0.065700
     67 HBB         0.9370   -1.0890   -1.7810 h1        1 Z90      0.025700
     68 HBBA        0.3840   -0.1850   -0.3090 h1        1 Z90      0.025700
     69 HBC         2.3790    1.0430   -1.1350 h1        1 Z90      0.037200
     70 HBCA        3.8780    0.5910   -0.2100 h1        1 Z90      0.037200
     71 HBD        -1.0800    4.7730    1.0390 h1        1 Z90      0.035200
     72 HBDA       -0.5850    4.4490   -0.6980 h1        1 Z90      0.035200
     73 HBE         3.1990   -1.6370   -2.0170 h1        1 Z90      0.026200
     74 HBEA        2.9700   -2.8180   -0.6500 h1        1 Z90      0.026200
     75 HAE       -10.1590   -3.2600   -0.8540 ha        1 Z90      0.104000
     76 CAZ        -5.7180    0.9270   -0.6950 c3        1 Z90     -0.026100
     77 HAF        -7.7990   -4.0730   -0.6660 ha        1 Z90      0.118000
     78 HAZ        -5.4850    0.2020   -1.5240 hc        1 Z90      0.043700
     79 HAZA       -6.5330    1.6070   -1.0600 hc        1 Z90      0.043700
@<TRIPOS>BOND
     1    1   32 1   
     2    2   33 1   
     3    3   32 1   
     4    4   33 1   
     5    5    6 ar  
     6    5    7 ar  
     7    5   75 1   
     8    6   10 ar  
     9    6   77 1   
    10    7   11 ar  
    11    7   42 1   
    12    8    9 ar  
    13    8   12 ar  
    14    8   43 1   
    15    9   13 ar  
    16    9   44 1   
    17   10   34 ar  
    18   10   45 1   
    19   11   34 ar  
    20   11   46 1   
    21   12   39 ar  
    22   12   47 1   
    23   13   40 ar  
    24   13   48 1   
    25   14   16 ar  
    26   14   35 ar  
    27   14   49 1   
    28   15   17 ar  
    29   15   35 ar  
    30   15   50 1   
    31   16   36 ar  
    32   16   51 1   
    33   17   36 ar  
    34   17   52 1   
    35   18   20 ar  
    36   18   37 ar  
    37   18   53 1   
    38   19   21 ar  
    39   19   37 ar  
    40   19   54 1   
    41   20   38 ar  
    42   20   55 1   
    43   21   38 ar  
    44   21   56 1   
    45   22   23 1   
    46   22   24 1   
    47   22   57 1   
    48   22   58 1   
    49   23   27 1   
    50   23   59 1   
    51   23   60 1   
    52   24   32 1   
    53   24   61 1   
    54   24   62 1   
    55   25   34 1   
    56   25   63 1   
    57   25   64 1   
    58   25   76 1   
    59   26   28 1   
    60   26   39 1   
    61   26   65 1   
    62   26   66 1   
    63   27   41 1   
    64   27   67 1   
    65   27   68 1   
    66   28   41 1   
    67   28   69 1   
    68   28   70 1   
    69   29   31 1   
    70   29   36 1   
    71   29   71 1   
    72   29   72 1   
    73   30   37 1   
    74   30   41 1   
    75   30   73 1   
    76   30   74 1   
    77   31   40 1   
    78   33   38 1   
    79   35   76 1   
    80   39   40 ar  
    81   76   78 1   
    82   76   79 1   
@<TRIPOS>SUBSTRUCTURE
     1 Z90         1 TEMP              0 ****  ****    0 ROOT
