@<TRIPOS>MOLECULE
Z90
   79    72     1     0     0
SMALL
bcc


@<TRIPOS>ATOM
      1 OAA         3.3400    2.7460    4.9330 o         1 Z90     -0.606000
      2 OAB        12.5410   -8.5370   -8.4050 o         1 Z90     -0.360000
      3 OAC         5.4690    2.8320    4.3680 o         1 Z90     -0.606000
      4 OAD        11.6840   -6.6920   -9.1680 oh        1 Z90     -0.305000
      5 CAE         3.6610    0.6520    7.2540 c2        1 Z90     -0.452000
      6 CAF         5.0270    0.2990    7.5580 c2        1 Z90     -0.094000
      7 CAG         2.5270    0.2550    7.7610 c1        1 Z90      0.099000
      8 CAH         9.5320   -4.4030   -9.6760 c1        1 Z90     -0.299250
      9 CAI         8.3220   -2.7400   -6.3990 c1        1 Z90     -0.260000
     10 CAJ         6.0740    0.7980    6.8950 c2        1 Z90     -0.224000
     11 CAK         5.3930    6.2580    8.8260 c1        1 Z90     -0.035500
     12 CAL         9.1370   -3.8780   -8.6680 c1        1 Z90     -0.299250
     13 CAM         7.9170   -2.1610   -5.4100 c1        1 Z90     -0.462000
     14 CAN         9.5020   -0.0750    2.3100 c1        1 Z90     -0.225000
     15 CAO         7.6500    4.6890    3.0080 c1        1 Z90     -0.299250
     16 CAP        10.7150   -0.2630    1.5660 c3        1 Z90      0.079000
     17 CAQ         8.4530    5.4030    2.4810 c1        1 Z90     -0.299250
     18 CAR        10.8720   -4.7870   -5.9300 c2        1 Z90     -0.142000
     19 CAS         4.8740    5.2320   -4.1540 c1        1 Z90     -0.598000
     20 CAT        11.1350   -5.9800   -6.3590 c1        1 Z90     -0.118000
     21 CAU         4.8760    6.4080   -4.6310 c1        1 Z90      0.132000
     22 CAV         4.9460    2.2450    1.6630 c3        1 Z90     -0.154000
     23 CAW         4.5610    2.4030    0.2070 c3        1 Z90     -0.158000
     24 CAX         3.8250    2.6800    2.5780 c3        1 Z90     -0.203000
     25 CAY         4.9530    4.5230    6.9930 c1        1 Z90     -0.035500
     26 CBA         5.6670   -0.1290   -3.0690 c3        1 Z90     -0.094000
     27 CBB         5.7020    1.9390   -0.6980 c3        1 Z90     -0.068000
     28 CBC         6.2200    1.3000   -2.9970 c3        1 Z90     -0.074000
     29 CBD        10.3150   -1.1860   -0.8690 c1        1 Z90     -0.198000
     30 CBE         5.6450    3.5870   -2.4750 c3        1 Z90     -0.096000
     31 OBF         8.2920   -1.5300   -3.2000 oh        1 Z90     -0.287000
     32 CBG         4.2430    2.7460    4.0380 c2        1 Z90      0.328000
     33 CBH        11.9000   -7.5210   -8.1080 c2        1 Z90      0.351000
     34 CBI         5.1480    5.4040    7.8180 c1        1 Z90     -0.307000
     35 CBJ         8.4920    0.0910    2.9310 c1        1 Z90     -0.110000
     36 CBK        10.4960   -0.7690    0.2380 c1        1 Z90     -0.194000
     37 CBL         4.8540    3.9950   -3.6750 c2        1 Z90      0.217000
     38 CBM        11.3860   -7.1940   -6.7730 c2        1 Z90     -0.225000
     39 CBN         6.2320   -0.8380   -4.2360 c2        1 Z90     -0.381000
     40 CBO         7.4250   -1.4820   -4.2830 c2        1 Z90      0.246000
     41 NBP         5.4680    2.1880   -2.1150 n3        1 Z90     -0.277000
     42 HAG         5.3250    7.3410    8.6640 ha        1 Z90      0.182500
     43 HAH         9.8660   -4.8550  -10.5730 ha        1 Z90      0.253000
     44 HAI        11.1230   -5.9390   -8.9040 ho        1 Z90      0.261000
     45 HAJ         7.1030    0.5150    7.1470 ha        1 Z90      0.135500
     46 HAK         5.9630    1.5170    6.0610 ha        1 Z90      0.135500
     47 HAL         5.6110   -0.8370   -5.1420 ha        1 Z90      0.132000
     48 HAM         8.7490   -3.3550   -7.6560 ha        1 Z90      0.253000
     49 HAN        11.3880   -0.9780    2.1270 hc        1 Z90      0.098000
     50 HAO         6.9280    4.0480    3.4810 ha        1 Z90      0.253000
     51 HAP        11.2630    0.7250    1.4980 hc        1 Z90      0.098000
     52 HAQ         9.1630    6.0310    2.0110 ha        1 Z90      0.253000
     53 HAR         9.8780   -4.3030   -6.0710 ha        1 Z90      0.184000
     54 HAS         4.2300    3.2170   -4.1620 ha        1 Z90      0.143000
     55 HAT        11.6230   -4.1650   -5.4200 ha        1 Z90      0.184000
     56 HAU        11.2420   -8.0700   -6.1170 ha        1 Z90      0.155000
     57 HAV         3.6400    1.8020   -0.0110 hc        1 Z90      0.075500
     58 HAVA        5.2110    1.1750    1.8770 hc        1 Z90      0.087000
     59 HAW         5.8620    2.8560    1.8900 hc        1 Z90      0.087000
     60 HAWA        4.3070    3.4780    0.0110 hc        1 Z90      0.075500
     61 HAX         3.4680    3.7020    2.2860 hc        1 Z90      0.078000
     62 HAXA        2.9550    1.9810    2.4850 hc        1 Z90      0.078000
     63 HAY         7.4460    0.0800    4.7580 hc        1 Z90      0.115000
     64 HAYA        4.7760    3.7560    6.2480 ha        1 Z90      0.182500
     65 HBA         5.8940   -0.6710   -2.1120 hc        1 Z90      0.074500
     66 HBAA        4.5480   -0.0980   -3.1630 hc        1 Z90      0.074500
     67 HBB         5.8250    0.8270   -0.5580 h1        1 Z90      0.080500
     68 HBBA        6.6610    2.4270   -0.3510 h1        1 Z90      0.080500
     69 HBC         7.3080    1.2470   -2.6980 h1        1 Z90      0.071000
     70 HBCA        6.1810    1.7320   -4.0380 h1        1 Z90      0.071000
     71 HBD         7.8900   -1.0450   -2.4660 ho        1 Z90      0.200000
     72 HBDA       10.1440   -1.5530   -1.8550 ha        1 Z90      0.247000
     73 HBE         6.7310    3.8480   -2.6710 h1        1 Z90      0.118000
     74 HBEA        5.3080    4.2390   -1.6130 h1        1 Z90      0.118000
     75 HAE         3.5490    1.4200    6.4160 ha        1 Z90      0.283000
     76 CAZ         7.2880    0.2910    3.6680 c3        1 Z90     -0.146000
     77 HAF         5.1630   -0.4180    8.3850 ha        1 Z90      0.094000
     78 HAZ         6.4820   -0.3900    3.2890 hc        1 Z90      0.115000
     79 HAZA        6.9160    1.3530    3.5750 hc        1 Z90      0.115000
@<TRIPOS>BOND
     1    1   32 1   
     2    2   33 1   
     3    3   32 1   
     4    4   33 1   
     5    4   44 1   
     6    5    6 1   
     7    5    7 1   
     8    5   75 1   
     9    6   10 1   
    10    6   77 1   
    11    8   12 1   
    12    8   43 1   
    13    9   13 1   
    14   10   45 1   
    15   10   46 1   
    16   11   34 1   
    17   11   42 1   
    18   12   48 1   
    19   13   40 1   
    20   14   16 1   
    21   14   35 1   
    22   15   17 1   
    23   15   50 1   
    24   16   36 1   
    25   16   49 1   
    26   16   51 1   
    27   17   52 1   
    28   18   20 1   
    29   18   53 1   
    30   18   55 1   
    31   19   21 1   
    32   19   37 1   
    33   20   38 1   
    34   22   23 1   
    35   22   24 1   
    36   22   58 1   
    37   22   59 1   
    38   23   27 1   
    39   23   57 1   
    40   23   60 1   
    41   24   32 1   
    42   24   61 1   
    43   24   62 1   
    44   25   34 1   
    45   25   64 1   
    46   26   28 1   
    47   26   39 1   
    48   26   65 1   
    49   26   66 1   
    50   27   41 1   
    51   27   67 1   
    52   27   68 1   
    53   28   41 1   
    54   28   69 1   
    55   28   70 1   
    56   29   36 1   
    57   29   72 1   
    58   30   37 1   
    59   30   41 1   
    60   30   73 1   
    61   30   74 1   
    62   31   40 1   
    63   31   71 1   
    64   33   38 1   
    65   35   76 1   
    66   37   54 1   
    67   38   56 1   
    68   39   40 1   
    69   39   47 1   
    70   63   76 1   
    71   76   78 1   
    72   76   79 1   
@<TRIPOS>SUBSTRUCTURE
     1 Z90         1 TEMP              0 ****  ****    0 ROOT
