@<TRIPOS>MOLECULE
Z92
   40    42     1     0     0
SMALL
bcc


@<TRIPOS>ATOM
      1 C1          0.0070   -0.6560   -0.1350 c3        1 Z92      0.108700
      2 O2          1.3750   -0.2760   -0.0180 os        1 Z92     -0.300900
      3 C3          1.8840   -0.2410    1.2620 ca        1 Z92      0.116100
      4 C4          1.1480   -0.4690    2.4230 ca        1 Z92     -0.187000
      5 C5          1.7700   -0.3980    3.6720 ca        1 Z92     -0.093000
      6 C6          3.1260   -0.0850    3.7680 ca        1 Z92     -0.127900
      7 C7          3.8830    0.1380    2.6050 ca        1 Z92     -0.179000
      8 C8          3.2720    0.0620    1.3560 ca        1 Z92      0.098100
      9 O9          3.9110    0.2860    0.1540 os        1 Z92     -0.302900
     10 C10         5.3320    0.3580    0.2080 c3        1 Z92      0.107700
     11 C11         3.7720   -0.0140    5.0720 cc        1 Z92      0.294600
     12 N12         3.8690   -1.0370    5.9230 nd        1 Z92     -0.409300
     13 N13         4.4730   -0.6280    7.0550 ns        1 Z92     -0.326900
     14 C14         4.9610    0.7190    6.9680 c         1 Z92      0.606200
     15 O15         5.6200    1.2940    7.8310 o         1 Z92     -0.552500
     16 C16         4.4210    1.2110    5.6390 cc        1 Z92      0.136000
     17 N17         4.5480    2.4570    5.2640 n2        1 Z92     -0.280400
     18 N18         4.0810    2.9050    4.1280 nu        1 Z92     -0.428700
     19 C19         4.1070    4.2900    3.8070 ca        1 Z92      0.156600
     20 C20         3.4150    4.7130    2.6480 ca        1 Z92     -0.147500
     21 C21         3.4390    6.0500    2.2710 ca        1 Z92     -0.100000
     22 C22         4.1440    6.9820    3.0380 ca        1 Z92     -0.003600
     23 Cl23        4.1680    8.6150    2.5710 cl        1 Z92     -0.087400
     24 C24         4.8280    6.5740    4.1860 ca        1 Z92     -0.100000
     25 C25         4.8140    5.2380    4.5740 ca        1 Z92     -0.147500
     26 H1         -0.1650   -0.6510   -1.2420 h1        1 Z92      0.047367
     27 H1A        -0.1580   -1.6770    0.2850 h1        1 Z92      0.047367
     28 H1B        -0.6530    0.0890    0.3700 h1        1 Z92      0.047367
     29 H4          0.0770   -0.7140    2.3690 ha        1 Z92      0.147000
     30 H5          1.1840   -0.5950    4.5830 ha        1 Z92      0.151000
     31 H7          4.9590    0.3510    2.6910 ha        1 Z92      0.152000
     32 H10         5.7610   -0.5580    0.6810 h1        1 Z92      0.047700
     33 H10A        5.6570    1.2730    0.7610 h1        1 Z92      0.047700
     34 H10B        5.6270    0.4240   -0.8700 h1        1 Z92      0.047700
     35 HN13        4.9080   -1.3270    7.6170 hn        1 Z92      0.352500
     36 HN18        3.4980    2.3310    3.5370 hn        1 Z92      0.444800
     37 H20         2.8530    3.9940    2.0310 ha        1 Z92      0.155500
     38 H21         2.8990    6.3690    1.3660 ha        1 Z92      0.153000
     39 H24         5.3830    7.3080    4.7920 ha        1 Z92      0.153000
     40 H25         5.3620    4.9400    5.4830 ha        1 Z92      0.155500
@<TRIPOS>BOND
     1    1    2 1   
     2    1   26 1   
     3    1   27 1   
     4    1   28 1   
     5    2    3 1   
     6    3    4 ar  
     7    3    8 ar  
     8    4    5 ar  
     9    4   29 1   
    10    5    6 ar  
    11    5   30 1   
    12    6    7 ar  
    13    6   11 1   
    14    7    8 ar  
    15    7   31 1   
    16    8    9 1   
    17    9   10 1   
    18   10   32 1   
    19   10   33 1   
    20   10   34 1   
    21   11   12 2   
    22   11   16 1   
    23   12   13 1   
    24   13   14 1   
    25   13   35 1   
    26   14   15 2   
    27   14   16 1   
    28   16   17 2   
    29   17   18 1   
    30   18   19 1   
    31   18   36 1   
    32   19   20 ar  
    33   19   25 ar  
    34   20   21 ar  
    35   20   37 1   
    36   21   22 ar  
    37   21   38 1   
    38   22   23 1   
    39   22   24 ar  
    40   24   25 ar  
    41   24   39 1   
    42   25   40 1   
@<TRIPOS>SUBSTRUCTURE
     1 Z92         1 TEMP              0 ****  ****    0 ROOT
