@<TRIPOS>MOLECULE
Z92
   40    42     1     0     0
SMALL
bcc


@<TRIPOS>ATOM
      1 C1         -2.9760    4.5850    1.7220 c3        1 Z92      0.108700
      2 O2         -2.5270    3.9490    0.5290 os        1 Z92     -0.300900
      3 C3         -2.5030    2.5720    0.5520 ca        1 Z92      0.116100
      4 C4         -2.8010    1.7840    1.6630 ca        1 Z92     -0.187000
      5 C5         -2.7350    0.3910    1.5710 ca        1 Z92     -0.094000
      6 C6         -2.3550   -0.2190    0.3770 ca        1 Z92     -0.125900
      7 C7         -2.0600    0.5610   -0.7540 ca        1 Z92     -0.177000
      8 C8         -2.1310    1.9500   -0.6740 ca        1 Z92      0.098100
      9 O9         -1.8370    2.8120   -1.7090 os        1 Z92     -0.303900
     10 C10        -1.7200    2.2170   -2.9980 c3        1 Z92      0.107700
     11 C11        -2.2830   -1.6720    0.2830 cc        1 Z92      0.289600
     12 N12        -3.3350   -2.4900    0.3590 nd        1 Z92     -0.403300
     13 N13        -2.9300   -3.7600    0.1760 n         1 Z92     -0.335900
     14 C14        -1.5060   -3.8870    0.0800 c         1 Z92      0.611200
     15 O15        -0.8920   -4.9460   -0.0270 o         1 Z92     -0.555500
     16 C16        -1.0170   -2.4520    0.1030 cc        1 Z92      0.134000
     17 N17         0.2530   -2.1550    0.0070 n2        1 Z92     -0.276400
     18 N18         0.6900   -0.9240   -0.0010 nh        1 Z92     -0.431700
     19 C19         2.0790   -0.6220   -0.0280 ca        1 Z92      0.159600
     20 C20         2.4620    0.7340    0.0940 ca        1 Z92     -0.149000
     21 C21         3.8060    1.0840    0.0510 ca        1 Z92     -0.099500
     22 C22         4.7830    0.0980   -0.1090 ca        1 Z92     -0.004600
     23 CL23        6.4240    0.5340   -0.1590 cl        1 Z92     -0.087400
     24 C24         4.4140   -1.2450   -0.2290 ca        1 Z92     -0.099500
     25 C25         3.0720   -1.6100   -0.1890 ca        1 Z92     -0.149000
     26 H1         -4.0160    4.2670    1.9750 h1        1 Z92      0.047367
     27 H1A        -2.2810    4.3680    2.5690 h1        1 Z92      0.047367
     28 H1B        -2.9480    5.6730    1.4580 h1        1 Z92      0.047367
     29 H4         -3.1000    2.2470    2.6140 ha        1 Z92      0.147000
     30 H5         -2.9870   -0.2230    2.4490 ha        1 Z92      0.148000
     31 H7         -1.7950    0.0670   -1.7000 ha        1 Z92      0.154000
     32 H10        -0.8100    1.5710   -3.0480 h1        1 Z92      0.047700
     33 H10A       -2.6340    1.6280   -3.2530 h1        1 Z92      0.047700
     34 H10B       -1.6140    3.0990   -3.6790 h1        1 Z92      0.047700
     35 HN13       -3.5340   -4.4910    0.4780 hn        1 Z92      0.356500
     36 HN18        0.0720   -0.1410    0.1470 hn        1 Z92      0.446800
     37 H20         1.7080    1.5260    0.2220 ha        1 Z92      0.156000
     38 H21         4.0950    2.1430    0.1450 ha        1 Z92      0.153000
     39 H24         5.1830   -2.0230   -0.3550 ha        1 Z92      0.153000
     40 H25         2.8050   -2.6740   -0.2860 ha        1 Z92      0.156000
@<TRIPOS>BOND
     1    1    2 1   
     2    1   26 1   
     3    1   27 1   
     4    1   28 1   
     5    2    3 1   
     6    3    4 ar  
     7    3    8 ar  
     8    4    5 ar  
     9    4   29 1   
    10    5    6 ar  
    11    5   30 1   
    12    6    7 ar  
    13    6   11 1   
    14    7    8 ar  
    15    7   31 1   
    16    8    9 1   
    17    9   10 1   
    18   10   32 1   
    19   10   33 1   
    20   10   34 1   
    21   11   12 2   
    22   11   16 1   
    23   12   13 1   
    24   13   14 1   
    25   13   35 1   
    26   14   15 2   
    27   14   16 1   
    28   16   17 2   
    29   17   18 1   
    30   18   19 1   
    31   18   36 1   
    32   19   20 ar  
    33   19   25 ar  
    34   20   21 ar  
    35   20   37 1   
    36   21   22 ar  
    37   21   38 1   
    38   22   23 1   
    39   22   24 ar  
    40   24   25 ar  
    41   24   39 1   
    42   25   40 1   
@<TRIPOS>SUBSTRUCTURE
     1 Z92         1 TEMP              0 ****  ****    0 ROOT
