@<TRIPOS>MOLECULE
Z92
   41    43     1     0     0
SMALL
bcc


@<TRIPOS>ATOM
      1 C1          0.4370   -0.9880   -0.1060 c3        1 Z92      0.104700
      2 O2          1.5530   -0.1210    0.1090 os        1 Z92     -0.310900
      3 C3          2.1040   -0.1220    1.3630 ca        1 Z92      0.137100
      4 C4          1.5900   -0.8330    2.4560 ca        1 Z92     -0.191000
      5 C5          2.2070   -0.7460    3.7020 ca        1 Z92     -0.060000
      6 C6          3.3440    0.0490    3.8740 ca        1 Z92     -0.190900
      7 C7          3.9020    0.7220    2.7770 ca        1 Z92     -0.151000
      8 C8          3.2730    0.6670    1.5320 ca        1 Z92      0.077100
      9 O9          3.7720    1.4980    0.5490 os        1 Z92     -0.350900
     10 C10         4.1780    0.8460   -0.6590 c3        1 Z92      0.115700
     11 C11         3.9860    0.1410    5.1760 cc        1 Z92      0.224600
     12 N12         4.5200   -0.8840    5.8490 nd        1 Z92     -0.287300
     13 N13         5.0010   -0.4700    7.0180 n         1 Z92     -0.331900
     14 C14         4.8550    0.9290    7.2450 c         1 Z92      0.602200
     15 O15         5.2150    1.5820    8.2090 o         1 Z92     -0.448500
     16 C16         4.1140    1.4110    5.9620 cc        1 Z92      0.338000
     17 N17         3.7480    2.6420    5.8340 n2        1 Z92     -0.436400
     18 N18         3.0550    3.1190    4.7070 n4        1 Z92     -0.344500
     19 C19         3.7330    4.2690    4.0560 ca        1 Z92     -0.053400
     20 C20         4.0590    4.1890    2.6920 ca        1 Z92     -0.082000
     21 C21         4.6530    5.2870    2.0760 ca        1 Z92     -0.112000
     22 C22         4.9340    6.4450    2.8140 ca        1 Z92      0.060400
     23 CL23        5.6570    7.7670    2.0570 cl        1 Z92     -0.013400
     24 C24         4.6190    6.5080    4.1780 ca        1 Z92     -0.112000
     25 C25         4.0200    5.4200    4.8080 ca        1 Z92     -0.082000
     26 H1          0.7180   -2.0490    0.0980 h1        1 Z92      0.061700
     27 H1A        -0.4270   -0.6730    0.5280 h1        1 Z92      0.061700
     28 H1B         0.2080   -0.8360   -1.1920 h1        1 Z92      0.061700
     29 H4          0.6980   -1.4690    2.3380 ha        1 Z92      0.165000
     30 H5          1.7950   -1.3150    4.5520 ha        1 Z92      0.159000
     31 H7          4.8500    1.2750    2.8730 ha        1 Z92      0.157000
     32 H10         3.2950    0.3990   -1.1750 h1        1 Z92      0.059367
     33 H10A        4.6130    1.6810   -1.2650 h1        1 Z92      0.059367
     34 H10B        4.9470    0.0680   -0.4400 h1        1 Z92      0.059367
     35 HN13        5.4900   -1.1080    7.6140 hn        1 Z92      0.404500
     36 HN18        2.8660    2.3990    3.9810 hn        1 Z92      0.466300
     37 H20         3.8550    3.2840    2.0890 ha        1 Z92      0.176500
     38 H21         4.9030    5.2350    1.0020 ha        1 Z92      0.182000
     39 H24         4.8450    7.4170    4.7610 ha        1 Z92      0.182000
     40 H25         3.7880    5.4790    5.8850 ha        1 Z92      0.176500
     41 H182        2.1510    3.4740    5.0740 hn        1 Z92      0.466300
@<TRIPOS>BOND
     1    1    2 1   
     2    1   26 1   
     3    1   27 1   
     4    1   28 1   
     5    2    3 1   
     6    3    4 ar  
     7    3    8 ar  
     8    4    5 ar  
     9    4   29 1   
    10    5    6 ar  
    11    5   30 1   
    12    6    7 ar  
    13    6   11 1   
    14    7    8 ar  
    15    7   31 1   
    16    8    9 1   
    17    9   10 1   
    18   10   32 1   
    19   10   33 1   
    20   10   34 1   
    21   11   12 2   
    22   11   16 1   
    23   12   13 1   
    24   13   14 1   
    25   13   35 1   
    26   14   15 2   
    27   14   16 1   
    28   16   17 2   
    29   17   18 1   
    30   18   19 1   
    31   18   36 1   
    32   18   41 1   
    33   19   20 ar  
    34   19   25 ar  
    35   20   21 ar  
    36   20   37 1   
    37   21   22 ar  
    38   21   38 1   
    39   22   23 1   
    40   22   24 ar  
    41   24   25 ar  
    42   24   39 1   
    43   25   40 1   
@<TRIPOS>SUBSTRUCTURE
     1 Z92         1 TEMP              0 ****  ****    0 ROOT
