@<TRIPOS>MOLECULE
Z93
   51    45     1     0     0
SMALL
bcc


@<TRIPOS>ATOM
      1 N1         -2.4410    1.0140   -1.9830 n         1 Z93     -0.380000
      2 C2         -1.1030    0.6440   -1.9400 c2        1 Z93      0.298000
      3 C3         -0.6610    0.6650   -0.5030 c3        1 Z93      0.052000
      4 N4         -1.9020    0.6310    0.2450 n         1 Z93     -0.320000
      5 C5         -2.9960    0.8030   -0.6910 c2        1 Z93      0.363000
      6 O6         -4.1790    0.7770   -0.4190 o         1 Z93     -0.271000
      7 O7         -0.4010    0.3940   -2.8990 o         1 Z93     -0.324000
      8 C8          0.2420    1.8610   -0.1500 c2        1 Z93     -0.152000
      9 C9         -0.1250    2.7310    0.8640 c2        1 Z93     -0.118000
     10 C10         0.6730    3.8230    1.1630 c1        1 Z93     -0.115000
     11 C11         1.8400    4.0460    0.4480 c1        1 Z93     -0.052000
     12 C12         2.2070    3.1750   -0.5660 c1        1 Z93     -0.082500
     13 C13         1.4090    2.0830   -0.8650 c1        1 Z93     -0.098000
     14 C14         2.6870    5.0830    0.8100 c1        1 Z93     -0.052000
     15 C15         2.5560    6.3070    0.2200 c1        1 Z93     -0.124000
     16 C16         3.4460    7.3010    0.5060 c1        1 Z93     -0.124000
     17 C17         4.4820    7.0660    1.3960 c1        1 Z93     -0.050000
     18 N18         4.6130    5.8440    1.9840 n1        1 Z93     -0.129000
     19 C19         3.7240    4.8510    1.6990 c1        1 Z93     -0.082500
     20 N20        -0.5230   -1.7110   -0.2120 n2        1 Z93     -0.196000
     21 C21        -0.4500   -2.4770   -1.2350 c1        1 Z93      0.214000
     22 C22        -0.8430   -2.3550    0.9410 c1        1 Z93      0.350000
     23 C23         0.2350   -0.5080   -0.1680 c3        1 Z93     -0.043000
     24 C24        -1.0040   -3.9130    0.4870 c2        1 Z93     -0.074000
     25 C25        -0.7300   -3.8960   -0.9460 c1        1 Z93     -0.237000
     26 C26        -0.8810   -5.0490   -1.6900 c1        1 Z93      0.064000
     27 C27        -1.2980   -6.2360   -1.0680 c1        1 Z93     -0.234000
     28 C28        -1.5660   -6.2530    0.3320 c1        1 Z93      0.182000
     29 C29        -1.4130   -5.0800    1.0930 c1        1 Z93     -0.061000
     30 O30        -1.3280   -1.8470    1.9330 o         1 Z93     -0.151000
     31 O31        -2.0120   -7.3610    1.0680 os        1 Z93     -0.169000
     32 C32        -3.2080   -7.9240    0.5810 c3        1 Z93     -0.089000
     33 HN1        -2.8930    1.3120   -2.7180 hn        1 Z93      0.288000
     34 HN4        -1.9810    0.5200    1.1470 hn        1 Z93      0.247000
     35 H9         -0.9470    2.5750    1.3680 ha        1 Z93      0.136000
     36 H10         0.4140    4.4360    1.8770 ha        1 Z93      0.156000
     37 H12         3.0290    3.3310   -1.0700 ha        1 Z93      0.158000
     38 H13         1.6680    1.4700   -1.5790 ha        1 Z93      0.152000
     39 H15         1.8250    6.4710   -0.4070 ha        1 Z93      0.149000
     40 H16         3.3530    8.1750    0.0850 ha        1 Z93      0.149000
     41 H17         5.1200    7.7770    1.6010 ha        1 Z93      0.173000
     42 H19         3.8180    3.9760    2.1210 ha        1 Z93      0.158000
     43 H21         0.1270   -2.2360   -1.9860 ha        1 Z93      0.234000
     44 H23         0.6070   -0.3890    0.7310 h1        1 Z93      0.157000
     45 H23A        0.9640   -0.5580   -0.8190 h1        1 Z93      0.157000
     46 H26        -0.6970   -5.0390   -2.6500 ha        1 Z93      0.172000
     47 H27        -1.4040   -7.0510   -1.5950 ha        1 Z93      0.178000
     48 H29        -1.5970   -5.0930    2.0520 ha        1 Z93      0.201000
     49 H32        -3.0660   -8.2580   -0.3310 h1        1 Z93      0.112667
     50 H32A       -3.9130   -7.2410    0.5730 h1        1 Z93      0.112667
     51 H32B       -3.4800   -8.6670    1.1620 h1        1 Z93      0.112667
@<TRIPOS>BOND
     1    1    2 1   
     2    1    5 1   
     3    1   33 1   
     4    2    3 1   
     5    2    7 1   
     6    3    4 1   
     7    3    8 1   
     8    3   23 1   
     9    4    5 1   
    10    4   34 1   
    11    5    6 1   
    12    8    9 1   
    13    8   13 1   
    14    9   10 1   
    15    9   35 1   
    16   10   36 1   
    17   11   12 1   
    18   12   37 1   
    19   13   38 1   
    20   14   19 1   
    21   15   16 1   
    22   15   39 1   
    23   16   40 1   
    24   17   18 1   
    25   17   41 1   
    26   19   42 1   
    27   20   21 1   
    28   20   23 1   
    29   21   43 1   
    30   22   24 1   
    31   22   30 1   
    32   23   44 1   
    33   23   45 1   
    34   24   25 1   
    35   24   29 1   
    36   25   26 1   
    37   26   46 1   
    38   27   28 1   
    39   27   47 1   
    40   28   31 1   
    41   29   48 1   
    42   31   32 1   
    43   32   49 1   
    44   32   50 1   
    45   32   51 1   
@<TRIPOS>SUBSTRUCTURE
     1 Z93         1 TEMP              0 ****  ****    0 ROOT
