@<TRIPOS>MOLECULE
Z93
   51    55     1     0     0
SMALL
bcc


@<TRIPOS>ATOM
      1 N1         -0.3930   -0.3970    0.2300 ns        1 Z93     -0.604500
      2 C2          0.9970   -0.2820    0.0930 c         1 Z93      0.686500
      3 C3          1.5850   -0.1010    1.5430 c3        1 Z93      0.036700
      4 N4          0.3850   -0.0030    2.4050 ns        1 Z93     -0.532900
      5 C5         -0.7720   -0.3020    1.5930 c         1 Z93      0.761500
      6 O6         -1.9300   -0.3820    2.0190 o         1 Z93     -0.558500
      7 O7          1.6290   -0.2730   -0.9590 o         1 Z93     -0.527500
      8 C8          2.4830   -1.2690    1.8610 ca        1 Z93     -0.142300
      9 C9          1.9090   -2.4990    2.2160 ca        1 Z93     -0.109000
     10 C10         2.7100   -3.5980    2.5110 ca        1 Z93     -0.112000
     11 C11         4.1090   -3.4990    2.4500 cp        1 Z93      0.019000
     12 C12         4.6790   -2.2750    2.0750 ca        1 Z93     -0.112000
     13 C13         3.8770   -1.1740    1.7840 ca        1 Z93     -0.109000
     14 C14         4.9470   -4.6470    2.7640 cp        1 Z93     -0.189300
     15 C15         6.1180   -4.9220    2.0410 ca        1 Z93     -0.072000
     16 C16         6.8810   -6.0370    2.3840 ca        1 Z93     -0.241300
     17 C17         6.4490   -6.8480    3.4500 ca        1 Z93      0.415200
     18 N18         5.3300   -6.6020    4.1590 nb        1 Z93     -0.655000
     19 C19         4.6010   -5.5260    3.8170 ca        1 Z93      0.416200
     20 N20         1.6150    2.4380    1.4930 n         1 Z93     -0.304400
     21 C21         0.7600    2.9170    2.4110 cc        1 Z93      0.449100
     22 C22         1.6550    3.3540    0.3120 c         1 Z93      0.704100
     23 C23         2.3970    1.2270    1.5760 c3        1 Z93      0.070000
     24 C24         0.6840    4.4380    0.6430 ca        1 Z93     -0.097600
     25 C25         0.1480    4.1480    1.9500 ca        1 Z93     -0.321900
     26 C26        -0.7900    4.9920    2.5260 ca        1 Z93      0.064000
     27 C27        -1.1970    6.1250    1.8110 ca        1 Z93     -0.232000
     28 C28        -0.6690    6.3990    0.5420 ca        1 Z93      0.225100
     29 C29         0.3050    5.5340   -0.0720 ca        1 Z93     -0.060000
     30 O30         2.3820    3.1570   -0.6430 o         1 Z93     -0.421500
     31 O31        -1.0020    7.4680   -0.2250 os        1 Z93     -0.286900
     32 C32        -1.9720    8.3860    0.2970 c3        1 Z93      0.100700
     33 HN1        -1.0300   -0.6160   -0.4970 hn        1 Z93      0.376500
     34 HN4         0.4300   -0.5270    3.2570 hn        1 Z93      0.323500
     35 H9          0.8160   -2.6280    2.2470 ha        1 Z93      0.133500
     36 H10         2.2400   -4.5580    2.7820 ha        1 Z93      0.155500
     37 H12         5.7750   -2.1790    2.0130 ha        1 Z93      0.155500
     38 H13         4.3750   -0.2420    1.4780 ha        1 Z93      0.133500
     39 H15         6.4230   -4.2720    1.2070 ha        1 Z93      0.143000
     40 H16         7.8010   -6.2840    1.8350 ha        1 Z93      0.156000
     41 H17         7.0240   -7.7430    3.7540 h4        1 Z93      0.036100
     42 H19         3.6930   -5.3500    4.4240 h4        1 Z93      0.024100
     43 H21         0.5700    2.4290    3.3850 h4        1 Z93      0.095800
     44 H23         2.9990    1.2570    2.5300 h1        1 Z93      0.118200
     45 H23A        3.0910    1.2180    0.6800 h1        1 Z93      0.118200
     46 H26        -1.2140    4.7850    3.5230 ha        1 Z93      0.173000
     47 H27        -1.9440    6.8000    2.2600 ha        1 Z93      0.178000
     48 H29         0.6980    5.7810   -1.0720 ha        1 Z93      0.201000
     49 H32        -2.0550    9.1460   -0.5220 h1        1 Z93      0.073700
     50 H32A       -1.5950    8.8510    1.2400 h1        1 Z93      0.073700
     51 H32B       -2.9470    7.8660    0.4610 h1        1 Z93      0.073700
@<TRIPOS>BOND
     1    1    2 1   
     2    1    5 1   
     3    1   33 1   
     4    2    3 1   
     5    2    7 2   
     6    3    4 1   
     7    3    8 1   
     8    3   23 1   
     9    4    5 1   
    10    4   34 1   
    11    5    6 2   
    12    8    9 ar  
    13    8   13 ar  
    14    9   10 ar  
    15    9   35 1   
    16   10   11 ar  
    17   10   36 1   
    18   11   12 ar  
    19   11   14 1   
    20   12   13 ar  
    21   12   37 1   
    22   13   38 1   
    23   14   15 ar  
    24   14   19 ar  
    25   15   16 ar  
    26   15   39 1   
    27   16   17 ar  
    28   16   40 1   
    29   17   18 ar  
    30   17   41 1   
    31   18   19 ar  
    32   19   42 1   
    33   20   21 2   
    34   20   22 1   
    35   20   23 1   
    36   21   25 1   
    37   21   43 1   
    38   22   24 1   
    39   22   30 2   
    40   23   44 1   
    41   23   45 1   
    42   24   25 ar  
    43   24   29 ar  
    44   25   26 ar  
    45   26   27 ar  
    46   26   46 1   
    47   27   28 ar  
    48   27   47 1   
    49   28   29 ar  
    50   28   31 1   
    51   29   48 1   
    52   31   32 1   
    53   32   49 1   
    54   32   50 1   
    55   32   51 1   
@<TRIPOS>SUBSTRUCTURE
     1 Z93         1 TEMP              0 ****  ****    0 ROOT
