@<TRIPOS>MOLECULE
Z93
   51    55     1     0     0
SMALL
bcc


@<TRIPOS>ATOM
      1 N1         -0.4010   -0.4050    0.2460 n         1 Z93     -0.604500
      2 C2          0.9890   -0.2900    0.1020 c         1 Z93      0.686500
      3 C3          1.5840   -0.1040    1.5480 c3        1 Z93      0.036700
      4 N4          0.3880   -0.0030    2.4150 n         1 Z93     -0.532900
      5 C5         -0.7730   -0.3050    1.6100 c         1 Z93      0.761500
      6 O6         -1.9290   -0.3830    2.0430 o         1 Z93     -0.558500
      7 O7          1.6160   -0.2860   -0.9540 o         1 Z93     -0.527500
      8 C8          2.4830   -1.2720    1.8660 ca        1 Z93     -0.142300
      9 C9          1.9110   -2.5010    2.2270 ca        1 Z93     -0.109000
     10 C10         2.7120   -3.5990    2.5210 ca        1 Z93     -0.112000
     11 C11         4.1110   -3.5010    2.4530 cp        1 Z93      0.019000
     12 C12         4.6800   -2.2780    2.0730 ca        1 Z93     -0.112000
     13 C13         3.8770   -1.1770    1.7820 ca        1 Z93     -0.109000
     14 C14         4.9500   -4.6480    2.7680 cp        1 Z93     -0.189300
     15 C15         6.1180   -4.9250    2.0400 ca        1 Z93     -0.072000
     16 C16         6.8820   -6.0400    2.3830 ca        1 Z93     -0.241300
     17 C17         6.4540   -6.8480    3.4530 ca        1 Z93      0.415200
     18 N18         5.3390   -6.5990    4.1670 nb        1 Z93     -0.655000
     19 C19         4.6080   -5.5240    3.8250 ca        1 Z93      0.416200
     20 N20         1.6150    2.4340    1.4880 n         1 Z93     -0.304400
     21 C21         0.7640    2.9170    2.4080 cc        1 Z93      0.449100
     22 C22         1.6490    3.3450    0.3030 c         1 Z93      0.704100
     23 C23         2.3970    1.2230    1.5720 c3        1 Z93      0.070000
     24 C24         0.6810    4.4310    0.6340 ca        1 Z93     -0.097600
     25 C25         0.1500    4.1460    1.9450 ca        1 Z93     -0.321900
     26 C26        -0.7850    4.9930    2.5220 ca        1 Z93      0.064000
     27 C27        -1.1950    6.1230    1.8050 ca        1 Z93     -0.232000
     28 C28        -0.6730    6.3920    0.5320 ca        1 Z93      0.225100
     29 C29         0.2990    5.5250   -0.0830 ca        1 Z93     -0.060000
     30 O30         2.3720    3.1450   -0.6540 o         1 Z93     -0.421500
     31 O31        -1.0090    7.4590   -0.2360 os        1 Z93     -0.286900
     32 C32        -1.9760    8.3790    0.2860 c3        1 Z93      0.100700
     33 HN1        -1.0410   -0.6260   -0.4780 hn        1 Z93      0.376500
     34 HN4         0.4370   -0.5240    3.2680 hn        1 Z93      0.323500
     35 H9          0.8180   -2.6300    2.2630 ha        1 Z93      0.133500
     36 H10         2.2440   -4.5580    2.7970 ha        1 Z93      0.155500
     37 H12         5.7760   -2.1830    2.0060 ha        1 Z93      0.155500
     38 H13         4.3740   -0.2460    1.4710 ha        1 Z93      0.133500
     39 H15         6.4200   -4.2780    1.2030 ha        1 Z93      0.143000
     40 H16         7.7990   -6.2880    1.8310 ha        1 Z93      0.156000
     41 H17         7.0300   -7.7420    3.7570 h4        1 Z93      0.036100
     42 H19         3.7040   -5.3460    4.4350 h4        1 Z93      0.024100
     43 H21         0.5780    2.4320    3.3840 h4        1 Z93      0.095800
     44 H23         3.0040    1.2560    2.5230 h1        1 Z93      0.118200
     45 H23A        3.0870    1.2110    0.6730 h1        1 Z93      0.118200
     46 H26        -1.2040    4.7900    3.5220 ha        1 Z93      0.173000
     47 H27        -1.9390    6.8000    2.2550 ha        1 Z93      0.178000
     48 H29         0.6880    5.7680   -1.0860 ha        1 Z93      0.201000
     49 H32        -2.0620    9.1360   -0.5360 h1        1 Z93      0.073700
     50 H32A       -1.5950    8.8470    1.2250 h1        1 Z93      0.073700
     51 H32B       -2.9500    7.8600    0.4560 h1        1 Z93      0.073700
@<TRIPOS>BOND
     1    1    2 1   
     2    1    5 1   
     3    1   33 1   
     4    2    3 1   
     5    2    7 2   
     6    3    4 1   
     7    3    8 1   
     8    3   23 1   
     9    4    5 1   
    10    4   34 1   
    11    5    6 2   
    12    8    9 ar  
    13    8   13 ar  
    14    9   10 ar  
    15    9   35 1   
    16   10   11 ar  
    17   10   36 1   
    18   11   12 ar  
    19   11   14 1   
    20   12   13 ar  
    21   12   37 1   
    22   13   38 1   
    23   14   15 ar  
    24   14   19 ar  
    25   15   16 ar  
    26   15   39 1   
    27   16   17 ar  
    28   16   40 1   
    29   17   18 ar  
    30   17   41 1   
    31   18   19 ar  
    32   19   42 1   
    33   20   21 2   
    34   20   22 1   
    35   20   23 1   
    36   21   25 1   
    37   21   43 1   
    38   22   24 1   
    39   22   30 2   
    40   23   44 1   
    41   23   45 1   
    42   24   25 ar  
    43   24   29 ar  
    44   25   26 ar  
    45   26   27 ar  
    46   26   46 1   
    47   27   28 ar  
    48   27   47 1   
    49   28   29 ar  
    50   28   31 1   
    51   29   48 1   
    52   31   32 1   
    53   32   49 1   
    54   32   50 1   
    55   32   51 1   
@<TRIPOS>SUBSTRUCTURE
     1 Z93         1 TEMP              0 ****  ****    0 ROOT
