@<TRIPOS>MOLECULE
Z93
   51    55     1     0     0
SMALL
bcc


@<TRIPOS>ATOM
      1 N1         -0.5810    2.4870    0.6030 n         1 Z93     -0.604500
      2 C2         -0.0520    1.3040    1.1380 c         1 Z93      0.686500
      3 C3          0.3040    0.3720   -0.0810 c3        1 Z93      0.036700
      4 N4         -0.2010    1.1150   -1.2580 n         1 Z93     -0.532900
      5 C5         -0.6160    2.4250   -0.8130 c         1 Z93      0.761500
      6 O6         -1.0180    3.3270   -1.5570 o         1 Z93     -0.558500
      7 O7          0.0630    1.0280    2.3280 o         1 Z93     -0.527500
      8 C8          1.7910    0.1250   -0.0950 ca        1 Z93     -0.142300
      9 C9          2.6490    1.1270   -0.5720 ca        1 Z93     -0.109000
     10 C10         4.0260    0.9330   -0.5940 ca        1 Z93     -0.112000
     11 C11         4.5850   -0.2680   -0.1290 cp        1 Z93      0.019000
     12 C12         3.7280   -1.2600    0.3660 ca        1 Z93     -0.112000
     13 C13         2.3480   -1.0660    0.3840 ca        1 Z93     -0.109000
     14 C14         6.0260   -0.4740   -0.1570 cp        1 Z93     -0.189300
     15 C15         6.6940   -1.1400    0.8830 ca        1 Z93     -0.072000
     16 C16         8.0750   -1.3060    0.8050 ca        1 Z93     -0.241300
     17 C17         8.7530   -0.8010   -0.3210 ca        1 Z93      0.415200
     18 N18         8.1330   -0.1620   -1.3320 nb        1 Z93     -0.655000
     19 C19         6.8010   -0.0040   -1.2440 ca        1 Z93      0.416200
     20 N20        -1.8940   -0.8990   -0.0840 n         1 Z93     -0.304400
     21 C21        -2.5600   -0.6460   -1.2220 cc        1 Z93      0.449100
     22 C22        -2.8650   -1.0990    1.0360 c         1 Z93      0.704100
     23 C23        -0.4630   -0.9710    0.0940 c3        1 Z93      0.070000
     24 C24        -4.2060   -0.9080    0.4110 ca        1 Z93     -0.097600
     25 C25        -3.9900   -0.6330   -0.9890 ca        1 Z93     -0.321900
     26 C26        -5.0680   -0.4090   -1.8330 ca        1 Z93      0.064000
     27 C27        -6.3600   -0.4570   -1.2950 ca        1 Z93     -0.232000
     28 C28        -6.5590   -0.7260    0.0660 ca        1 Z93      0.225100
     29 C29        -5.4530   -0.9610    0.9580 ca        1 Z93     -0.060000
     30 O30        -2.5100   -1.3770    2.1660 o         1 Z93     -0.421500
     31 O31        -7.7690   -0.7920    0.6760 os        1 Z93     -0.286900
     32 C32        -8.9340   -0.5650   -0.1270 c3        1 Z93      0.100700
     33 HN1        -0.8090    3.3030    1.1170 hn        1 Z93      0.376500
     34 HN4         0.4150    1.1310   -2.0470 hn        1 Z93      0.323500
     35 H9          2.2550    2.0960   -0.9170 ha        1 Z93      0.133500
     36 H10         4.6840    1.7350   -0.9660 ha        1 Z93      0.155500
     37 H12         4.1480   -2.2070    0.7430 ha        1 Z93      0.155500
     38 H13         1.7220   -1.8700    0.7990 ha        1 Z93      0.133500
     39 H15         6.1350   -1.5150    1.7530 ha        1 Z93      0.143000
     40 H16         8.6300   -1.8180    1.6040 ha        1 Z93      0.156000
     41 H17         9.8490   -0.9110   -0.4220 h4        1 Z93      0.036100
     42 H19         6.3230    0.5180   -2.0930 h4        1 Z93      0.024100
     43 H21        -2.0650   -0.4810   -2.1970 h4        1 Z93      0.095800
     44 H23        -0.0500   -1.7200   -0.6430 h1        1 Z93      0.118200
     45 H23A       -0.2780   -1.3290    1.1530 h1        1 Z93      0.118200
     46 H26        -4.9230   -0.1940   -2.9060 ha        1 Z93      0.173000
     47 H27        -7.2220   -0.2780   -1.9590 ha        1 Z93      0.178000
     48 H29        -5.6470   -1.1690    2.0230 ha        1 Z93      0.201000
     49 H32        -9.7680   -0.6740    0.6150 h1        1 Z93      0.073700
     50 H32A       -8.9120    0.4660   -0.5560 h1        1 Z93      0.073700
     51 H32B       -9.0070   -1.3380   -0.9290 h1        1 Z93      0.073700
@<TRIPOS>BOND
     1    1    2 1   
     2    1    5 1   
     3    1   33 1   
     4    2    3 1   
     5    2    7 2   
     6    3    4 1   
     7    3    8 1   
     8    3   23 1   
     9    4    5 1   
    10    4   34 1   
    11    5    6 2   
    12    8    9 ar  
    13    8   13 ar  
    14    9   10 ar  
    15    9   35 1   
    16   10   11 ar  
    17   10   36 1   
    18   11   12 ar  
    19   11   14 1   
    20   12   13 ar  
    21   12   37 1   
    22   13   38 1   
    23   14   15 ar  
    24   14   19 ar  
    25   15   16 ar  
    26   15   39 1   
    27   16   17 ar  
    28   16   40 1   
    29   17   18 ar  
    30   17   41 1   
    31   18   19 ar  
    32   19   42 1   
    33   20   21 2   
    34   20   22 1   
    35   20   23 1   
    36   21   25 1   
    37   21   43 1   
    38   22   24 1   
    39   22   30 2   
    40   23   44 1   
    41   23   45 1   
    42   24   25 ar  
    43   24   29 ar  
    44   25   26 ar  
    45   26   27 ar  
    46   26   46 1   
    47   27   28 ar  
    48   27   47 1   
    49   28   29 ar  
    50   28   31 1   
    51   29   48 1   
    52   31   32 1   
    53   32   49 1   
    54   32   50 1   
    55   32   51 1   
@<TRIPOS>SUBSTRUCTURE
     1 Z93         1 TEMP              0 ****  ****    0 ROOT
