@<TRIPOS>MOLECULE
Z94
   28    29     1     0     0
SMALL
bcc


@<TRIPOS>ATOM
      1 C1          0.0490   -0.0260    0.0380 c3        1 Z94      0.046000
      2 C2         -0.5390    1.1710   -0.6400 ca        1 Z94     -0.154300
      3 C3          1.6090    0.0310    0.0460 c         1 Z94      0.695500
      4 N4         -0.3110   -0.1950    1.4550 ns        1 Z94     -0.505900
      5 C5         -1.1640    1.0220   -1.8810 ca        1 Z94     -0.079000
      6 C6         -0.4770    2.4420   -0.0590 ca        1 Z94     -0.079000
      7 N7          2.0040    0.0550    1.3940 ns        1 Z94     -0.616500
      8 O8          2.3680    0.0280   -0.9220 o         1 Z94     -0.565500
      9 C9          0.8680   -0.0290    2.2460 c         1 Z94      0.772500
     10 C10        -1.7210    2.1130   -2.5400 ca        1 Z94     -0.172000
     11 C11        -1.0290    3.5420   -0.7000 ca        1 Z94     -0.172000
     12 O12         0.9180   -0.0070    3.4850 o         1 Z94     -0.603500
     13 C13        -1.6660    3.3990   -1.9600 ca        1 Z94      0.092600
     14 N14        -2.2020    4.5410   -2.5670 ns        1 Z94     -0.476100
     15 C15        -2.9350    4.6140   -3.7490 c         1 Z94      0.668100
     16 C16        -3.3780    5.9980   -4.1630 c3        1 Z94     -0.179100
     17 O17        -3.2170    3.6160   -4.4330 o         1 Z94     -0.580100
     18 H1         -0.2580   -0.9700   -0.5020 h1        1 Z94      0.109700
     19 HN4        -1.1220    0.2860    1.7750 hn        1 Z94      0.317500
     20 H5         -1.2160    0.0290   -2.3560 ha        1 Z94      0.138500
     21 H6          0.0200    2.5830    0.9130 ha        1 Z94      0.138500
     22 HN7         2.9340    0.0250    1.7260 hn        1 Z94      0.358500
     23 H10        -2.2040    1.9570   -3.5200 ha        1 Z94      0.157000
     24 H11        -0.9620    4.5280   -0.2160 ha        1 Z94      0.157000
     25 HN14       -2.0440    5.3980   -2.0840 hn        1 Z94      0.317500
     26 H16        -2.4950    6.6600   -4.3310 hc        1 Z94      0.071033
     27 H16A       -3.9550    5.9140   -5.1170 hc        1 Z94      0.071033
     28 H16B       -4.0350    6.4520   -3.3820 hc        1 Z94      0.071033
@<TRIPOS>BOND
     1    1    2 1   
     2    1    3 1   
     3    1    4 1   
     4    1   18 1   
     5    2    5 ar  
     6    2    6 ar  
     7    3    7 1   
     8    3    8 2   
     9    4    9 1   
    10    4   19 1   
    11    5   10 ar  
    12    5   20 1   
    13    6   11 ar  
    14    6   21 1   
    15    7    9 1   
    16    7   22 1   
    17    9   12 2   
    18   10   13 ar  
    19   10   23 1   
    20   11   13 ar  
    21   11   24 1   
    22   13   14 1   
    23   14   15 1   
    24   14   25 1   
    25   15   16 1   
    26   15   17 2   
    27   16   26 1   
    28   16   27 1   
    29   16   28 1   
@<TRIPOS>SUBSTRUCTURE
     1 Z94         1 TEMP              0 ****  ****    0 ROOT
