@<TRIPOS>MOLECULE
Z94
   28    27     1     0     0
SMALL
bcc


@<TRIPOS>ATOM
      1 C1          1.0740   -1.9700    1.5610 c3        1 Z94      0.011000
      2 C2          0.5540   -0.8530    0.8540 c2        1 Z94     -0.147000
      3 C3          1.8140   -1.3730    2.6910 c2        1 Z94      0.305000
      4 N4         -0.0570   -2.5700    2.1400 n         1 Z94     -0.313000
      5 C5          0.4940   -1.2240   -0.4800 c2        1 Z94     -0.093000
      6 C6          0.3130    0.4610    1.2190 c1        1 Z94     -0.075000
      7 N7          1.2300   -1.8030    3.8680 n         1 Z94     -0.393000
      8 O8          2.7830   -0.6460    2.6020 o         1 Z94     -0.304000
      9 C9         -0.0050   -2.3560    3.5560 c2        1 Z94      0.366000
     10 C10         0.1920   -0.2810   -1.4480 c1        1 Z94     -0.159000
     11 C11         0.0110    1.4050    0.2500 c1        1 Z94     -0.188000
     12 O12        -0.8870   -2.6190    4.3480 o         1 Z94     -0.323000
     13 C13        -0.0500    1.0340   -1.0830 c1        1 Z94      0.098000
     14 N14        -0.3370    2.0040   -2.0760 n         1 Z94     -0.330000
     15 C15        -1.4250    1.8090   -2.9660 c2        1 Z94      0.311000
     16 C16        -1.7250    2.8390   -4.0330 c3        1 Z94     -0.247000
     17 O17        -2.1110    0.8100   -2.8760 o         1 Z94     -0.343000
     18 H1          1.5710   -2.4600    0.8780 h1        1 Z94      0.152000
     19 HN4        -0.7630   -2.9250    1.6830 hn        1 Z94      0.230000
     20 H5          0.6630   -2.1500   -0.7380 ha        1 Z94      0.139000
     21 H6          0.3560    0.7220    2.1580 ha        1 Z94      0.153000
     22 HN7         1.5070   -1.5750    4.7060 hn        1 Z94      0.272000
     23 H10         0.1490   -0.5420   -2.3870 ha        1 Z94      0.180000
     24 H11        -0.1590    2.3310    0.5080 ha        1 Z94      0.135000
     25 HN14        0.1790    2.7520   -2.1460 hn        1 Z94      0.231000
     26 H16        -1.0900    2.7380   -4.7720 hc        1 Z94      0.110667
     27 H16A       -1.6420    3.7380   -3.6510 hc        1 Z94      0.110667
     28 H16B       -2.6380    2.7080   -4.3660 hc        1 Z94      0.110667
@<TRIPOS>BOND
     1    1    2 1   
     2    1    3 1   
     3    1    4 1   
     4    1   18 1   
     5    2    5 1   
     6    2    6 1   
     7    3    7 1   
     8    3    8 1   
     9    4    9 1   
    10    4   19 1   
    11    5   10 1   
    12    5   20 1   
    13    6   21 1   
    14    7    9 1   
    15    7   22 1   
    16    9   12 1   
    17   10   23 1   
    18   11   13 1   
    19   11   24 1   
    20   13   14 1   
    21   14   15 1   
    22   14   25 1   
    23   15   16 1   
    24   15   17 1   
    25   16   26 1   
    26   16   27 1   
    27   16   28 1   
@<TRIPOS>SUBSTRUCTURE
     1 Z94         1 TEMP              0 ****  ****    0 ROOT
