@<TRIPOS>MOLECULE
Z94
   28    29     1     0     0
SMALL
bcc


@<TRIPOS>ATOM
      1 C1          2.0550    0.5550   -0.7280 c3        1 Z94      0.046000
      2 C2          0.6240    0.2680   -0.4020 ca        1 Z94     -0.154300
      3 C3          2.8320    1.0760    0.5220 c         1 Z94      0.695500
      4 N4          2.8460   -0.5980   -1.1870 n         1 Z94     -0.505900
      5 C5         -0.3800    1.0940   -0.9160 ca        1 Z94     -0.079000
      6 C6          0.2630   -0.8120    0.4100 ca        1 Z94     -0.079000
      7 N7          3.8560    0.1490    0.7750 n         1 Z94     -0.616500
      8 O8          2.6260    2.1070    1.1610 o         1 Z94     -0.565500
      9 C9          3.8460   -0.8810   -0.2050 c         1 Z94      0.772500
     10 C10        -1.7200    0.8570   -0.6330 ca        1 Z94     -0.172000
     11 C11        -1.0700   -1.0670    0.7010 ca        1 Z94     -0.172000
     12 O12         4.6270   -1.8450   -0.2160 o         1 Z94     -0.603500
     13 C13        -2.0940   -0.2330    0.1830 ca        1 Z94      0.092600
     14 N14        -3.4220   -0.5300    0.5110 n         1 Z94     -0.476100
     15 C15        -4.5750    0.1000    0.0500 c         1 Z94      0.668100
     16 C16        -5.8800   -0.4390    0.5910 c3        1 Z94     -0.179100
     17 O17        -4.5540    1.0450   -0.7570 o         1 Z94     -0.580100
     18 H1          2.1200    1.3490   -1.5300 h1        1 Z94      0.109700
     19 HN4         2.3410   -1.3830   -1.5340 hn        1 Z94      0.317500
     20 H5         -0.1130    1.9530   -1.5520 ha        1 Z94      0.138500
     21 H6          1.0380   -1.4700    0.8350 ha        1 Z94      0.138500
     22 HN7         4.5600    0.2360    1.4630 hn        1 Z94      0.358500
     23 H10        -2.4840    1.5330   -1.0550 ha        1 Z94      0.157000
     24 H11        -1.3190   -1.9250    1.3450 ha        1 Z94      0.157000
     25 HN14       -3.5480   -1.2890    1.1440 hn        1 Z94      0.317500
     26 H16        -5.9180   -0.3320    1.7020 hc        1 Z94      0.071033
     27 H16A       -6.7190    0.1480    0.1420 hc        1 Z94      0.071033
     28 H16B       -6.0050   -1.5150    0.3200 hc        1 Z94      0.071033
@<TRIPOS>BOND
     1    1    2 1   
     2    1    3 1   
     3    1    4 1   
     4    1   18 1   
     5    2    5 ar  
     6    2    6 ar  
     7    3    7 1   
     8    3    8 2   
     9    4    9 1   
    10    4   19 1   
    11    5   10 ar  
    12    5   20 1   
    13    6   11 ar  
    14    6   21 1   
    15    7    9 1   
    16    7   22 1   
    17    9   12 2   
    18   10   13 ar  
    19   10   23 1   
    20   11   13 ar  
    21   11   24 1   
    22   13   14 1   
    23   14   15 1   
    24   14   25 1   
    25   15   16 1   
    26   15   17 2   
    27   16   26 1   
    28   16   27 1   
    29   16   28 1   
@<TRIPOS>SUBSTRUCTURE
     1 Z94         1 TEMP              0 ****  ****    0 ROOT
