@<TRIPOS>MOLECULE
Z94
   29    30     1     0     0
SMALL
bcc


@<TRIPOS>ATOM
      1 C1         -0.4320    0.2880    0.2610 c3        1 Z94      0.036000
      2 C2         -0.6630    1.4810   -0.6230 ca        1 Z94     -0.043300
      3 C3          1.0000   -0.3070    0.0000 c         1 Z94      0.702500
      4 N4         -0.4610    0.4750    1.7020 n         1 Z94     -0.555900
      5 C5         -0.5750    1.2780   -2.0110 ca        1 Z94     -0.094500
      6 C6         -0.9760    2.7540   -0.1370 ca        1 Z94     -0.094500
      7 N7          1.6760   -0.2800    1.2200 n         1 Z94     -0.593500
      8 O8          1.4220   -0.7150   -1.0820 o         1 Z94     -0.567500
      9 C9          0.8260    0.2230    2.2510 c         1 Z94      0.795500
     10 C10        -0.7940    2.3220   -2.9010 ca        1 Z94     -0.097500
     11 C11        -1.2030    3.8140   -1.0130 ca        1 Z94     -0.097500
     12 O12         1.1540    0.3850    3.4320 o         1 Z94     -0.564500
     13 C13        -1.1120    3.5980   -2.3980 ca        1 Z94     -0.062400
     14 N14        -1.3230    4.7080   -3.3290 n4        1 Z94     -0.554200
     15 C15        -2.7240    4.6690   -3.9410 c         1 Z94      0.561100
     16 C16        -3.8350    5.1040   -3.0520 c3        1 Z94     -0.183100
     17 O17        -2.7610    4.3000   -5.1010 o         1 Z94     -0.396100
     18 H1         -1.1960   -0.5030   -0.0110 h1        1 Z94      0.124700
     19 HN4        -1.0600    1.1350    2.1310 hn        1 Z94      0.338500
     20 H5         -0.3000    0.2770   -2.3990 ha        1 Z94      0.182500
     21 H6         -1.0440    2.9570    0.9450 ha        1 Z94      0.182500
     22 HN7         2.5660   -0.6760    1.3990 hn        1 Z94      0.377500
     23 H10        -0.7110    2.1350   -3.9860 ha        1 Z94      0.163000
     24 H11        -1.4390    4.8080   -0.5990 ha        1 Z94      0.163000
     25 HN14       -1.1950    5.5960   -2.8330 hn        1 Z94      0.464800
     26 H16        -4.7980    4.6910   -3.4580 hc        1 Z94      0.116033
     27 H16A       -3.9010    6.2240   -3.0560 hc        1 Z94      0.116033
     28 H16B       -3.6980    4.7430   -2.0020 hc        1 Z94      0.116033
     29 H142       -0.6240    4.6410   -4.0840 hn        1 Z94      0.464800
@<TRIPOS>BOND
     1    1    2 1   
     2    1    3 1   
     3    1    4 1   
     4    1   18 1   
     5    2    5 ar  
     6    2    6 ar  
     7    3    7 1   
     8    3    8 2   
     9    4    9 1   
    10    4   19 1   
    11    5   10 ar  
    12    5   20 1   
    13    6   11 ar  
    14    6   21 1   
    15    7    9 1   
    16    7   22 1   
    17    9   12 2   
    18   10   13 ar  
    19   10   23 1   
    20   11   13 ar  
    21   11   24 1   
    22   13   14 1   
    23   14   15 1   
    24   14   25 1   
    25   14   29 1   
    26   15   16 1   
    27   15   17 2   
    28   16   26 1   
    29   16   27 1   
    30   16   28 1   
@<TRIPOS>SUBSTRUCTURE
     1 Z94         1 TEMP              0 ****  ****    0 ROOT
