@<TRIPOS>MOLECULE
Z96
   69    71     1     0     0
SMALL
bcc


@<TRIPOS>ATOM
      1 Cl          2.1640    1.8630    1.5620 cl        1 Z96     -0.100000
      2 C1          4.0830   -0.3900   -0.6010 c1        1 Z96     -0.219000
      3 N1          8.3560    3.1900   -1.6880 n         1 Z96     -0.268000
      4 O1          9.6770    4.4430   -0.2000 o         1 Z96     -0.398000
      5 C2          7.4870   -1.6170   -0.0310 c2        1 Z96      0.038000
      6 N2          2.2010    1.0070   -4.3210 nx        1 Z96     -0.133000
      7 O2          7.5860    5.1620   -0.7220 os        1 Z96     -0.280000
      8 C3          7.8490   -2.5870   -0.9870 c2        1 Z96     -0.159000
      9 N3          1.8580    3.0900   -3.2660 n2        1 Z96     -0.359000
     10 O3          1.1000    1.6600   -6.9870 oh        1 Z96     -0.253000
     11 C4          8.7470   -3.6340   -0.5710 c2        1 Z96      0.001000
     12 N4          8.0170   -1.6870    1.2410 n7        1 Z96     -0.127000
     13 C5          9.2050   -3.6830    0.7200 c2        1 Z96     -0.251000
     14 N5          7.1700    0.5660   -1.1730 n3        1 Z96     -0.245000
     15 C6          6.5320   -0.4720   -0.3570 c3        1 Z96      0.011000
     16 C7          5.2650   -1.1000   -1.0180 c3        1 Z96      0.100000
     17 C8          5.3610   -1.1660   -2.5140 c2        1 Z96     -0.354000
     18 C9          6.4680   -1.9810   -3.1230 c3        1 Z96     -0.081000
     19 C10         8.8420   -2.6740    1.6660 c1        1 Z96     -0.081000
     20 C11         2.2090    2.2930   -6.6430 c1        1 Z96      0.058000
     21 C12         7.4750   -2.6120   -2.3340 c1        1 Z96     -0.110000
     22 C13         3.0900    0.1750   -0.2400 c1        1 Z96     -0.096000
     23 C14         1.9020    0.8730    0.1310 c3        1 Z96     -0.033000
     24 C15         4.4950   -0.5330   -3.2750 c1        1 Z96      0.102000
     25 C17         6.3380    1.7640   -1.2610 c3        1 Z96     -0.110500
     26 C18         6.9970    2.8900   -2.0870 c3        1 Z96     -0.042000
     27 C19         9.1840    2.0090   -1.5430 c3        1 Z96     -0.042000
     28 C20         8.5280    0.8690   -0.7330 c3        1 Z96     -0.110500
     29 C21         2.4020    3.4450   -4.4520 c1        1 Z96      0.102000
     30 C22         8.1030    6.2830    1.3870 c3        1 Z96     -0.232667
     31 C24         8.9500    7.1950   -0.7990 c3        1 Z96     -0.232667
     32 C25         8.6120    4.2560   -0.8110 c2        1 Z96      0.384000
     33 C26         6.4950    7.1750   -0.3110 c3        1 Z96     -0.232667
     34 C27         2.6840    2.0990   -5.2580 c3        1 Z96     -0.337000
     35 C28         1.7130    1.7910   -3.0770 c1        1 Z96     -0.004000
     36 C29         7.8250    6.4540   -0.0970 c3        1 Z96      0.114000
     37 H1          5.1820   -2.1670   -0.6410 hc        1 Z96      0.133000
     38 HO3         0.8980    1.9160   -7.9070 ho        1 Z96      0.267000
     39 H4          9.0370   -4.3780   -1.3320 ha        1 Z96      0.160000
     40 H5          9.8760   -4.4790    1.0710 ha        1 Z96      0.164000
     41 H6          6.1710   -0.0200    0.6260 h1        1 Z96      0.093000
     42 H10         7.7830   -0.9700    1.8990 hn        1 Z96      0.258000
     43 H11         5.9940   -2.8060   -3.7390 hc        1 Z96      0.151000
     44 H12         7.0490   -1.3250   -3.8450 hc        1 Z96      0.151000
     45 H13         1.0750    0.1590    0.3820 h1        1 Z96      0.152000
     46 H15         1.5740    1.5590   -0.7030 h1        1 Z96      0.152000
     47 H17         5.3780    1.4760   -1.7750 h1        1 Z96      0.089000
     48 H17A        6.0770    2.1680   -0.2390 h1        1 Z96      0.089000
     49 H18         7.0410    2.5760   -3.1690 h1        1 Z96      0.120500
     50 H18A        6.3490    3.8070   -2.0070 h1        1 Z96      0.120500
     51 H19         9.4030    1.6400   -2.5850 h1        1 Z96      0.120500
     52 H19A       10.1560    2.2800   -1.0410 h1        1 Z96      0.120500
     53 H20         9.1610   -0.0500   -0.8890 h1        1 Z96      0.089000
     54 H20A        8.5620    1.1370    0.3630 h1        1 Z96      0.089000
     55 H21         3.8110    2.0280   -5.3370 hx        1 Z96      0.175000
     56 H22         7.3140    5.6480    1.8540 hc        1 Z96      0.092333
     57 H22A        9.0970    5.8000    1.5460 hc        1 Z96      0.092333
     58 H22B        8.1020    7.2850    1.8800 hc        1 Z96      0.092333
     59 H23         1.4570   -0.3830   -5.7500 hx        1 Z96      0.110333
     60 H23A        0.8720   -0.6100   -4.0260 hx        1 Z96      0.110333
     61 H23B        0.2170    0.7580   -5.0440 hx        1 Z96      0.110333
     62 H24         8.7690    7.2120   -1.9000 hc        1 Z96      0.092333
     63 H24A        8.9930    8.2440   -0.4200 hc        1 Z96      0.092333
     64 H24B        9.9300    6.6970   -0.6010 hc        1 Z96      0.092333
     65 H26         6.2790    7.2690   -1.4020 hc        1 Z96      0.092333
     66 H26A        5.6650    6.6040    0.1690 hc        1 Z96      0.092333
     67 H26B        6.5560    8.1910    0.1430 hc        1 Z96      0.092333
     68 H28         3.0060    0.4130   -4.0250 hn        1 Z96      0.267000
     69 C23         1.1280    0.1440   -4.8160 c3        1 Z96     -0.145000
@<TRIPOS>BOND
     1    1   23 1   
     2    2   16 1   
     3    2   22 1   
     4    3   26 1   
     5    3   27 1   
     6    3   32 1   
     7    4   32 1   
     8    5    8 1   
     9    5   12 1   
    10    5   15 1   
    11    6   34 1   
    12    6   35 1   
    13    6   68 1   
    14    6   69 1   
    15    7   32 1   
    16    7   36 1   
    17    8   11 1   
    18    8   21 1   
    19    9   29 1   
    20    9   35 1   
    21   10   20 1   
    22   10   38 1   
    23   11   13 1   
    24   11   39 1   
    25   12   19 1   
    26   12   42 1   
    27   13   19 1   
    28   13   40 1   
    29   14   15 1   
    30   14   25 1   
    31   14   28 1   
    32   15   16 1   
    33   15   41 1   
    34   16   17 1   
    35   16   37 1   
    36   17   18 1   
    37   17   24 1   
    38   18   21 1   
    39   18   43 1   
    40   18   44 1   
    41   20   34 1   
    42   22   23 1   
    43   23   45 1   
    44   23   46 1   
    45   25   26 1   
    46   25   47 1   
    47   25   48 1   
    48   26   49 1   
    49   26   50 1   
    50   27   28 1   
    51   27   51 1   
    52   27   52 1   
    53   28   53 1   
    54   28   54 1   
    55   29   34 1   
    56   30   36 1   
    57   30   56 1   
    58   30   57 1   
    59   30   58 1   
    60   31   36 1   
    61   31   62 1   
    62   31   63 1   
    63   31   64 1   
    64   33   36 1   
    65   33   65 1   
    66   33   66 1   
    67   33   67 1   
    68   34   55 1   
    69   59   69 1   
    70   60   69 1   
    71   61   69 1   
@<TRIPOS>SUBSTRUCTURE
     1 Z96         1 TEMP              0 ****  ****    0 ROOT
