@<TRIPOS>MOLECULE
Z96
   69    67     1     0     0
SMALL
bcc


@<TRIPOS>ATOM
      1 CL          3.5600    3.6090   -3.0040 cl        1 Z96      0.026000
      2 C1          4.5970    1.5180   -0.9290 c1        1 Z96     -0.095000
      3 N1          7.7690    4.5510   -1.4190 n         1 Z96     -0.334000
      4 O1          9.7130    5.8310   -1.2710 o         1 Z96     -0.403000
      5 C2          7.9340   -2.3220   -0.5470 c2        1 Z96     -0.079000
      6 N2         -0.1970   -1.3990   -5.7680 n3        1 Z96     -0.190000
      7 O2          7.9410    6.3190    0.0740 os        1 Z96     -0.288000
      8 C3          7.2880   -2.9060   -1.6310 c2        1 Z96     -0.136000
      9 N3         -0.3410    1.4590   -5.1590 n2        1 Z96     -0.352000
     10 O3          2.5910   -1.9330   -5.4330 o         1 Z96     -0.246000
     11 C4          7.6220   -4.2480   -1.9860 c2        1 Z96     -0.067000
     12 N4          8.8660   -3.0440    0.1670 n3        1 Z96     -0.114000
     13 C5          8.5540   -4.9300   -1.2430 c2        1 Z96     -0.220000
     14 N5          7.4010    1.9050    0.0880 n3        1 Z96     -0.099000
     15 C6          6.8320    0.7490   -0.1780 c1        1 Z96     -0.108000
     16 C7          5.3460    0.5080   -0.1990 c3        1 Z96     -0.079000
     17 C8          5.1160   -0.9320   -0.6070 c2        1 Z96     -0.372000
     18 C9          5.4100   -1.2930   -1.9890 c2        1 Z96     -0.106000
     19 C10         9.2070   -4.3160   -0.1230 c1        1 Z96     -0.140000
     20 C11         2.0570   -1.1660   -4.6410 c2        1 Z96      0.203000
     21 C12         6.3270   -2.1660   -2.4250 c2        1 Z96     -0.081000
     22 C13         3.4770    1.2260   -1.7400 c2        1 Z96     -0.244000
     23 C14         2.9450    2.0950   -2.6270 c2        1 Z96     -0.019000
     24 C15         4.6340   -1.7920    0.2770 c1        1 Z96      0.197000
     25 C17         6.7210    3.1580    0.4090 c3        1 Z96     -0.127000
     26 C18         6.5570    4.1230   -0.7830 c3        1 Z96     -0.042000
     27 C19         9.6400    1.0870   -0.5080 c2        1 Z96     -0.206000
     28 C20         8.8270    1.9830    0.0650 c2        1 Z96     -0.075000
     29 C21         0.5230    0.6980   -4.5120 c1        1 Z96      0.096000
     30 C22         9.8580    7.3370    1.1970 c3        1 Z96     -0.231667
     31 C24         8.7140    8.5060   -0.7110 c3        1 Z96     -0.231667
     32 C25         8.5580    5.5670   -0.8970 c2        1 Z96      0.383000
     33 C26         7.5040    8.1460    1.4490 c3        1 Z96     -0.231667
     34 C27         0.5740   -0.7950   -4.6810 c3        1 Z96     -0.228000
     35 C28        -1.0520    2.2860   -5.6730 c1        1 Z96      0.264000
     36 C29         8.5400    7.5790    0.4790 c3        1 Z96      0.113000
     37 H1          4.9740    0.6420    0.8750 hc        1 Z96      0.156000
     38 HO3         6.3900   -2.3680   -3.5130 ha        1 Z96      0.133000
     39 H4          7.1170   -4.7050   -2.8500 ha        1 Z96      0.132000
     40 H5          8.8360   -5.9660   -1.4760 ha        1 Z96      0.151000
     41 H6          7.7140   -1.2700   -0.2480 h4        1 Z96      0.212000
     42 H10         9.3120   -2.6030    0.9430 hn        1 Z96      0.250000
     43 H11         2.6030   -0.6750   -3.8030 h4        1 Z96      0.121000
     44 H12         4.7750   -0.7620   -2.7230 ha        1 Z96      0.117000
     45 H13         2.9590    0.2510   -1.6210 ha        1 Z96      0.118000
     46 H15         2.0450    1.8370   -3.2240 h4        1 Z96      0.182000
     47 H17         5.6810    2.9140    0.7700 h1        1 Z96      0.112500
     48 H17A        7.2760    3.6780    1.2400 h1        1 Z96      0.112500
     49 H18         6.0060    5.0280   -0.3990 h1        1 Z96      0.125500
     50 H18A        5.9170    3.6160   -1.5650 h1        1 Z96      0.125500
     51 H19         8.2780    3.8610   -1.9300 hn        1 Z96      0.235000
     52 H19A        9.2800    0.1870   -1.0260 ha        1 Z96      0.137500
     53 H20        10.7290    1.2240   -0.4730 ha        1 Z96      0.137500
     54 H20A        9.2210    2.8810    0.5790 h4        1 Z96      0.146000
     55 H21         0.1550   -1.1810   -3.6900 h1        1 Z96      0.164000
     56 H22        10.6310    6.9660    0.4810 hc        1 Z96      0.091444
     57 H22A       10.2120    8.2920    1.6520 hc        1 Z96      0.091444
     58 H22B        9.7210    6.5780    2.0040 hc        1 Z96      0.091444
     59 H23         1.1560   -1.3010   -7.3380 ha        1 Z96      0.072000
     60 H23A        1.6800   -3.6310   -6.9080 ha        1 Z96      0.003000
     61 H23B        1.0860   -3.8920   -7.1060 ha        1 Z96      0.003000
     62 H24         9.5070    8.1180   -1.3970 hc        1 Z96      0.091444
     63 H24A        9.0090    9.5200   -0.3520 hc        1 Z96      0.091444
     64 H24B        7.7550    8.5860   -1.2780 hc        1 Z96      0.091444
     65 H26         7.8680    9.1260    1.8360 hc        1 Z96      0.091444
     66 H26A        6.5290    8.2940    0.9270 hc        1 Z96      0.091444
     67 H26B        7.3510    7.4450    2.3030 hc        1 Z96      0.091444
     68 H28        -1.1090   -1.6970   -5.4850 hn        1 Z96      0.239000
     69 C23         0.1470   -1.6090   -7.0020 c1        1 Z96     -0.141000
@<TRIPOS>BOND
     1    1   23 1   
     2    2   16 1   
     3    2   22 1   
     4    3   26 1   
     5    3   32 1   
     6    3   51 1   
     7    4   32 1   
     8    5    8 1   
     9    5   12 1   
    10    5   41 1   
    11    6   34 1   
    12    6   68 1   
    13    6   69 1   
    14    7   32 1   
    15    7   36 1   
    16    8   11 1   
    17    8   21 1   
    18    9   29 1   
    19    9   35 1   
    20   10   20 1   
    21   11   13 1   
    22   11   39 1   
    23   12   19 1   
    24   12   42 1   
    25   13   19 1   
    26   13   40 1   
    27   14   15 1   
    28   14   25 1   
    29   14   28 1   
    30   15   16 1   
    31   16   17 1   
    32   16   37 1   
    33   17   18 1   
    34   17   24 1   
    35   18   21 1   
    36   18   44 1   
    37   20   34 1   
    38   20   43 1   
    39   21   38 1   
    40   22   23 1   
    41   22   45 1   
    42   23   46 1   
    43   25   26 1   
    44   25   47 1   
    45   25   48 1   
    46   26   49 1   
    47   26   50 1   
    48   27   28 1   
    49   27   52 1   
    50   27   53 1   
    51   28   54 1   
    52   29   34 1   
    53   30   36 1   
    54   30   56 1   
    55   30   57 1   
    56   30   58 1   
    57   31   36 1   
    58   31   62 1   
    59   31   63 1   
    60   31   64 1   
    61   33   36 1   
    62   33   65 1   
    63   33   66 1   
    64   33   67 1   
    65   34   55 1   
    66   59   69 1   
    67   60   61 1   
@<TRIPOS>SUBSTRUCTURE
     1 Z96         1 TEMP              0 ****  ****    0 ROOT
