@<TRIPOS>MOLECULE
Z96
   69    73     1     0     0
SMALL
bcc


@<TRIPOS>ATOM
      1 CL          3.7390   -2.6490    3.2670 cl        1 Z96     -0.085400
      2 C1          0.7900   -0.0050    3.0160 ca        1 Z96     -0.115000
      3 N1         -3.6180    0.1790   -1.1290 n         1 Z96     -0.404800
      4 O1         -5.7540    1.0280   -0.6210 o         1 Z96     -0.591000
      5 C2          0.6100    2.6110    0.7800 ca        1 Z96      0.424600
      6 N2          4.3200   -0.7060   -2.4890 na        1 Z96     -0.193900
      7 O2         -5.2380   -1.1080   -0.0570 os        1 Z96     -0.446900
      8 C3          1.5020    2.5320   -0.3180 ca        1 Z96     -0.145100
      9 N3          5.2650   -2.7230   -2.0020 nc        1 Z96     -0.661000
     10 O3          1.1670   -0.9480   -2.7640 oh        1 Z96     -0.574800
     11 C4          2.2270    3.6870   -0.6640 ca        1 Z96     -0.092000
     12 N4          0.4450    3.7430    1.5090 nb        1 Z96     -0.665000
     13 C5          2.0650    4.8480    0.0830 ca        1 Z96     -0.243300
     14 N5         -1.0840    0.9390    0.1100 n3        1 Z96     -0.719600
     15 C6         -0.2000    1.3820    1.1980 c3        1 Z96      0.181500
     16 C7          0.7920    0.3380    1.6570 ca        1 Z96     -0.070300
     17 C8          1.7250   -0.2580    0.7900 ca        1 Z96     -0.026800
     18 C9          1.7750    0.0710   -0.6350 ce        1 Z96     -0.061400
     19 C10         1.1620    4.8240    1.1640 ca        1 Z96      0.402200
     20 C11         1.9160   -1.1090   -1.5720 c3        1 Z96      0.259600
     21 C12         1.6730    1.3280   -1.1070 cf        1 Z96     -0.079200
     22 C13         1.6960   -0.9280    3.5250 ca        1 Z96     -0.121000
     23 C14         2.6230   -1.5210    2.6610 ca        1 Z96      0.019400
     24 C15         2.6380   -1.1920    1.3060 ca        1 Z96     -0.124000
     25 C17        -1.6760   -0.3670    0.3670 c3        1 Z96      0.135800
     26 C18        -2.6290   -0.8150   -0.7630 c3        1 Z96      0.070500
     27 C19        -3.0540    1.5030   -1.3220 c3        1 Z96      0.070500
     28 C20        -2.0930    1.9480   -0.1990 c3        1 Z96      0.135800
     29 C21         3.9450   -2.7210   -1.5710 cc        1 Z96      0.311200
     30 C22        -7.1090   -0.5210    1.4020 c3        1 Z96     -0.113433
     31 C24        -7.5050   -1.2540   -0.9700 c3        1 Z96     -0.113433
     32 C25        -4.9100    0.1170   -0.5870 c         1 Z96      0.728100
     33 C26        -6.5660   -2.8610    0.7020 c3        1 Z96     -0.113433
     34 C27         3.3330   -1.4780   -1.8560 cd        1 Z96     -0.256900
     35 C28         5.4720   -1.5070   -2.5510 cd        1 Z96      0.394400
     36 C29        -6.6250   -1.3990    0.2600 c3        1 Z96      0.185800
     37 H1          0.0630    0.4670    3.6980 ha        1 Z96      0.144000
     38 HO3         1.5630   -0.2370   -3.2800 ho        1 Z96      0.395000
     39 H4          2.9210    3.6620   -1.5170 ha        1 Z96      0.134000
     40 H5          2.6220    5.7630   -0.1550 ha        1 Z96      0.147000
     41 H6         -0.8380    1.6640    2.1000 h1        1 Z96      0.058700
     42 H10         1.0010    5.7210    1.7880 h4        1 Z96      0.026100
     43 H11         1.4240   -2.0090   -1.0850 h1        1 Z96      0.103700
     44 H12         1.7170    1.5120   -2.1970 ha        1 Z96      0.122000
     45 H13         1.6850   -1.1860    4.5950 ha        1 Z96      0.151000
     46 H15         3.3770   -1.6600    0.6330 ha        1 Z96      0.164000
     47 H17        -0.8400   -1.1200    0.4240 h1        1 Z96      0.046450
     48 H17A       -2.2350   -0.3910    1.3480 h1        1 Z96      0.046450
     49 H18        -3.1300   -1.7700   -0.4430 h1        1 Z96      0.078200
     50 H18A       -2.0230   -1.0200   -1.6920 h1        1 Z96      0.078200
     51 H19        -2.4940    1.4700   -2.2990 h1        1 Z96      0.078200
     52 H19A       -3.8810    2.2640   -1.4010 h1        1 Z96      0.078200
     53 H20        -2.7010    2.2260    0.7110 h1        1 Z96      0.046450
     54 H20A       -1.5590    2.8730   -0.5510 h1        1 Z96      0.046450
     55 H21         3.4970   -3.5910   -1.0910 h4        1 Z96      0.047100
     56 H22        -7.2050    0.5400    1.0670 hc        1 Z96      0.051478
     57 H22A       -8.1050   -0.8840    1.7510 hc        1 Z96      0.051478
     58 H22B       -6.3870   -0.5670    2.2520 hc        1 Z96      0.051478
     59 H23         3.9760    1.3360   -2.1440 h1        1 Z96      0.055033
     60 H23A        5.1970    0.9280   -3.4450 h1        1 Z96      0.055033
     61 H23B        3.4140    0.6940   -3.7630 h1        1 Z96      0.055033
     62 H24        -7.0660   -1.8240   -1.8240 hc        1 Z96      0.051478
     63 H24A       -8.5210   -1.6570   -0.7480 hc        1 Z96      0.051478
     64 H24B       -7.5960   -0.1800   -1.2630 hc        1 Z96      0.051478
     65 H26        -5.8890   -2.9700    1.5810 hc        1 Z96      0.051478
     66 H26A       -7.5920   -3.1970    0.9820 hc        1 Z96      0.051478
     67 H26B       -6.1820   -3.4990   -0.1280 hc        1 Z96      0.051478
     68 H28         6.4070   -1.1560   -2.9990 h5        1 Z96      0.062100
     69 C23         4.2200    0.6250   -2.9820 c3        1 Z96      0.017600
@<TRIPOS>BOND
     1    1   23 1   
     2    2   16 ar  
     3    2   22 ar  
     4    2   37 1   
     5    3   26 1   
     6    3   27 1   
     7    3   32 1   
     8    4   32 2   
     9    5    8 ar  
    10    5   12 ar  
    11    5   15 1   
    12    6   34 1   
    13    6   35 1   
    14    6   69 1   
    15    7   32 1   
    16    7   36 1   
    17    8   11 ar  
    18    8   21 1   
    19    9   29 1   
    20    9   35 2   
    21   10   20 1   
    22   10   38 1   
    23   11   13 ar  
    24   11   39 1   
    25   12   19 ar  
    26   13   19 ar  
    27   13   40 1   
    28   14   15 1   
    29   14   25 1   
    30   14   28 1   
    31   15   16 1   
    32   15   41 1   
    33   16   17 ar  
    34   17   18 1   
    35   17   24 ar  
    36   18   20 1   
    37   18   21 2   
    38   19   42 1   
    39   20   34 1   
    40   20   43 1   
    41   21   44 1   
    42   22   23 ar  
    43   22   45 1   
    44   23   24 ar  
    45   24   46 1   
    46   25   26 1   
    47   25   47 1   
    48   25   48 1   
    49   26   49 1   
    50   26   50 1   
    51   27   28 1   
    52   27   51 1   
    53   27   52 1   
    54   28   53 1   
    55   28   54 1   
    56   29   34 2   
    57   29   55 1   
    58   30   36 1   
    59   30   56 1   
    60   30   57 1   
    61   30   58 1   
    62   31   36 1   
    63   31   62 1   
    64   31   63 1   
    65   31   64 1   
    66   33   36 1   
    67   33   65 1   
    68   33   66 1   
    69   33   67 1   
    70   35   68 1   
    71   59   69 1   
    72   60   69 1   
    73   61   69 1   
@<TRIPOS>SUBSTRUCTURE
     1 Z96         1 TEMP              0 ****  ****    0 ROOT
