@<TRIPOS>MOLECULE
Z97
   41    41     1     0     0
SMALL
bcc


@<TRIPOS>ATOM
      1 C           7.1180   -0.9330    0.4810 c         1 Z97      0.887600
      2 N           5.9160   -0.7160   -1.7420 n3        1 Z97     -0.896800
      3 O           7.9280   -1.7100   -0.1090 o         1 Z97     -0.856300
      4 N1         -3.3440    3.2450   -0.3290 nb        1 Z97     -0.668000
      5 C2         -2.0600    3.6870   -0.3490 ca        1 Z97      0.286600
      6 C3         -0.9650    2.8070   -0.1480 ca        1 Z97      0.052800
      7 O3          0.2670    3.4120   -0.1970 oh        1 Z97     -0.539100
      8 C4         -1.1910    1.4260    0.0750 ca        1 Z97     -0.239900
      9 C5         -2.5260    0.9800    0.0960 ca        1 Z97     -0.076600
     10 C6         -3.5510    1.9450   -0.1130 ca        1 Z97      0.359200
     11 CA          5.9200   -0.3450   -0.3320 c3        1 Z97      0.029500
     12 CB          4.6120   -0.6740    0.3970 c3        1 Z97     -0.069400
     13 CD          2.1640   -0.1810    0.6550 c3        1 Z97      0.120800
     14 NE          1.1260    0.7900    0.4400 n2        1 Z97     -0.687900
     15 CG          3.4470    0.1450   -0.1180 c3        1 Z97     -0.071400
     16 C4A        -0.1060    0.4500    0.2720 ce        1 Z97      0.506800
     17 C5A        -2.9400   -0.4460    0.3240 c3        1 Z97      0.207700
     18 OP1        -4.0860   -2.5200    1.8980 o         1 Z97     -0.929833
     19 OP2        -3.9980   -2.8930   -0.6150 o         1 Z97     -0.929833
     20 OP3        -6.2160   -2.2490    0.4970 o         1 Z97     -0.929833
     21 OP4        -4.3080   -0.5850    0.3150 os        1 Z97     -0.563200
     22 OXT         7.2490   -0.5770    1.6860 o         1 Z97     -0.856300
     23 HN          6.8650   -0.9380   -2.0010 hn        1 Z97      0.329300
     24 HNA         5.3840   -1.5590   -1.8580 hn        1 Z97      0.329300
     25 HO3         0.9550    2.7470   -0.0210 ho        1 Z97      0.456000
     26 H6         -4.6020    1.5840   -0.0930 h4        1 Z97      0.075100
     27 HA          6.0540    0.7770   -0.3090 h1        1 Z97      0.040700
     28 HB          4.3810   -1.7670    0.3010 hc        1 Z97      0.044700
     29 HBA         4.7800   -0.4620    1.4870 hc        1 Z97      0.044700
     30 HD          2.4010   -0.1670    1.7600 h1        1 Z97      0.035700
     31 HDA         1.8490   -1.2340    0.3990 h1        1 Z97      0.035700
     32 HG          3.6930    1.2340   -0.0170 hc        1 Z97      0.040700
     33 HGA         3.2850   -0.0590   -1.2080 hc        1 Z97      0.040700
     34 H2A        -1.1850    5.5370    0.2770 hc        1 Z97      0.024033
     35 H2AA       -1.1390    5.2340   -1.5060 hc        1 Z97      0.024033
     36 H2AB       -2.6970    5.7370   -0.7140 hc        1 Z97      0.024033
     37 H4A        -0.4580   -0.6100    0.2700 h4        1 Z97      0.013800
     38 H5A        -2.4930   -1.0980   -0.4880 h1        1 Z97      0.049700
     39 H5AA       -2.5340   -0.7980    1.3210 h1        1 Z97      0.049700
     40 C2A        -1.7680    5.1310   -0.5870 c3        1 Z97     -0.106400
     41 P          -4.7150   -2.2730    0.5540 p5        1 Z97      1.310900
@<TRIPOS>BOND
     1    1    3 1   
     2    1   11 1   
     3    1   22 1   
     4    2   11 1   
     5    2   23 1   
     6    2   24 1   
     7    4    5 ar  
     8    4   10 ar  
     9    5    6 ar  
    10    5   40 1   
    11    6    7 1   
    12    6    8 ar  
    13    7   25 1   
    14    8    9 ar  
    15    8   16 1   
    16    9   10 ar  
    17    9   17 1   
    18   10   26 1   
    19   11   12 1   
    20   11   27 1   
    21   12   15 1   
    22   12   28 1   
    23   12   29 1   
    24   13   14 1   
    25   13   15 1   
    26   13   30 1   
    27   13   31 1   
    28   14   16 2   
    29   15   32 1   
    30   15   33 1   
    31   16   37 1   
    32   17   21 1   
    33   17   38 1   
    34   17   39 1   
    35   18   41 1   
    36   19   41 1   
    37   20   41 1   
    38   21   41 1   
    39   34   40 1   
    40   35   40 1   
    41   36   40 1   
@<TRIPOS>SUBSTRUCTURE
     1 Z97         1 TEMP              0 ****  ****    0 ROOT
