@<TRIPOS>MOLECULE
Z97
   42    38     1     0     0
SMALL
bcc


@<TRIPOS>ATOM
      1 C       -1624.2710 -440.8250 -881.9770 c2        1 Z97      0.368000
      2 N       -1624.5450 -442.8210 -880.5010 n2        1 Z97     -0.267000
      3 O       -1623.9070 -441.0760 -883.1570 o         1 Z97     -0.560000
      4 N1        333.7500   88.5040  175.1420 n2        1 Z97     -0.274000
      5 C2        332.4880   88.6690  175.6630 c2        1 Z97      0.101000
      6 C3        332.2480   89.1130  176.9710 c2        1 Z97     -0.245000
      7 O3        330.9270   89.2240  177.4020 oh        1 Z97     -0.310000
      8 C4        333.3200   89.3960  177.8680 c2        1 Z97      0.073000
      9 C5        334.6980   89.2850  177.2830 c3        1 Z97     -0.201000
     10 C6        334.7940   88.8050  175.8720 c1        1 Z97     -0.183000
     11 CA      -1625.0580 -441.9180 -881.2430 c2        1 Z97     -0.100000
     12 CB        329.5050   88.2620  179.2560 c1        1 Z97      0.120000
     13 CD        331.9550   90.2260  181.1590 c2        1 Z97     -0.159000
     14 NE        332.0450   89.7900  179.9400 n3        1 Z97     -0.001000
     15 CG        328.9670   87.4240  178.4170 c2        1 Z97     -0.518000
     16 C4A       333.2320   89.7420  179.1950 c2        1 Z97     -0.316000
     17 C5A       333.7850   91.2880  182.8920 c1        1 Z97      0.103000
     18 OP1       335.2560   93.6500  184.5080 o         1 Z97     -0.737000
     19 OP2       335.5080   91.2710  185.6060 o         1 Z97     -0.737000
     20 OP3       333.4120   91.7930  184.0660 os        1 Z97     -0.651500
     21 OP4       335.0980   91.4720  182.9860 os        1 Z97     -0.651500
     22 OXT     -1624.1150 -439.7290 -881.3750 o         1 Z97     -0.560000
     23 HN        326.7050   86.0940  180.3300 ha        1 Z97      0.003750
     24 HNA     -1625.2140 -443.4520 -880.1010 hn        1 Z97      0.075000
     25 HO3       330.6290   90.1000  177.1160 ho        1 Z97      0.189000
     26 H6        335.1970   90.2930  177.3240 hc        1 Z97      0.122500
     27 HA        329.3780   87.3740  177.3870 ha        1 Z97      0.194500
     28 HB        328.1390   86.7290  178.6070 ha        1 Z97      0.194500
     29 HBA     -1626.1520 -441.8270 -881.4390 h4        1 Z97      0.045000
     30 HD        328.0650   87.6750  181.0520 ha        1 Z97      0.003750
     31 HDA       328.4670   88.1240  181.3680 ha        1 Z97      0.003750
     32 HG        332.8610   90.6700  181.8070 h4        1 Z97      0.222000
     33 HGA       330.9650   90.1870  181.6500 h4        1 Z97      0.222000
     34 H2A       330.7940   89.3660  174.5590 hc        1 Z97      0.081667
     35 H2AA      330.5740   87.7520  175.3550 hc        1 Z97      0.081667
     36 H2AB      331.5790   87.8910  173.8430 hc        1 Z97      0.081667
     37 H4A       331.2180   89.4220  179.4680 hn        1 Z97      0.264000
     38 H5A       335.3120   88.5880  177.9170 hc        1 Z97      0.122500
     39 H5AA      334.1400   89.9960  179.7700 h4        1 Z97      0.172000
     40 P         335.0460   92.2110  184.5930 p5        1 Z97      1.804000
     41 HN3       326.4500   85.6900  179.8500 ha        1 Z97      0.003750
     42 C2A       331.2980   88.3970  174.7980 c3        1 Z97     -0.182000
@<TRIPOS>BOND
     1    1    3 1   
     2    1   11 1   
     3    1   22 1   
     4    2   11 1   
     5    2   24 1   
     6    4    5 1   
     7    4   10 1   
     8    5    6 1   
     9    5   42 1   
    10    6    7 1   
    11    6    8 1   
    12    7   25 1   
    13    8    9 1   
    14    8   16 1   
    15    9   10 1   
    16    9   26 1   
    17    9   38 1   
    18   11   29 1   
    19   12   15 1   
    20   13   14 1   
    21   13   32 1   
    22   13   33 1   
    23   14   16 1   
    24   14   37 1   
    25   15   27 1   
    26   15   28 1   
    27   16   39 1   
    28   17   20 1   
    29   17   21 1   
    30   18   40 1   
    31   19   40 1   
    32   20   40 1   
    33   21   40 1   
    34   23   41 1   
    35   30   31 1   
    36   34   42 1   
    37   35   42 1   
    38   36   42 1   
@<TRIPOS>SUBSTRUCTURE
     1 Z97         1 TEMP              0 ****  ****    0 ROOT
