@<TRIPOS>MOLECULE
Z97
   42    54     1     0     0
SMALL
bcc


@<TRIPOS>ATOM
      1 C           0.0000    0.0000    0.0000 c2        1 Z97      0.455000
      2 N           1.9980    1.1980   -0.6940 nz        1 Z97      0.066000
      3 O          -0.6710   -1.1440    0.2030 o         1 Z97     -0.564500
      4 N1         10.4460    0.3770    3.3340 n2        1 Z97     -0.140000
      5 C2          9.7270   -0.6280    2.8760 c3        1 Z97     -0.137000
      6 C3          8.3420   -0.5600    2.8560 c2        1 Z97     -0.309000
      7 O3          7.6070   -1.5990    2.3840 oh        1 Z97     -0.256000
      8 C4          7.7130    0.6020    3.3320 c3        1 Z97     -0.300000
      9 C5          8.5220    1.6410    3.8060 DU        1 Z97      0.106000
     10 C6          9.8930    1.4850    3.7890 c2        1 Z97     -0.219000
     11 CA          1.5070    0.0000    0.0000 DU        1 Z97     -0.169000
     12 CB          2.0180    0.0000    1.4420 c3        1 Z97     -0.616000
     13 CD          4.0530   -0.1260    2.8850 DU        1 Z97      0.350000
     14 NE          5.5130   -0.2470    2.8870 n2        1 Z97     -0.264000
     15 CG          3.5430   -0.1260    1.4440 DU        1 Z97     -0.417000
     16 C4A         6.2420    0.7240    3.3300 c2        1 Z97     -0.286000
     17 C5A         7.9040    2.9120    4.3300 c3        1 Z97      0.311000
     18 OP1         7.9540    6.1900    4.2410 o         1 Z97     -0.584167
     19 OP2        10.0190    5.9360    5.8470 o         1 Z97     -0.584167
     20 OP3         7.7230    5.1340    6.5200 o         1 Z97     -0.584167
     21 OP4         8.9370    3.8050    4.7500 os        1 Z97     -0.302000
     22 OXT        -0.6030    1.0320   -0.1770 o         1 Z97     -0.564500
     23 HN          2.6630    1.6110   -0.0710 hn        1 Z97      0.143333
     24 HNA         2.8690    0.8580   -0.3390 hn        1 Z97      0.143333
     25 HO3         6.8930   -1.2550    1.8740 ho        1 Z97      0.232000
     26 H6          8.9240    1.5530    3.3090 DU        1 Z97      0.108000
     27 HA          2.5290   -0.2710    0.2380 DU        1 Z97      0.186000
     28 HB          3.0180    0.2690    1.7600 DU        1 Z97      0.029000
     29 HBA         1.9430   -0.4480    0.4580 DU        1 Z97      0.198000
     30 HD          3.0710   -0.4100    2.5260 DU        1 Z97      0.079500
     31 HDA         3.1300    0.2940    2.5050 DU        1 Z97      0.261000
     32 HG          3.5810   -0.5500    2.4400 DU        1 Z97      0.079500
     33 HGA         3.6550    0.3420    2.4140 DU        1 Z97     -0.185000
     34 H2A         9.4360   -1.4730    2.1470 DU        1 Z97      0.384000
     35 H2AA        9.3680   -1.7380    2.1450 hc        1 Z97      0.243000
     36 H2AB       11.4980   -1.9690    2.4160 hc        1 Z97      0.243000
     37 H4A         7.0890    0.0520    3.4090 DU        1 Z97      0.227000
     38 H5A         8.1700    1.9420    3.9290 h1        1 Z97     -0.061000
     39 H5AA        7.5060    1.9090    4.2330 DU        1 Z97      0.276000
     40 P           8.6380    5.2630    5.3650 p5        1 Z97      0.883500
     41 HN3         2.5830    1.4290    0.0840 hn        1 Z97      0.143333
     42 C2A        10.4200   -1.8680    2.3700 c3        1 Z97     -0.601000
@<TRIPOS>BOND
     1    1    3 1   
     2    1   11 1   
     3    1   22 1   
     4    2   11 1   
     5    2   23 1   
     6    2   24 1   
     7    2   41 1   
     8    4    5 1   
     9    4   10 1   
    10    5    6 1   
    11    5   34 1   
    12    5   42 1   
    13    6    7 1   
    14    6    8 1   
    15    7   25 1   
    16    8    9 1   
    17    8   16 1   
    18    8   37 1   
    19    9   10 1   
    20    9   17 1   
    21    9   26 1   
    22    9   39 1   
    23   10   26 1   
    24   11   12 1   
    25   11   27 1   
    26   11   29 1   
    27   12   15 1   
    28   12   28 1   
    29   12   29 1   
    30   13   14 1   
    31   13   15 1   
    32   13   30 1   
    33   13   31 1   
    34   13   32 1   
    35   13   33 1   
    36   14   16 1   
    37   15   28 1   
    38   15   30 1   
    39   15   31 1   
    40   15   32 1   
    41   16   37 1   
    42   17   21 1   
    43   17   38 1   
    44   17   39 1   
    45   18   40 1   
    46   19   40 1   
    47   20   40 1   
    48   21   40 1   
    49   27   29 1   
    50   30   32 1   
    51   31   33 1   
    52   34   42 1   
    53   35   42 1   
    54   36   42 1   
@<TRIPOS>SUBSTRUCTURE
     1 Z97         1 TEMP              0 ****  ****    0 ROOT
