@<TRIPOS>MOLECULE
Z98
   39    36     1     0     0
SMALL
bcc


@<TRIPOS>ATOM
      1 C        -242.6820  272.2120 -282.7440 c2        1 Z98      0.352000
      2 N        -242.2980  268.9060 -284.6510 n3        1 Z98     -0.314000
      3 OXT      -242.1520  272.7500 -281.7270 o         1 Z98     -0.583000
      4 N1         89.2000  -93.3480   98.4560 n2        1 Z98     -0.230000
      5 C2         88.0200  -93.9490   98.4690 c2        1 Z98      0.134000
      6 C3         87.6350  -94.8790   99.5430 c2        1 Z98     -0.065000
      7 O3         86.3580  -95.3850   99.4210 oh        1 Z98     -0.266000
      8 C4         88.5270  -95.1990  100.5210 c2        1 Z98     -0.097000
      9 C5         89.8610  -94.5540  100.5100 c3        1 Z98     -0.259000
     10 C6         90.1060  -93.5610   99.4440 c1        1 Z98     -0.028000
     11 CA       -242.7000  270.1750 -284.1850 c2        1 Z98     -0.134000
     12 CB       -242.2270  270.8200 -283.1060 c2        1 Z98     -0.246000
     13 ND         87.5910  -95.7070  102.7150 n2        1 Z98     -0.305000
     14 CG         87.0650  -95.3020  103.6890 c1        1 Z98      0.051000
     15 C4A        88.2560  -96.2180  101.5870 c3        1 Z98     -0.071000
     16 C5A        90.8370  -97.5270  101.9340 c1        1 Z98      0.096000
     17 OP1        93.9440  -98.1790  102.5440 o         1 Z98     -0.747000
     18 OP2        92.9230  -99.5600  100.5590 o         1 Z98     -0.747000
     19 OP3        91.3250  -98.6450  102.4700 os        1 Z98     -0.671000
     20 OP4        91.8860  -97.1950  101.1710 os        1 Z98     -0.671000
     21 O        -243.5690  272.7760 -283.4510 o         1 Z98     -0.583000
     22 HN       -241.7160  268.4310 -283.9880 hn        1 Z98      0.129500
     23 HNA      -243.0960  268.3360 -284.8540 hn        1 Z98      0.129500
     24 HO3        86.1500  -95.8790  100.2270 ho        1 Z98      0.223000
     25 H6         90.6720  -95.3550  100.4380 hc        1 Z98      0.195000
     26 HA         84.4710  -96.0840   98.1180 ha        1 Z98      0.001250
     27 HB         85.5260  -97.7870   99.2020 ha        1 Z98      0.001250
     28 HBA      -243.4400  270.6780 -284.8410 h4        1 Z98      0.152000
     29 HG       -241.4850  270.3820 -282.4250 ha        1 Z98      0.097000
     30 HGA        85.8780  -98.0520   99.7170 ha        1 Z98      0.001250
     31 H2A        87.3420  -93.0090   96.6250 hc        1 Z98      0.104000
     32 H2AA       86.7570  -94.7110   96.9310 hc        1 Z98      0.104000
     33 H2AB       86.0600  -93.3390   97.8830 hc        1 Z98      0.104000
     34 H4A        89.2820  -96.7020  101.9080 h1        1 Z98      0.168500
     35 H5A        90.0570  -94.0510  101.5010 hc        1 Z98      0.195000
     36 H5AA       87.6280  -97.0550  101.1550 h1        1 Z98      0.168500
     37 P          92.8740  -98.5730  101.6340 p5        1 Z98      1.803000
     38 HN3        84.6920  -95.5390   97.7800 ha        1 Z98      0.001250
     39 C2A        86.9970  -93.7260   97.4080 c3        1 Z98     -0.197000
@<TRIPOS>BOND
     1    1    3 1   
     2    1   12 1   
     3    1   21 1   
     4    2   11 1   
     5    2   22 1   
     6    2   23 1   
     7    4    5 1   
     8    4   10 1   
     9    5    6 1   
    10    5   39 1   
    11    6    7 1   
    12    6    8 1   
    13    7   24 1   
    14    8    9 1   
    15    8   15 1   
    16    9   10 1   
    17    9   25 1   
    18    9   35 1   
    19   11   12 1   
    20   11   28 1   
    21   12   29 1   
    22   13   14 1   
    23   13   15 1   
    24   15   34 1   
    25   15   36 1   
    26   16   19 1   
    27   16   20 1   
    28   17   37 1   
    29   18   37 1   
    30   19   37 1   
    31   20   37 1   
    32   26   38 1   
    33   27   30 1   
    34   31   39 1   
    35   32   39 1   
    36   33   39 1   
@<TRIPOS>SUBSTRUCTURE
     1 Z98         1 TEMP              0 ****  ****    0 ROOT
