@<TRIPOS>MOLECULE
Z98
   39    48     1     0     0
SMALL
bcc


@<TRIPOS>ATOM
      1 C           0.0000    0.0000    0.0000 c2        1 Z98      0.425000
      2 N           1.9970    1.1990   -0.6930 nz        1 Z98     -0.212000
      3 OXT        -0.6050    1.0300   -0.1870 o         1 Z98     -0.580500
      4 N1          5.7230   -4.3360    1.0470 n2        1 Z98      0.025000
      5 C2          6.1270   -3.1460    0.6510 c3        1 Z98     -0.293000
      6 C3          5.8080   -2.0090    1.3790 c2        1 Z98     -0.157000
      7 O3          6.2290   -0.7860    0.9670 oh        1 Z98     -0.251000
      8 C4          5.0440   -2.1450    2.5490 c3        1 Z98     -0.206000
      9 C5          4.6390   -3.4310    2.9250 c2        1 Z98     -0.157000
     10 C6          5.0030   -4.5050    2.1390 c2        1 Z98     -0.291000
     11 CA          1.5060    0.0000    0.0000 DU        1 Z98      0.239000
     12 CB          2.0170    0.0000    1.4420 DU        1 Z98     -0.272000
     13 ND          4.0390    0.0180    2.8170 n2        1 Z98     -0.056000
     14 CG          3.5440   -0.0990    1.4440 c3        1 Z98     -0.805000
     15 C4A         4.6800   -0.9660    3.3600 c2        1 Z98     -0.374000
     16 C5A         3.8180   -3.6390    4.1720 c3        1 Z98      0.305000
     17 OP1         3.4730   -5.3690    6.9370 o         1 Z98     -0.540500
     18 OP2         2.4520   -7.1990    5.3480 o         1 Z98     -0.540500
     19 OP3         1.3670   -4.9350    5.6140 o         1 Z98     -0.540500
     20 OP4         3.5370   -5.0320    4.3300 os        1 Z98     -0.366000
     21 O          -0.6730   -1.1450    0.2020 o         1 Z98     -0.580500
     22 HN          2.0620    0.4680   -0.0120 DU        1 Z98     -0.272000
     23 HNA         2.7790    0.5760   -0.6540 hn        1 Z98      0.084000
     24 HO3         5.4670   -0.2680    0.7680 ho        1 Z98      0.255000
     25 H6          4.5260   -3.6850    1.6150 h4        1 Z98      0.308000
     26 HA          2.5510   -0.1060    0.2680 DU        1 Z98      0.013500
     27 HB          2.4840   -0.9620    1.6140 DU        1 Z98      0.363000
     28 HBA         1.9430   -0.4470    0.4590 DU        1 Z98      0.013500
     29 HG          2.5650   -0.4780    1.7110 DU        1 Z98      0.317000
     30 HGA         2.6230    0.4150    1.6910 h1        1 Z98      0.089000
     31 H2A         6.1110   -2.4910   -0.1650 DU        1 Z98      0.313000
     32 H2AA        6.2990   -2.2110   -0.2930 DU        1 Z98      0.235000
     33 H2AB        7.2630   -3.9040   -1.1470 hc        1 Z98      0.189000
     34 H4A         5.2260   -1.2040    2.4550 DU        1 Z98      0.292000
     35 H5A         4.6170   -3.5480    3.4460 h1        1 Z98      0.154500
     36 H5AA        4.2570   -2.6520    4.2460 h1        1 Z98      0.154500
     37 P           2.6780   -5.6190    5.5590 p5        1 Z98      0.937500
     38 HN3         2.3570    0.5630   -0.0090 DU        1 Z98      0.160000
     39 C2A         6.9470   -3.0200   -0.6060 c3        1 Z98     -0.379000
@<TRIPOS>BOND
     1    1    3 1   
     2    1   11 1   
     3    1   21 1   
     4    2   11 1   
     5    2   22 1   
     6    2   23 1   
     7    2   38 1   
     8    4    5 1   
     9    4   10 1   
    10    5    6 1   
    11    5   31 1   
    12    5   39 1   
    13    6    7 1   
    14    6    8 1   
    15    7   24 1   
    16    8    9 1   
    17    8   15 1   
    18    8   34 1   
    19    9   10 1   
    20    9   16 1   
    21   10   25 1   
    22   11   12 1   
    23   11   22 1   
    24   11   26 1   
    25   11   28 1   
    26   12   14 1   
    27   12   26 1   
    28   12   27 1   
    29   12   28 1   
    30   12   29 1   
    31   13   14 1   
    32   13   15 1   
    33   14   29 1   
    34   14   30 1   
    35   15   34 1   
    36   16   20 1   
    37   16   35 1   
    38   16   36 1   
    39   17   37 1   
    40   18   37 1   
    41   19   37 1   
    42   20   37 1   
    43   22   38 1   
    44   27   29 1   
    45   31   32 1   
    46   31   39 1   
    47   32   39 1   
    48   33   39 1   
@<TRIPOS>SUBSTRUCTURE
     1 Z98         1 TEMP              0 ****  ****    0 ROOT
