@<TRIPOS>MOLECULE
Z98
   38    32     1     0     0
SMALL
bcc


@<TRIPOS>ATOM
      1 C          -3.5680    0.4150   -3.3170 c1        1 Z98      0.331000
      2 N          -2.0010    2.0620   -4.0100 n3        1 Z98     -0.342000
      3 OXT        -4.6170    1.0940   -3.1220 o         1 Z98     -0.592500
      4 P           5.1170   -0.7580   -0.1100 p3        1 Z98      2.509000
      5 N1          0.4580   -2.4510    2.6040 n1        1 Z98     -0.146000
      6 C2         -0.4140   -1.4450    2.9360 c1        1 Z98     -0.108000
      7 C3         -0.3740   -0.2310    2.2480 c2        1 Z98      0.015000
      8 O3         -1.1790    0.8340    2.6610 oh        1 Z98     -0.281000
      9 C4          0.5440   -0.0460    1.2340 c1        1 Z98     -0.177000
     10 C5          1.4150   -1.0550    0.9060 c1        1 Z98     -0.051000
     11 C6          1.3720   -2.2650    1.5940 c1        1 Z98     -0.103000
     12 CA         -2.2080    1.0410   -3.0830 c2        1 Z98     -0.104000
     13 CB         -2.1460    1.6150   -1.6690 c3        1 Z98     -0.172000
     14 ND         -0.0880    1.7150   -0.3770 n1        1 Z98     -0.224000
     15 CG         -1.1260    0.8250   -0.8460 c2        1 Z98     -0.116000
     16 C2A        -1.4080   -1.6380    4.1200 c2        1 Z98     -0.134000
     17 C4A         0.7140    1.3340    0.6020 c2        1 Z98     -0.007000
     18 C5A         2.5190   -0.7990   -0.1260 c3        1 Z98      0.088000
     19 OP1         5.1240   -0.3460   -1.5710 o         1 Z98     -1.241000
     20 OP2         6.2210   -0.0270    0.6280 o         1 Z98     -1.241000
     21 OP3         5.3440   -2.2570   -0.0070 os        1 Z98     -1.241000
     22 OP4         3.7070   -0.3870    0.5420 os        1 Z98     -0.721000
     23 O          -3.6510   -0.7440   -3.8080 o         1 Z98     -0.592500
     24 HN         -2.5630    2.7430   -3.8360 hn        1 Z98      0.135500
     25 HNA        -1.1440    2.3550   -3.9510 hn        1 Z98      0.135500
     26 HO3        -0.8240    1.2100    3.3620 ho        1 Z98      0.218000
     27 H6          1.9990   -2.9900    1.3570 ha        1 Z98      0.297000
     28 HA         -1.5080    0.3550   -3.1890 h4        1 Z98      0.078000
     29 HB         -1.8710    2.5710   -1.7100 hc        1 Z98      0.085000
     30 HBA        -3.0280    1.5480   -1.2490 hc        1 Z98      0.085000
     31 HG         -1.5800    0.4080   -0.0670 ha        1 Z98      0.080500
     32 HGA        -0.7240    0.1170   -1.4100 ha        1 Z98      0.080500
     33 H2A        -2.3140   -1.3820    3.8340 ha        1 Z98      0.063333
     34 H2AA       -1.1290   -1.0700    4.8790 ha        1 Z98      0.063333
     35 H2AB       -1.4050   -2.5940    4.4020 ha        1 Z98      0.063333
     36 H4A         1.4180    1.9350    0.9210 h4        1 Z98      0.147000
     37 H5A         2.6920   -1.6060   -0.6180 h1        1 Z98      0.059500
     38 H5AA        2.2260   -0.0850   -0.7520 h1        1 Z98      0.059500
@<TRIPOS>BOND
     1    1    3 1   
     2    1   23 1   
     3    2   12 1   
     4    2   24 1   
     5    2   25 1   
     6    4   19 1   
     7    4   20 1   
     8    4   22 1   
     9    5    6 1   
    10    6    7 1   
    11    7    8 1   
    12    7    9 1   
    13    8   26 1   
    14    9   17 1   
    15   10   11 1   
    16   10   18 1   
    17   11   27 1   
    18   12   13 1   
    19   12   28 1   
    20   13   15 1   
    21   13   29 1   
    22   13   30 1   
    23   14   17 1   
    24   15   31 1   
    25   15   32 1   
    26   16   33 1   
    27   16   34 1   
    28   16   35 1   
    29   17   36 1   
    30   18   22 1   
    31   18   37 1   
    32   18   38 1   
@<TRIPOS>SUBSTRUCTURE
     1 Z98         1 TEMP              0 ****  ****    0 ROOT
