@<TRIPOS>MOLECULE
Z98
   38    38     1     0     0
SMALL
bcc


@<TRIPOS>ATOM
      1 C          -6.0700    1.5480   -0.0880 c         1 Z98      0.907600
      2 N          -4.7580   -0.2130    1.1400 n3        1 Z98     -0.910800
      3 OXT        -6.8620    0.6670   -0.5360 o         1 Z98     -0.857800
      4 N1          1.1090   -3.0910    0.8190 nb        1 Z98     -0.671000
      5 C2         -0.2120   -2.9460    0.5180 ca        1 Z98      0.317600
      6 C3         -0.7020   -1.7970   -0.1440 ca        1 Z98     -0.005200
      7 O3         -2.0530   -1.8080   -0.4380 oh        1 Z98     -0.525100
      8 C4          0.1770   -0.7400   -0.4750 ca        1 Z98     -0.264900
      9 C5          1.5340   -0.9020   -0.1600 ca        1 Z98     -0.124600
     10 C6          1.9450   -2.1110    0.4750 ca        1 Z98      0.371200
     11 CA         -4.6990    1.0970    0.5140 c3        1 Z98      0.036500
     12 CB         -3.6440    1.2460   -0.5910 c3        1 Z98     -0.080400
     13 ND         -1.2110    1.3020   -1.0520 n2        1 Z98     -0.638900
     14 CG         -2.2190    1.2330   -0.0280 c3        1 Z98      0.089800
     15 C4A        -0.2480    0.4700   -1.1960 ce        1 Z98      0.492800
     16 C5A         2.5940    0.1190   -0.5020 c3        1 Z98      0.238700
     17 OP1         4.9120   -2.0310    0.1460 o         1 Z98     -0.922167
     18 OP2         6.1960    0.1550    0.5080 o         1 Z98     -0.922167
     19 OP3         5.0360   -0.3050   -1.7230 o         1 Z98     -0.922167
     20 OP4         3.6580    0.1050    0.3580 os        1 Z98     -0.559200
     21 O          -6.3260    2.7860   -0.0990 o         1 Z98     -0.857800
     22 HN         -5.5810   -0.6920    0.8150 hn        1 Z98      0.339800
     23 HNA        -3.9600   -0.7630    0.8720 hn        1 Z98      0.339800
     24 HO3        -2.2320   -1.0890   -1.0600 ho        1 Z98      0.416000
     25 H6          3.0680   -2.2370    0.6470 h4        1 Z98      0.155100
     26 HA         -4.4420    1.8290    1.3350 h1        1 Z98      0.042700
     27 HB         -3.7730    0.4280   -1.3460 hc        1 Z98      0.042700
     28 HBA        -3.8310    2.2200   -1.1140 hc        1 Z98      0.042700
     29 HG         -2.0860    2.1580    0.6060 h1        1 Z98      0.044200
     30 HGA        -2.0910    0.3470    0.6610 h1        1 Z98      0.044200
     31 H2A        -1.8750   -3.6320    1.6770 hc        1 Z98      0.025700
     32 H2AA       -1.7970   -4.2850   -0.0080 hc        1 Z98      0.025700
     33 H2AB       -0.6770   -4.9360    1.2680 hc        1 Z98      0.025700
     34 H4A         0.4550    0.7280   -2.0250 h4        1 Z98      0.014800
     35 H5A         2.9350   -0.0900   -1.5650 h1        1 Z98      0.023200
     36 H5AA        2.1070    1.1400   -0.4680 h1        1 Z98      0.023200
     37 C2A        -1.1830   -4.0170    0.8870 c3        1 Z98     -0.112400
     38 P           5.1350   -0.5900   -0.2470 p5        1 Z98      1.314900
@<TRIPOS>BOND
     1    1    3 1   
     2    1   11 1   
     3    1   21 1   
     4    2   11 1   
     5    2   22 1   
     6    2   23 1   
     7    4    5 ar  
     8    4   10 ar  
     9    5    6 ar  
    10    5   37 1   
    11    6    7 1   
    12    6    8 ar  
    13    7   24 1   
    14    8    9 ar  
    15    8   15 1   
    16    9   10 ar  
    17    9   16 1   
    18   10   25 1   
    19   11   12 1   
    20   11   26 1   
    21   12   14 1   
    22   12   27 1   
    23   12   28 1   
    24   13   14 1   
    25   13   15 2   
    26   14   29 1   
    27   14   30 1   
    28   15   34 1   
    29   16   20 1   
    30   16   35 1   
    31   16   36 1   
    32   17   38 1   
    33   18   38 1   
    34   19   38 1   
    35   20   38 1   
    36   31   37 1   
    37   32   37 1   
    38   33   37 1   
@<TRIPOS>SUBSTRUCTURE
     1 Z98         1 TEMP              0 ****  ****    0 ROOT
