@<TRIPOS>MOLECULE
Z99
   44    47     1     0     0
SMALL
bcc


@<TRIPOS>ATOM
      1 NAA         1.4170    0.5190   -0.2820 n4        1 Z99     -0.877600
      2 OAB        -0.9550    4.3440   -1.5390 o         1 Z99     -0.827300
      3 OAC         1.5860   -1.6660   -1.8020 o         1 Z99     -0.792800
      4 OAD         0.9430    3.3120   -0.9450 o         1 Z99     -0.827300
      5 OAE        -0.6200   -2.0870   -1.8970 o         1 Z99     -0.792800
      6 CAF        -1.1620   -5.5020    2.4130 ca        1 Z99     -0.114500
      7 CAG         1.0010    0.5850    5.4090 ca        1 Z99     -0.114500
      8 CAH        -1.2210   -4.9570    1.1310 ca        1 Z99     -0.151500
      9 CAI         0.8940    1.3020    4.2170 ca        1 Z99     -0.151500
     10 CAJ        -0.6410   -4.7540    3.4640 ca        1 Z99     -0.155500
     11 CAK         0.8160   -0.7920    5.4060 ca        1 Z99     -0.155500
     12 CAL        -0.7730   -3.6590    0.8890 ca        1 Z99     -0.103000
     13 CAM         0.6240    0.6440    3.0190 ca        1 Z99     -0.103000
     14 CAN        -0.6060   -0.6960    0.7010 c3        1 Z99     -0.089400
     15 CAO        -2.1430    1.2940   -1.0640 cx        1 Z99     -0.066400
     16 OAP         0.3790   -2.8140    4.3060 os        1 Z99     -0.244200
     17 CAQ        -0.3330    3.3680   -1.0660 c         1 Z99      0.938600
     18 CAR         0.3790   -1.4330   -1.5210 c         1 Z99      0.927600
     19 CAS        -0.1870   -3.4520    3.2050 ca        1 Z99      0.112100
     20 CAT         0.5450   -1.4420    4.1900 ca        1 Z99      0.112100
     21 CAU        -0.2630   -2.8720    1.9310 ca        1 Z99     -0.122300
     22 CAV         0.4680   -0.7480    2.9710 ca        1 Z99     -0.122300
     23 CAW         0.2620   -1.4890    1.6810 c3        1 Z99      0.035900
     24 CAX        -1.0220    2.1270   -0.5320 cx        1 Z99     -0.247700
     25 CAY         0.0990   -0.1890   -0.5610 c3        1 Z99      0.028200
     26 CAZ        -0.7260    0.8470   -1.2900 cx        1 Z99     -0.146700
     27 HNAA        1.7080    0.3730    0.6770 hn        1 Z99      0.455800
     28 HNAB        2.1160    0.1020   -0.9150 hn        1 Z99      0.455800
     29 HAI         1.0160    2.3960    4.2190 ha        1 Z99      0.138000
     30 HAJ        -0.5700   -5.1620    4.4810 ha        1 Z99      0.141000
     31 HAK         0.8750   -1.3820    6.3320 ha        1 Z99      0.141000
     32 HAL        -0.8020   -3.2600   -0.1460 ha        1 Z99      0.174000
     33 HAM         0.5040    1.2570    2.1120 ha        1 Z99      0.174000
     34 HAN        -1.0940    0.1590    1.2400 hc        1 Z99      0.078700
     35 HANA       -1.4480   -1.3400    0.3170 hc        1 Z99      0.078700
     36 HAO        -2.7090    1.6300   -1.9520 hc        1 Z99      0.065700
     37 HAOA       -2.7830    0.7560   -0.3420 hc        1 Z99      0.065700
     38 HAW         1.2860   -1.6530    1.2200 hc        1 Z99      0.073700
     39 HAX        -0.9190    2.1220    0.5750 hc        1 Z99      0.054700
     40 HAZ        -0.3790    0.9400   -2.3440 hc        1 Z99      0.104700
     41 HAF        -1.5210   -6.5250    2.5980 ha        1 Z99      0.126500
     42 HAG         1.2200    1.1070    6.3510 ha        1 Z99      0.126500
     43 HAA3        1.3340    1.5550   -0.4820 hn        1 Z99      0.455800
     44 HAH        -1.6170   -5.5530    0.2960 ha        1 Z99      0.138000
@<TRIPOS>BOND
     1    1   25 1   
     2    1   27 1   
     3    1   28 1   
     4    1   43 1   
     5    2   17 1   
     6    3   18 1   
     7    4   17 1   
     8    5   18 1   
     9    6    8 ar  
    10    6   10 ar  
    11    6   41 1   
    12    7    9 ar  
    13    7   11 ar  
    14    7   42 1   
    15    8   12 ar  
    16    8   44 1   
    17    9   13 ar  
    18    9   29 1   
    19   10   19 ar  
    20   10   30 1   
    21   11   20 ar  
    22   11   31 1   
    23   12   21 ar  
    24   12   32 1   
    25   13   22 ar  
    26   13   33 1   
    27   14   23 1   
    28   14   25 1   
    29   14   34 1   
    30   14   35 1   
    31   15   24 1   
    32   15   26 1   
    33   15   36 1   
    34   15   37 1   
    35   16   19 1   
    36   16   20 1   
    37   17   24 1   
    38   18   25 1   
    39   19   21 ar  
    40   20   22 ar  
    41   21   23 1   
    42   22   23 1   
    43   23   38 1   
    44   24   26 1   
    45   24   39 1   
    46   25   26 1   
    47   26   40 1   
@<TRIPOS>SUBSTRUCTURE
     1 Z99         1 TEMP              0 ****  ****    0 ROOT
