@<TRIPOS>MOLECULE
Z99
   44    43     1     0     0
SMALL
bcc


@<TRIPOS>ATOM
      1 NAA         3.2510   -0.6290   -3.9050 n9        1 Z99     -0.384000
      2 OAB         0.9550    1.0730   -3.3960 os        1 Z99     -0.376000
      3 OAC         1.4880   -0.2600   -1.7210 o         1 Z99     -0.523500
      4 OAD        -1.2520    1.4360   -3.6320 o         1 Z99     -0.378000
      5 OAE         0.3610    1.7030   -1.3020 o         1 Z99     -0.523500
      6 CAF         0.3380   -3.6490    1.3770 c1        1 Z99     -0.055000
      7 CAG        -2.1000   -2.2190    7.8620 c1        1 Z99     -0.213000
      8 CAH         1.1500   -1.3590    1.1810 c1        1 Z99     -0.074000
      9 CAI        -2.0680   -1.0210    7.6460 c1        1 Z99     -0.172000
     10 CAJ        -0.3320   -3.9480    2.5840 c2        1 Z99     -0.191000
     11 CAK        -1.7210   -3.3550    7.0530 c3        1 Z99      0.032000
     12 CAL         0.7640   -1.5040    2.3140 c1        1 Z99     -0.228000
     13 CAM        -1.6440   -0.2270    6.5130 c3        1 Z99      0.031000
     14 CAN        -1.8920   -0.5020    3.2860 c3        1 Z99     -0.026000
     15 CAO         1.4290    2.0720   -5.9570 c2        1 Z99     -0.170000
     16 OAP        -0.8060   -3.6210    4.8850 os        1 Z99     -0.153000
     17 CAR         0.8910    0.8060   -1.9760 c2        1 Z99      0.449000
     18 CAS        -0.2910   -3.1500    3.6750 c2        1 Z99     -0.081000
     19 CAT        -1.2330   -2.6460    5.7690 c2        1 Z99      0.032000
     20 CAU         0.3090   -1.7760    3.6510 c3        1 Z99      0.056000
     21 CAV        -1.1990   -1.3060    5.5210 c2        1 Z99     -0.218000
     22 CAW        -0.7030   -0.7660    4.2160 c3        1 Z99     -0.040000
     23 CAX         0.2210    2.1240   -5.4020 c2        1 Z99     -0.187000
     24 CAY        -1.5680    0.3470    2.1820 c1        1 Z99     -0.262000
     25 CAZ        -1.3040    1.0310    1.2340 c1        1 Z99     -0.141000
     26 HNAA        3.3130    0.3150   -3.5690 hn        1 Z99      0.127000
     27 HNAB        3.2560   -1.2160   -3.0910 hn        1 Z99      0.127000
     28 HAF        -0.2050   -3.3950    0.4620 ha        1 Z99      0.107000
     29 HAG        -0.8890   -3.9610    7.4930 hc        1 Z99      0.117000
     30 HAH         1.4650   -1.1480    0.1730 ha        1 Z99      0.292000
     31 HAI        -0.7870    0.4530    6.7550 hc        1 Z99      0.110000
     32 HAJ        -0.7830   -4.9570    2.6340 ha        1 Z99      0.163000
     33 HAK        -2.5760   -4.0350    6.8090 hc        1 Z99      0.117000
     34 HAL         1.2060   -1.7720    4.3450 hc        1 Z99      0.114000
     35 HAM        -2.4740    0.3860    6.0740 hc        1 Z99      0.110000
     36 HAN        -2.7200   -0.0310    3.8880 hc        1 Z99      0.089000
     37 HANA       -2.2770   -1.4890    2.9030 hc        1 Z99      0.089000
     38 HAO         1.6390    2.5050   -6.9430 ha        1 Z99      0.119000
     39 HAOA        2.2810    1.5880   -5.4560 ha        1 Z99      0.119000
     40 HAW        -0.1650    0.2070    4.3910 hc        1 Z99      0.110000
     41 HAX        -1.0200    1.5930    0.3670 ha        1 Z99      0.274000
     42 HAZ        -0.6410    2.6020   -5.8930 ha        1 Z99      0.128000
     43 CAQ        -0.1030    1.5460   -4.0780 c2        1 Z99      0.360000
     44 HAA3        2.3340   -0.7140   -4.3060 hn        1 Z99      0.127000
@<TRIPOS>BOND
     1    1   26 1   
     2    1   27 1   
     3    1   44 1   
     4    2   17 1   
     5    2   43 1   
     6    3   17 1   
     7    4   43 1   
     8    5   17 1   
     9    6   10 1   
    10    6   28 1   
    11    7    9 1   
    12    7   11 1   
    13    8   12 1   
    14    8   30 1   
    15    9   13 1   
    16   10   18 1   
    17   10   32 1   
    18   11   19 1   
    19   11   29 1   
    20   11   33 1   
    21   12   20 1   
    22   13   21 1   
    23   13   31 1   
    24   13   35 1   
    25   14   22 1   
    26   14   24 1   
    27   14   36 1   
    28   14   37 1   
    29   15   23 1   
    30   15   38 1   
    31   15   39 1   
    32   16   18 1   
    33   16   19 1   
    34   18   20 1   
    35   19   21 1   
    36   20   22 1   
    37   20   34 1   
    38   21   22 1   
    39   22   40 1   
    40   23   42 1   
    41   23   43 1   
    42   24   25 1   
    43   25   41 1   
@<TRIPOS>SUBSTRUCTURE
     1 Z99         1 TEMP              0 ****  ****    0 ROOT
