@<TRIPOS>MOLECULE
Z99
   43    46     1     0     0
SMALL
bcc


@<TRIPOS>ATOM
      1 NAA        -1.2430    1.1560   -2.0230 n3        1 Z99     -0.931800
      2 OAB        -5.4020    1.9760    0.6810 o         1 Z99     -0.865300
      3 OAC        -1.2770   -1.5040   -2.7490 o         1 Z99     -0.848800
      4 OAD        -4.4480    3.6630   -0.4050 o         1 Z99     -0.865300
      5 OAE        -2.0000   -2.2230   -0.7770 o         1 Z99     -0.848800
      6 CAF         2.8950   -3.6860    1.2090 ca        1 Z99     -0.135000
      7 CAG         3.7580    3.1630   -0.7140 ca        1 Z99     -0.135000
      8 CAH         1.5890   -3.7390    0.7210 ca        1 Z99     -0.168500
      9 CAI         2.4640    3.2650   -1.2230 ca        1 Z99     -0.168500
     10 CAJ         3.6280   -2.5090    1.1060 ca        1 Z99     -0.178000
     11 CAK         4.1960    1.9640   -0.1620 ca        1 Z99     -0.178000
     12 CAL         1.0040   -2.6190    0.1340 ca        1 Z99     -0.085500
     13 CAM         1.6010    2.1710   -1.1860 ca        1 Z99     -0.085500
     14 CAN        -0.2680    0.1280    0.0160 c3        1 Z99     -0.044400
     15 CAO        -2.8020    0.7650    1.2820 cx        1 Z99     -0.122400
     16 OAP         3.8620   -0.2730    0.4440 os        1 Z99     -0.259200
     17 CAQ        -4.3830    2.5400    0.1830 c         1 Z99      0.927600
     18 CAR        -1.6070   -1.2960   -1.5440 c         1 Z99      0.894600
     19 CAS         3.0300   -1.3870    0.5080 ca        1 Z99      0.101100
     20 CAT         3.3170    0.8680   -0.1310 ca        1 Z99      0.101100
     21 CAU         1.7150   -1.4150    0.0210 ca        1 Z99     -0.094800
     22 CAV         2.0120    0.9470   -0.6430 ca        1 Z99     -0.094800
     23 CAW         1.0790   -0.2250   -0.6320 c3        1 Z99      0.021900
     24 CAX        -3.0170    1.8930    0.3140 cx        1 Z99     -0.225700
     25 CAY        -1.4690    0.1650   -0.9620 c3        1 Z99      0.083200
     26 CAZ        -2.7490    0.4920   -0.1950 cx        1 Z99     -0.097700
     27 HNAA       -1.1450    0.6730   -2.9000 hn        1 Z99      0.355800
     28 HNAB       -2.0320    1.7720   -2.0840 hn        1 Z99      0.355800
     29 HAH         1.0090   -4.6700    0.7990 ha        1 Z99      0.122500
     30 HAI         2.1150    4.2150   -1.6520 ha        1 Z99      0.122500
     31 HAJ         4.6570   -2.4400    1.4780 ha        1 Z99      0.121500
     32 HAK         5.2070    1.8590    0.2510 ha        1 Z99      0.121500
     33 HAL        -0.0390   -2.6680   -0.2540 ha        1 Z99      0.217000
     34 HAM         0.5690    2.2560   -1.5800 ha        1 Z99      0.217000
     35 HAN        -0.5200   -0.6440    0.7900 hc        1 Z99      0.047200
     36 HANA       -0.1820    1.1220    0.5260 hc        1 Z99      0.047200
     37 HAO        -1.8850    0.7380    1.8940 hc        1 Z99      0.049200
     38 HAOA       -3.6840    0.3930    1.8360 hc        1 Z99      0.049200
     39 HAW         0.8700   -0.5170   -1.7100 hc        1 Z99      0.117700
     40 HAX        -2.2060    2.6390    0.1990 hc        1 Z99      0.058700
     41 HAZ        -3.6100   -0.0710   -0.6130 hc        1 Z99      0.092700
     42 HAF         3.3490   -4.5710    1.6750 ha        1 Z99      0.104500
     43 HAG         4.4350    4.0280   -0.7420 ha        1 Z99      0.104500
@<TRIPOS>BOND
     1    1   25 1   
     2    1   27 1   
     3    1   28 1   
     4    2   17 1   
     5    3   18 1   
     6    4   17 1   
     7    5   18 1   
     8    6    8 ar  
     9    6   10 ar  
    10    6   42 1   
    11    7    9 ar  
    12    7   11 ar  
    13    7   43 1   
    14    8   12 ar  
    15    8   29 1   
    16    9   13 ar  
    17    9   30 1   
    18   10   19 ar  
    19   10   31 1   
    20   11   20 ar  
    21   11   32 1   
    22   12   21 ar  
    23   12   33 1   
    24   13   22 ar  
    25   13   34 1   
    26   14   23 1   
    27   14   25 1   
    28   14   35 1   
    29   14   36 1   
    30   15   24 1   
    31   15   26 1   
    32   15   37 1   
    33   15   38 1   
    34   16   19 1   
    35   16   20 1   
    36   17   24 1   
    37   18   25 1   
    38   19   21 ar  
    39   20   22 ar  
    40   21   23 1   
    41   22   23 1   
    42   23   39 1   
    43   24   26 1   
    44   24   40 1   
    45   25   26 1   
    46   26   41 1   
@<TRIPOS>SUBSTRUCTURE
     1 Z99         1 TEMP              0 ****  ****    0 ROOT
