@<TRIPOS>MOLECULE
Z9Z
  104   107     1     0     0
SMALL
bcc


@<TRIPOS>ATOM
      1 O30         1.0910   -1.3870    0.1440 o         1 Z9Z     -0.461000
      2 C29         1.2050   -0.1840    0.3440 c         1 Z9Z      0.635100
      3 O31         0.6550    0.5490    1.3120 os        1 Z9Z     -0.399900
      4 C32         0.0590   -0.1510    2.4730 c3        1 Z9Z      0.228700
      5 C33         1.0950   -0.4360    3.4810 ca        1 Z9Z     -0.324600
      6 C38         1.8340    0.6170    4.0670 ca        1 Z9Z      0.434200
      7 N37         2.7560    0.4310    5.0260 nb        1 Z9Z     -0.645000
      8 C36         2.9530   -0.8280    5.4670 ca        1 Z9Z      0.450200
      9 C35         2.2570   -1.9440    4.9570 ca        1 Z9Z     -0.240300
     10 C34         1.3210   -1.7420    3.9460 ca        1 Z9Z     -0.053000
     11 N28         2.0030    0.6980   -0.5790 ny        1 Z9Z     -0.652800
     12 C20         1.7340    0.4260   -2.0400 c3        1 Z9Z      0.140500
     13 C21         2.1170    1.6600   -2.8780 c3        1 Z9Z     -0.044100
     14 C22         1.5090    2.9080   -2.3450 ca        1 Z9Z     -0.193300
     15 C27         2.3010    3.8340   -1.6530 ca        1 Z9Z     -0.131500
     16 C26         1.7440    5.0260   -1.1910 ca        1 Z9Z     -0.106000
     17 C25         0.3930    5.3000   -1.4160 ca        1 Z9Z     -0.078000
     18 C24        -0.3990    4.3810   -2.1070 ca        1 Z9Z     -0.106000
     19 C23         0.1560    3.1900   -2.5720 ca        1 Z9Z     -0.131500
     20 C19         2.4760   -0.8260   -2.5370 c3        1 Z9Z     -0.106400
     21 C18         1.8510   -1.3520   -3.8180 c3        1 Z9Z     -0.098400
     22 C17         2.6080   -2.5870   -4.3320 c3        1 Z9Z      0.140500
     23 C39         2.5860   -3.7190   -3.2900 c3        1 Z9Z     -0.058100
     24 C40         3.0550   -5.0260   -3.8200 ca        1 Z9Z     -0.189300
     25 C45         4.4240   -5.3210   -3.8670 ca        1 Z9Z     -0.137500
     26 C44         4.8550   -6.5900   -4.2510 ca        1 Z9Z     -0.112000
     27 C43         3.9240   -7.5740   -4.5880 ca        1 Z9Z     -0.087000
     28 C42         2.5580   -7.2850   -4.5480 ca        1 Z9Z     -0.112000
     29 C41         2.1230   -6.0170   -4.1650 ca        1 Z9Z     -0.137500
     30 N16         2.0180   -3.0880   -5.6450 ny        1 Z9Z     -0.677800
     31 C14         2.5840   -2.4740   -6.8880 c         1 Z9Z      0.517100
     32 O15         3.2450   -1.4520   -6.7820 o         1 Z9Z     -0.401100
     33 C13         2.2570   -3.2080   -8.2140 c3        1 Z9Z      0.046700
     34 C46         0.7160   -3.3200   -8.3720 c3        1 Z9Z     -0.087700
     35 C48         0.0360   -1.9710   -8.3230 c3        1 Z9Z     -0.116100
     36 C47         0.3570   -4.0600   -9.6430 c3        1 Z9Z     -0.116100
     37 N12         2.8940   -2.5180   -9.3280 ns        1 Z9Z     -0.518900
     38 C10         3.6430   -3.1990  -10.2540 c         1 Z9Z      0.665100
     39 O11         3.9790   -4.3900  -10.1980 o         1 Z9Z     -0.520100
     40 N08         4.1540   -2.4260  -11.4830 nx        1 Z9Z     -0.578200
     41 C09         5.5630   -2.0120  -11.2470 c3        1 Z9Z      0.080100
     42 C07         3.9700   -3.2370  -12.7440 c3        1 Z9Z      0.194100
     43 C06         5.1230   -4.0650  -13.1950 cc        1 Z9Z     -0.139600
     44 N05         5.4610   -5.3010  -12.6290 na        1 Z9Z     -0.098100
     45 C49         5.8840   -3.8100  -14.3340 cd        1 Z9Z     -0.191100
     46 S50         6.9270   -5.0430  -14.6900 ss        1 Z9Z      0.481200
     47 C04         6.4300   -5.9320  -13.3550 cc        1 Z9Z     -0.011700
     48 C02         7.0090   -7.2730  -13.0210 c3        1 Z9Z     -0.033400
     49 C03         5.9290   -8.3000  -12.7420 c3        1 Z9Z     -0.120100
     50 C01         7.9070   -7.7260  -14.1590 c3        1 Z9Z     -0.120100
     51 H1         -0.4700   -1.0670    2.1070 h1        1 Z9Z      0.110200
     52 H2         -0.6650    0.6460    2.8100 h1        1 Z9Z      0.110200
     53 H3          1.6680    1.6650    3.7540 h4        1 Z9Z      0.029100
     54 H4          3.7010   -0.9420    6.2780 h4        1 Z9Z      0.059100
     55 H5          2.4460   -2.9480    5.3660 ha        1 Z9Z      0.174000
     56 H6          0.7530   -2.5900    3.5330 ha        1 Z9Z      0.148000
     57 H7          1.7660    1.6920   -0.3830 hn        1 Z9Z      0.484800
     58 H8          0.6170    0.2610   -2.1200 hx        1 Z9Z      0.112700
     59 H9          1.7470    1.4750   -3.9220 hc        1 Z9Z      0.075700
     60 H10         3.2350    1.7570   -2.9260 hc        1 Z9Z      0.075700
     61 H11         3.3760    3.6460   -1.5040 ha        1 Z9Z      0.130000
     62 H12         2.3730    5.7580   -0.6570 ha        1 Z9Z      0.169000
     63 H13        -0.0450    6.2480   -1.0570 ha        1 Z9Z      0.176000
     64 H14        -1.4630    4.6030   -2.2930 ha        1 Z9Z      0.169000
     65 H15        -0.4690    2.4790   -3.1320 ha        1 Z9Z      0.130000
     66 H16         3.5570   -0.5790   -2.7120 hc        1 Z9Z      0.088200
     67 H17         2.4230   -1.6290   -1.7490 hc        1 Z9Z      0.088200
     68 H18         0.7770   -1.6160   -3.6200 hc        1 Z9Z      0.074200
     69 H19         1.8790   -0.5480   -4.6030 hc        1 Z9Z      0.074200
     70 H20         3.6810   -2.3060   -4.5560 hx        1 Z9Z      0.117700
     71 H21         1.5520   -3.8200   -2.8600 hc        1 Z9Z      0.101200
     72 H22         3.2680   -3.3980   -2.4520 hc        1 Z9Z      0.101200
     73 H23         5.1630   -4.5640   -3.5590 ha        1 Z9Z      0.140000
     74 H24         5.9320   -6.8270   -4.2520 ha        1 Z9Z      0.169500
     75 H25         4.2640   -8.5900   -4.8550 ha        1 Z9Z      0.174000
     76 H26         1.8210   -8.0720   -4.7810 ha        1 Z9Z      0.169500
     77 H27         1.0440   -5.8230   -4.0630 ha        1 Z9Z      0.140000
     78 H28         2.1680   -4.1170   -5.6800 hn        1 Z9Z      0.479300
     79 H29         2.6930   -4.2560   -8.1480 h1        1 Z9Z      0.139700
     80 H30         0.3510   -3.9540   -7.5120 hc        1 Z9Z      0.073700
     81 H31        -1.0760   -2.1110   -8.2910 hc        1 Z9Z      0.066533
     82 H32         0.3430   -1.3920   -7.4180 hc        1 Z9Z      0.066533
     83 H33         0.2650   -1.3610   -9.2300 hc        1 Z9Z      0.066533
     84 H34         0.9290   -5.0160   -9.7250 hc        1 Z9Z      0.066533
     85 H35        -0.7370   -4.3080   -9.6300 hc        1 Z9Z      0.066533
     86 H36         0.5490   -3.4350  -10.5470 hc        1 Z9Z      0.066533
     87 H37         5.0170   -5.6900  -11.8160 hn        1 Z9Z      0.362700
     88 H38         6.1890   -2.9140  -11.0100 hx        1 Z9Z      0.123033
     89 H39         5.9590   -1.5070  -12.1720 hx        1 Z9Z      0.123033
     90 H40         5.6010   -1.2890  -10.3860 hx        1 Z9Z      0.123033
     91 H41         3.7460   -2.4930  -13.5740 hx        1 Z9Z      0.144700
     92 H42         3.0580   -3.8940  -12.5980 hx        1 Z9Z      0.144700
     93 H43         5.7850   -2.9040  -14.9500 h4        1 Z9Z      0.244000
     94 H44         7.6400   -7.1470  -12.0880 hc        1 Z9Z      0.113700
     95 H45         5.2440   -8.4160  -13.6160 hc        1 Z9Z      0.077200
     96 H46         6.4130   -9.2930  -12.5520 hc        1 Z9Z      0.077200
     97 H47         5.3330   -8.0270  -11.8390 hc        1 Z9Z      0.077200
     98 H48         7.3090   -8.0030  -15.0630 hc        1 Z9Z      0.077200
     99 H49         8.4780   -8.6370  -13.8390 hc        1 Z9Z      0.077200
    100 H50         8.6530   -6.9360  -14.4290 hc        1 Z9Z      0.077200
    101 H282        2.9980    0.5570   -0.3720 hn        1 Z9Z      0.484800
    102 H162        1.0030   -2.9140   -5.6380 hn        1 Z9Z      0.479300
    103 H122        2.6250   -1.5650   -9.4660 hn        1 Z9Z      0.365500
    104 H081        3.5920   -1.5700  -11.6140 hn        1 Z9Z      0.470800
@<TRIPOS>BOND
     1    1    2 2   
     2    2    3 1   
     3    2   11 1   
     4    3    4 1   
     5    4    5 1   
     6    4   51 1   
     7    4   52 1   
     8    5    6 ar  
     9    5   10 ar  
    10    6    7 ar  
    11    6   53 1   
    12    7    8 ar  
    13    8    9 ar  
    14    8   54 1   
    15    9   10 ar  
    16    9   55 1   
    17   10   56 1   
    18   11   12 1   
    19   11   57 1   
    20   11  101 1   
    21   12   13 1   
    22   12   20 1   
    23   12   58 1   
    24   13   14 1   
    25   13   59 1   
    26   13   60 1   
    27   14   15 ar  
    28   14   19 ar  
    29   15   16 ar  
    30   15   61 1   
    31   16   17 ar  
    32   16   62 1   
    33   17   18 ar  
    34   17   63 1   
    35   18   19 ar  
    36   18   64 1   
    37   19   65 1   
    38   20   21 1   
    39   20   66 1   
    40   20   67 1   
    41   21   22 1   
    42   21   68 1   
    43   21   69 1   
    44   22   23 1   
    45   22   30 1   
    46   22   70 1   
    47   23   24 1   
    48   23   71 1   
    49   23   72 1   
    50   24   25 ar  
    51   24   29 ar  
    52   25   26 ar  
    53   25   73 1   
    54   26   27 ar  
    55   26   74 1   
    56   27   28 ar  
    57   27   75 1   
    58   28   29 ar  
    59   28   76 1   
    60   29   77 1   
    61   30   31 1   
    62   30   78 1   
    63   30  102 1   
    64   31   32 2   
    65   31   33 1   
    66   33   34 1   
    67   33   37 1   
    68   33   79 1   
    69   34   35 1   
    70   34   36 1   
    71   34   80 1   
    72   35   81 1   
    73   35   82 1   
    74   35   83 1   
    75   36   84 1   
    76   36   85 1   
    77   36   86 1   
    78   37   38 1   
    79   37  103 1   
    80   38   39 2   
    81   38   40 1   
    82   40   41 1   
    83   40   42 1   
    84   40  104 1   
    85   41   88 1   
    86   41   89 1   
    87   41   90 1   
    88   42   43 1   
    89   42   91 1   
    90   42   92 1   
    91   43   44 1   
    92   43   45 2   
    93   44   47 2   
    94   44   87 1   
    95   45   46 1   
    96   45   93 1   
    97   46   47 1   
    98   47   48 1   
    99   48   49 1   
   100   48   50 1   
   101   48   94 1   
   102   49   95 1   
   103   49   96 1   
   104   49   97 1   
   105   50   98 1   
   106   50   99 1   
   107   50  100 1   
@<TRIPOS>SUBSTRUCTURE
     1 Z9Z         1 TEMP              0 ****  ****    0 ROOT
