@<TRIPOS>MOLECULE
Z9Z
  100   103     1     0     0
SMALL
bcc


@<TRIPOS>ATOM
      1 O30         5.3340    0.1550    1.5820 o         1 Z9Z     -0.591000
      2 C29         5.5250   -0.2570    0.4240 c         1 Z9Z      0.737100
      3 O31         6.6900   -0.9560    0.1560 os        1 Z9Z     -0.447900
      4 C32         7.5270   -1.1880    1.3050 c3        1 Z9Z      0.202700
      5 C33         8.6980   -1.9860    0.8520 ca        1 Z9Z     -0.210600
      6 C38         9.2430   -1.8310   -0.4410 ca        1 Z9Z      0.419200
      7 N37        10.3200   -2.5100   -0.8780 nb        1 Z9Z     -0.666000
      8 C36        10.8970   -3.3760   -0.0220 ca        1 Z9Z      0.396200
      9 C35        10.4280   -3.6020    1.2850 ca        1 Z9Z     -0.247300
     10 C34         9.3070   -2.8960    1.7230 ca        1 Z9Z     -0.086000
     11 N28         4.6900   -0.1790   -0.6700 n         1 Z9Z     -0.520900
     12 C20         3.6100    0.7910   -0.6900 c3        1 Z9Z      0.102700
     13 C21         3.7580    1.8260   -1.8240 c3        1 Z9Z     -0.062100
     14 C22         5.0200    2.6070   -1.7390 ca        1 Z9Z     -0.091300
     15 C27         6.0120    2.4600   -2.7150 ca        1 Z9Z     -0.125000
     16 C26         7.1850    3.2100   -2.6440 ca        1 Z9Z     -0.126000
     17 C25         7.3770    4.1130   -1.5990 ca        1 Z9Z     -0.128000
     18 C24         6.3910    4.2650   -0.6240 ca        1 Z9Z     -0.126000
     19 C23         5.2170    3.5180   -0.6930 ca        1 Z9Z     -0.125000
     20 C19         2.2350    0.1170   -0.8480 c3        1 Z9Z     -0.086400
     21 C18         1.9070   -0.7870    0.3180 c3        1 Z9Z     -0.089400
     22 C17         0.4210   -1.1940    0.3120 c3        1 Z9Z      0.103700
     23 C39         0.2830   -2.4900    1.1370 c3        1 Z9Z     -0.054100
     24 C40        -1.1210   -2.9690    1.2280 ca        1 Z9Z     -0.085300
     25 C45        -1.7100   -3.6380    0.1480 ca        1 Z9Z     -0.126500
     26 C44        -3.0220   -4.0960    0.2360 ca        1 Z9Z     -0.124000
     27 C43        -3.7590   -3.8930    1.4040 ca        1 Z9Z     -0.128000
     28 C42        -3.1780   -3.2280    2.4830 ca        1 Z9Z     -0.124000
     29 C41        -1.8640   -2.7680    2.3970 ca        1 Z9Z     -0.126500
     30 N16        -0.4520   -0.1450    0.7980 n         1 Z9Z     -0.554900
     31 C14        -1.1370    0.6980   -0.0460 c         1 Z9Z      0.654100
     32 O15        -0.9430    0.7010   -1.2800 o         1 Z9Z     -0.624100
     33 C13        -2.1160    1.7040    0.6180 c3        1 Z9Z      0.044700
     34 C46        -1.3600    3.0490    0.7580 c3        1 Z9Z     -0.085700
     35 C48        -1.2410    3.7870   -0.5560 c3        1 Z9Z     -0.098600
     36 C47        -2.0280    3.9130    1.8050 c3        1 Z9Z     -0.098600
     37 N12        -3.3330    1.7500   -0.1510 n         1 Z9Z     -0.547900
     38 C10        -4.5590    1.9800    0.4860 c         1 Z9Z      0.758100
     39 O11        -4.6430    1.8990    1.7380 o         1 Z9Z     -0.652100
     40 N08        -5.7000    2.3340   -0.2820 n         1 Z9Z     -0.440800
     41 C09        -5.6640    2.2140   -1.7160 c3        1 Z9Z      0.062300
     42 C07        -6.9860    2.1670    0.3590 c3        1 Z9Z      0.062700
     43 C06        -7.6000    0.7990    0.2570 cc        1 Z9Z      0.298600
     44 N05        -7.9940    0.2650   -0.9680 nc        1 Z9Z     -0.637000
     45 C49        -7.8410   -0.0210    1.3530 cd        1 Z9Z     -0.230400
     46 S50        -8.5610   -1.4470    0.8750 ss        1 Z9Z     -0.100300
     47 C04        -8.5280   -0.9420   -0.7790 cd        1 Z9Z      0.403700
     48 C02        -9.0650   -1.8090   -1.8700 c3        1 Z9Z     -0.098000
     49 C03        -9.3610   -3.2040   -1.3540 c3        1 Z9Z     -0.096600
     50 C01       -10.3080   -1.1900   -2.4820 c3        1 Z9Z     -0.096600
     51 H1          7.8520   -0.1920    1.7150 h1        1 Z9Z      0.065700
     52 H2          6.9300   -1.7290    2.0860 h1        1 Z9Z      0.065700
     53 H3          8.7810   -1.1300   -1.1590 h4        1 Z9Z      0.034100
     54 H4         11.7800   -3.9170   -0.4080 h4        1 Z9Z      0.022100
     55 H5         10.9350   -4.3220    1.9410 ha        1 Z9Z      0.144000
     56 H6          8.9090   -3.0510    2.7370 ha        1 Z9Z      0.140000
     57 H7          5.0670   -0.4560   -1.5480 hn        1 Z9Z      0.319500
     58 H8          3.6210    1.3430    0.3000 h1        1 Z9Z      0.084700
     59 H9          3.6870    1.3050   -2.8160 hc        1 Z9Z      0.061200
     60 H10         2.8840    2.5280   -1.7530 hc        1 Z9Z      0.061200
     61 H11         5.8650    1.7530   -3.5440 ha        1 Z9Z      0.131500
     62 H12         7.9600    3.0870   -3.4150 ha        1 Z9Z      0.133500
     63 H13         8.3030    4.7030   -1.5430 ha        1 Z9Z      0.133000
     64 H14         6.5390    4.9760    0.2020 ha        1 Z9Z      0.133500
     65 H15         4.4410    3.6390    0.0780 ha        1 Z9Z      0.131500
     66 H16         1.4640    0.9290   -0.9310 hc        1 Z9Z      0.059200
     67 H17         2.2000   -0.4680   -1.8040 hc        1 Z9Z      0.059200
     68 H18         2.5260   -1.7200    0.2520 hc        1 Z9Z      0.054700
     69 H19         2.1710   -0.2840    1.2850 hc        1 Z9Z      0.054700
     70 H20         0.1230   -1.4210   -0.7580 h1        1 Z9Z      0.079700
     71 H21         0.9140   -3.2750    0.6390 hc        1 Z9Z      0.058200
     72 H22         0.7040   -2.3230    2.1650 hc        1 Z9Z      0.058200
     73 H23        -1.1320   -3.7960   -0.7750 ha        1 Z9Z      0.130500
     74 H24        -3.4790   -4.6190   -0.6170 ha        1 Z9Z      0.132500
     75 H25        -4.7950   -4.2530    1.4720 ha        1 Z9Z      0.131000
     76 H26        -3.7560   -3.0620    3.4040 ha        1 Z9Z      0.132500
     77 H27        -1.4100   -2.2470    3.2530 ha        1 Z9Z      0.130500
     78 H28        -0.7240   -0.1980    1.7520 hn        1 Z9Z      0.313500
     79 H29        -2.3900    1.3570    1.6620 h1        1 Z9Z      0.099700
     80 H30        -0.3210    2.7950    1.1170 hc        1 Z9Z      0.054700
     81 H31        -2.2190    4.2370   -0.8530 hc        1 Z9Z      0.042867
     82 H32        -0.4960    4.6130   -0.4620 hc        1 Z9Z      0.042867
     83 H33        -0.9060    3.0910   -1.3650 hc        1 Z9Z      0.042867
     84 H34        -1.9530    3.4370    2.8120 hc        1 Z9Z      0.042867
     85 H35        -1.5370    4.9150    1.8460 hc        1 Z9Z      0.042867
     86 H36        -3.1120    4.0530    1.5700 hc        1 Z9Z      0.042867
     87 H37        -3.2190    1.9680   -1.1150 hn        1 Z9Z      0.321500
     88 H38        -5.3950    1.1780   -2.0560 h1        1 Z9Z      0.046367
     89 H39        -6.6720    2.4710   -2.1370 h1        1 Z9Z      0.046367
     90 H40        -4.9140    2.9420   -2.1290 h1        1 Z9Z      0.046367
     91 H41        -6.8730    2.4200    1.4540 h1        1 Z9Z      0.079700
     92 H42        -7.6890    2.9150   -0.1140 h1        1 Z9Z      0.079700
     93 H43        -7.5800    0.2240    2.3810 h4        1 Z9Z      0.190000
     94 H44        -8.2750   -1.8880   -2.6750 hc        1 Z9Z      0.075700
     95 H45       -10.1210   -3.1710   -0.5350 hc        1 Z9Z      0.043367
     96 H46        -9.7650   -3.8350   -2.1820 hc        1 Z9Z      0.043367
     97 H47        -8.4320   -3.6850   -0.9620 hc        1 Z9Z      0.043367
     98 H48       -11.1180   -1.0950   -1.7200 hc        1 Z9Z      0.043367
     99 H49       -10.0790   -0.1760   -2.8880 hc        1 Z9Z      0.043367
    100 H50       -10.6780   -1.8350   -3.3150 hc        1 Z9Z      0.043367
@<TRIPOS>BOND
     1    1    2 2   
     2    2    3 1   
     3    2   11 1   
     4    3    4 1   
     5    4    5 1   
     6    4   51 1   
     7    4   52 1   
     8    5    6 ar  
     9    5   10 ar  
    10    6    7 ar  
    11    6   53 1   
    12    7    8 ar  
    13    8    9 ar  
    14    8   54 1   
    15    9   10 ar  
    16    9   55 1   
    17   10   56 1   
    18   11   12 1   
    19   11   57 1   
    20   12   13 1   
    21   12   20 1   
    22   12   58 1   
    23   13   14 1   
    24   13   59 1   
    25   13   60 1   
    26   14   15 ar  
    27   14   19 ar  
    28   15   16 ar  
    29   15   61 1   
    30   16   17 ar  
    31   16   62 1   
    32   17   18 ar  
    33   17   63 1   
    34   18   19 ar  
    35   18   64 1   
    36   19   65 1   
    37   20   21 1   
    38   20   66 1   
    39   20   67 1   
    40   21   22 1   
    41   21   68 1   
    42   21   69 1   
    43   22   23 1   
    44   22   30 1   
    45   22   70 1   
    46   23   24 1   
    47   23   71 1   
    48   23   72 1   
    49   24   25 ar  
    50   24   29 ar  
    51   25   26 ar  
    52   25   73 1   
    53   26   27 ar  
    54   26   74 1   
    55   27   28 ar  
    56   27   75 1   
    57   28   29 ar  
    58   28   76 1   
    59   29   77 1   
    60   30   31 1   
    61   30   78 1   
    62   31   32 2   
    63   31   33 1   
    64   33   34 1   
    65   33   37 1   
    66   33   79 1   
    67   34   35 1   
    68   34   36 1   
    69   34   80 1   
    70   35   81 1   
    71   35   82 1   
    72   35   83 1   
    73   36   84 1   
    74   36   85 1   
    75   36   86 1   
    76   37   38 1   
    77   37   87 1   
    78   38   39 2   
    79   38   40 1   
    80   40   41 1   
    81   40   42 1   
    82   41   88 1   
    83   41   89 1   
    84   41   90 1   
    85   42   43 1   
    86   42   91 1   
    87   42   92 1   
    88   43   44 1   
    89   43   45 2   
    90   44   47 2   
    91   45   46 1   
    92   45   93 1   
    93   46   47 1   
    94   47   48 1   
    95   48   49 1   
    96   48   50 1   
    97   48   94 1   
    98   49   95 1   
    99   49   96 1   
   100   49   97 1   
   101   50   98 1   
   102   50   99 1   
   103   50  100 1   
@<TRIPOS>SUBSTRUCTURE
     1 Z9Z         1 TEMP              0 ****  ****    0 ROOT
