@<TRIPOS>MOLECULE
Z9Z
  104   107     1     0     0
SMALL
bcc


@<TRIPOS>ATOM
      1 O30         1.2270   -1.1340    0.3320 o         1 Z9Z     -0.467000
      2 C29         1.4820    0.0580    0.4540 c         1 Z9Z      0.638100
      3 O31         1.0820    0.9000    1.4030 os        1 Z9Z     -0.397900
      4 C32         0.4890    0.3410    2.6430 c3        1 Z9Z      0.230700
      5 C33         1.5510    0.0110    3.6080 ca        1 Z9Z     -0.326600
      6 C38         2.4300    1.0130    4.0770 ca        1 Z9Z      0.435200
      7 N37         3.3840    0.7900    4.9960 nb        1 Z9Z     -0.644000
      8 C36         3.4760   -0.4510    5.5140 ca        1 Z9Z      0.453200
      9 C35         2.6380   -1.5160    5.1220 ca        1 Z9Z     -0.240300
     10 C34         1.6680   -1.2800    4.1500 ca        1 Z9Z     -0.053000
     11 N28         2.3090    0.7930   -0.5700 n4        1 Z9Z     -0.653800
     12 C20         1.9370    0.4500   -1.9920 c3        1 Z9Z      0.140500
     13 C21         2.3970    1.5760   -2.9370 c3        1 Z9Z     -0.042100
     14 C22         1.9530    2.9150   -2.4680 ca        1 Z9Z     -0.197300
     15 C27         2.8750    3.7970   -1.8890 ca        1 Z9Z     -0.131000
     16 C26         2.4710    5.0710   -1.4920 ca        1 Z9Z     -0.105500
     17 C25         1.1460    5.4730   -1.6710 ca        1 Z9Z     -0.075000
     18 C24         0.2240    4.5980   -2.2490 ca        1 Z9Z     -0.105500
     19 C23         0.6250    3.3250   -2.6490 ca        1 Z9Z     -0.131000
     20 C19         2.5190   -0.9050   -2.4300 c3        1 Z9Z     -0.106400
     21 C18         1.7710   -1.4500   -3.6370 c3        1 Z9Z     -0.102400
     22 C17         2.3610   -2.7950   -4.0840 c3        1 Z9Z      0.149500
     23 C39         2.2850   -3.8380   -2.9560 c3        1 Z9Z     -0.060100
     24 C40         2.5320   -5.2330   -3.4080 ca        1 Z9Z     -0.200300
     25 C45         3.8400   -5.7220   -3.5120 ca        1 Z9Z     -0.142000
     26 C44         4.0650   -7.0680   -3.8010 ca        1 Z9Z     -0.110500
     27 C43         2.9860   -7.9350   -3.9860 ca        1 Z9Z     -0.082000
     28 C42         1.6790   -7.4510   -3.8890 ca        1 Z9Z     -0.110500
     29 C41         1.4500   -6.1070   -3.6000 ca        1 Z9Z     -0.142000
     30 N16         1.6240   -3.3330   -5.3220 n4        1 Z9Z     -0.670800
     31 C14         2.2590   -3.0230   -6.6250 c         1 Z9Z      0.524100
     32 O15         3.0390   -2.0830   -6.7200 o         1 Z9Z     -0.406100
     33 C13         1.8880   -3.9320   -7.8180 c3        1 Z9Z      0.046500
     34 C46         0.3520   -3.9290   -8.0460 c3        1 Z9Z     -0.086700
     35 C48        -0.1860   -2.5380   -8.2900 c3        1 Z9Z     -0.138100
     36 C47        -0.0420   -4.8740   -9.1630 c3        1 Z9Z     -0.138100
     37 N12         2.6310   -3.5100   -9.0700 n4        1 Z9Z     -0.666800
     38 C10         3.7570   -4.4480   -9.4990 c         1 Z9Z      0.487100
     39 O11         4.0490   -5.3580   -8.7380 o         1 Z9Z     -0.351100
     40 N08         4.3880   -4.2600  -10.8230 n4        1 Z9Z     -0.587200
     41 C09         4.2600   -2.8930  -11.3770 c3        1 Z9Z      0.040100
     42 C07         3.8870   -5.3660  -11.8800 c3        1 Z9Z      0.169500
     43 C06         5.0030   -5.7290  -12.7250 cc        1 Z9Z      0.164600
     44 N05         5.4990   -4.8370  -13.6910 nc        1 Z9Z     -0.637000
     45 C49         5.6100   -7.0140  -12.7660 cd        1 Z9Z     -0.227400
     46 S50         6.6640   -7.1310  -13.9840 ss        1 Z9Z      0.276700
     47 C04         6.3960   -5.4590  -14.4420 cd        1 Z9Z      0.435700
     48 C02         7.1450   -4.8970  -15.6070 c3        1 Z9Z     -0.118000
     49 C03         7.8730   -3.6190  -15.2390 c3        1 Z9Z     -0.111100
     50 C01         8.1120   -5.9390  -16.1370 c3        1 Z9Z     -0.111100
     51 H1         -0.1260    1.2330    2.9620 h1        1 Z9Z      0.110700
     52 H2         -0.1550   -0.5330    2.3700 h1        1 Z9Z      0.110700
     53 H3          2.3540    2.0510    3.7020 h4        1 Z9Z      0.029100
     54 H4          4.2560   -0.5930    6.2890 h4        1 Z9Z      0.060100
     55 H5          2.7440   -2.5060    5.5900 ha        1 Z9Z      0.174000
     56 H6          0.9900   -2.0860    3.8310 ha        1 Z9Z      0.148000
     57 H7          3.2960    0.5730   -0.3990 hn        1 Z9Z      0.485800
     58 H8          0.8060    0.3990   -2.0080 hx        1 Z9Z      0.112700
     59 H9          3.5140    1.5500   -3.0460 hc        1 Z9Z      0.073700
     60 H10         1.9510    1.3610   -3.9450 hc        1 Z9Z      0.073700
     61 H11         3.9310    3.5060   -1.7790 ha        1 Z9Z      0.129500
     62 H12         3.2030    5.7680   -1.0480 ha        1 Z9Z      0.170500
     63 H13         0.8300    6.4860   -1.3640 ha        1 Z9Z      0.179000
     64 H14        -0.8200    4.9200   -2.3990 ha        1 Z9Z      0.170500
     65 H15        -0.1020    2.6480   -3.1210 ha        1 Z9Z      0.129500
     66 H16         3.6070   -0.7840   -2.6770 hc        1 Z9Z      0.089700
     67 H17         2.4310   -1.6420   -1.5830 hc        1 Z9Z      0.089700
     68 H18         0.6870   -1.5770   -3.3650 hc        1 Z9Z      0.076200
     69 H19         1.8400   -0.7110   -4.4800 hc        1 Z9Z      0.076200
     70 H20         3.4390   -2.6550   -4.3960 hx        1 Z9Z      0.117700
     71 H21         3.0740   -3.5490   -2.2030 hc        1 Z9Z      0.108700
     72 H22         1.2890   -3.7670   -2.4380 hc        1 Z9Z      0.108700
     73 H23         4.6970   -5.0580   -3.3160 ha        1 Z9Z      0.142000
     74 H24         5.0970   -7.4560   -3.8430 ha        1 Z9Z      0.175000
     75 H25         3.1640   -9.0090   -4.1730 ha        1 Z9Z      0.181000
     76 H26         0.8260   -8.1440   -3.9980 ha        1 Z9Z      0.175000
     77 H27         0.4180   -5.7580   -3.4370 ha        1 Z9Z      0.142000
     78 H28         0.6680   -2.9440   -5.3290 hn        1 Z9Z      0.489800
     79 H29         2.2090   -4.9960   -7.5640 hx        1 Z9Z      0.172700
     80 H30        -0.0980   -4.3430   -7.0960 hc        1 Z9Z      0.098700
     81 H31         0.1480   -1.8250   -7.4980 hc        1 Z9Z      0.080700
     82 H32        -1.3100   -2.5670   -8.2820 hc        1 Z9Z      0.080700
     83 H33         0.1170   -2.1370   -9.2880 hc        1 Z9Z      0.080700
     84 H34         0.1490   -4.4400  -10.1750 hc        1 Z9Z      0.080700
     85 H35         0.4750   -5.8590   -9.0690 hc        1 Z9Z      0.080700
     86 H36        -1.1480   -5.0670   -9.1030 hc        1 Z9Z      0.080700
     87 H37         1.9350   -3.4470   -9.8370 hn        1 Z9Z      0.495300
     88 H38         4.8880   -2.8290  -12.3220 hx        1 Z9Z      0.130367
     89 H39         3.2000   -2.6760  -11.6710 hx        1 Z9Z      0.130367
     90 H40         4.6510   -2.1260  -10.6570 hx        1 Z9Z      0.130367
     91 H41         3.0530   -4.8470  -12.4290 hx        1 Z9Z      0.114200
     92 H42         3.5180   -6.2360  -11.2710 hx        1 Z9Z      0.114200
     93 H43         5.3480   -7.8260  -12.0780 h4        1 Z9Z      0.211000
     94 H44         6.3860   -4.6580  -16.4140 hc        1 Z9Z      0.113700
     95 H45         8.4170   -3.2360  -16.1390 hc        1 Z9Z      0.064367
     96 H46         8.6200   -3.8020  -14.4300 hc        1 Z9Z      0.064367
     97 H47         7.1540   -2.8350  -14.9020 hc        1 Z9Z      0.064367
     98 H48         8.9360   -6.1350  -15.4080 hc        1 Z9Z      0.064367
     99 H49         8.5770   -5.5670  -17.0860 hc        1 Z9Z      0.064367
    100 H50         7.5850   -6.8980  -16.3710 hc        1 Z9Z      0.064367
    101 H282        2.1760    1.8170   -0.4370 hn        1 Z9Z      0.485800
    102 H162        1.5560   -4.3700   -5.2100 hn        1 Z9Z      0.489800
    103 H122        3.0400   -2.5680   -8.9320 hn        1 Z9Z      0.495300
    104 H081        5.4040   -4.4580  -10.6880 hn        1 Z9Z      0.502800
@<TRIPOS>BOND
     1    1    2 2   
     2    2    3 1   
     3    2   11 1   
     4    3    4 1   
     5    4    5 1   
     6    4   51 1   
     7    4   52 1   
     8    5    6 ar  
     9    5   10 ar  
    10    6    7 ar  
    11    6   53 1   
    12    7    8 ar  
    13    8    9 ar  
    14    8   54 1   
    15    9   10 ar  
    16    9   55 1   
    17   10   56 1   
    18   11   12 1   
    19   11   57 1   
    20   11  101 1   
    21   12   13 1   
    22   12   20 1   
    23   12   58 1   
    24   13   14 1   
    25   13   59 1   
    26   13   60 1   
    27   14   15 ar  
    28   14   19 ar  
    29   15   16 ar  
    30   15   61 1   
    31   16   17 ar  
    32   16   62 1   
    33   17   18 ar  
    34   17   63 1   
    35   18   19 ar  
    36   18   64 1   
    37   19   65 1   
    38   20   21 1   
    39   20   66 1   
    40   20   67 1   
    41   21   22 1   
    42   21   68 1   
    43   21   69 1   
    44   22   23 1   
    45   22   30 1   
    46   22   70 1   
    47   23   24 1   
    48   23   71 1   
    49   23   72 1   
    50   24   25 ar  
    51   24   29 ar  
    52   25   26 ar  
    53   25   73 1   
    54   26   27 ar  
    55   26   74 1   
    56   27   28 ar  
    57   27   75 1   
    58   28   29 ar  
    59   28   76 1   
    60   29   77 1   
    61   30   31 1   
    62   30   78 1   
    63   30  102 1   
    64   31   32 2   
    65   31   33 1   
    66   33   34 1   
    67   33   37 1   
    68   33   79 1   
    69   34   35 1   
    70   34   36 1   
    71   34   80 1   
    72   35   81 1   
    73   35   82 1   
    74   35   83 1   
    75   36   84 1   
    76   36   85 1   
    77   36   86 1   
    78   37   38 1   
    79   37   87 1   
    80   37  103 1   
    81   38   39 2   
    82   38   40 1   
    83   40   41 1   
    84   40   42 1   
    85   40  104 1   
    86   41   88 1   
    87   41   89 1   
    88   41   90 1   
    89   42   43 1   
    90   42   91 1   
    91   42   92 1   
    92   43   44 1   
    93   43   45 2   
    94   44   47 2   
    95   45   46 1   
    96   45   93 1   
    97   46   47 1   
    98   47   48 1   
    99   48   49 1   
   100   48   50 1   
   101   48   94 1   
   102   49   95 1   
   103   49   96 1   
   104   49   97 1   
   105   50   98 1   
   106   50   99 1   
   107   50  100 1   
@<TRIPOS>SUBSTRUCTURE
     1 Z9Z         1 TEMP              0 ****  ****    0 ROOT
