@<TRIPOS>MOLECULE
ZAA
   62    79     1     0     0
SMALL
bcc


@<TRIPOS>ATOM
      1 C13         0.0000    0.0000    0.0000 c3        1 ZAA     -0.147000
      2 C18        -2.4310    5.0470    0.0020 c3        1 ZAA      0.287000
      3 C17        -1.8020    3.8180    0.0020 c2        1 ZAA     -0.202000
      4 C16        -2.5560    2.6530    0.0030 c2        1 ZAA      0.006000
      5 C19        -3.8120    5.1180    0.0020 c2        1 ZAA     -0.006000
      6 C20        -4.5660    3.9590   -0.0020 c3        1 ZAA      0.067000
      7 C21        -3.9420    2.7270    0.0030 c2        1 ZAA     -0.173000
      8 C22        -6.0710    4.0410   -0.0010 c3        1 ZAA     -0.148000
      9 C23        -6.5730    4.0740   -1.4210 c2        1 ZAA     -0.160000
     10 C24        -6.7890    5.2050   -2.2120 c2        1 ZAA     -0.022000
     11 C11         7.3160   -0.0050   -0.7690 c3        1 ZAA      0.124000
     12 C12         6.1030   -0.0040   -0.1120 c3        1 ZAA     -0.191000
     13 C34        -6.5670    6.6440   -1.8200 c3        1 ZAA     -0.333000
     14 C33        -8.0980    3.2230   -5.5820 c2        1 ZAA     -0.096000
     15 C2          2.3010    0.0000    1.0860 c2        1 ZAA      0.086000
     16 C3          1.5070    0.0000    0.0000 c3        1 ZAA     -0.230000
     17 N4          2.2960   -0.0000   -1.0850 n2        1 ZAA      0.048000
     18 C5          3.5490   -0.0000   -0.6930 c3        1 ZAA     -0.129000
     19 O6          3.5760    0.0050    0.6500 os        1 ZAA      0.007000
     20 C7          4.9150   -0.0030   -0.8450 c3        1 ZAA     -0.171000
     21 C8          4.9640   -0.0030   -2.2400 c3        1 ZAA     -0.293000
     22 C9          6.1830   -0.0040   -2.8850 c3        1 ZAA     -0.221000
     23 C10         7.3570    0.0010   -2.1520 c2        1 ZAA     -0.377000
     24 C14        -0.5100    1.4420    0.0010 c3        1 ZAA     -0.356000
     25 O15        -1.9390    1.4430    0.0020 os        1 ZAA     -0.044000
     26 N25        -7.2250    4.7590   -3.3690 n2        1 ZAA     -0.181000
     27 N26        -7.2810    3.4750   -3.3210 na        1 ZAA      0.389000
     28 N27        -6.8940    3.0440   -2.1730 n2        1 ZAA     -0.244000
     29 C28        -7.7030    2.6560   -4.3770 c2        1 ZAA     -0.109000
     30 C29        -7.7280    1.2770   -4.2210 c3        1 ZAA     -0.266000
     31 C30        -8.1450    0.4730   -5.2640 c3        1 ZAA     -0.213000
     32 C31        -8.5370    1.0400   -6.4630 c3        1 ZAA     -0.375000
     33 C32        -8.5180    2.4150   -6.6200 c2        1 ZAA     -0.282000
     34 C35        -5.1560    7.0450   -2.1630 c3        1 ZAA      0.479000
     35 O36        -4.4070    6.2470   -2.6740 o         1 ZAA     -0.613500
     36 O37        -4.7300    8.2920   -1.9010 o         1 ZAA     -0.613500
     37 H13         0.6220   -0.1500    0.8740 DU        1 ZAA     -0.036000
     38 H13A       -0.3610   -0.5110    0.8840 hc        1 ZAA      0.150000
     39 H18        -2.0580    4.0430   -0.1590 hc        1 ZAA     -0.110000
     40 H17        -1.8210    4.9010    0.0030 DU        1 ZAA      0.102000
     41 H19        -2.8200    4.6830    0.0020 ha        1 ZAA     -0.138000
     42 H21        -4.0580    3.8040    0.0220 ha        1 ZAA      0.037000
     43 H22        -5.4550    3.1500    0.0260 DU        1 ZAA      0.245000
     44 H22A       -6.3830    4.9410    0.5140 hc        1 ZAA      0.140000
     45 H11         6.2600    0.2380   -0.7470 DU        1 ZAA      0.119000
     46 H12         7.1860   -0.0040   -0.1560 DU        1 ZAA      0.119000
     47 H34        -5.6150    6.1460   -1.6800 DU        1 ZAA      0.211000
     48 H34A       -6.7260    6.7560   -0.7540 hc        1 ZAA      0.073000
     49 H33        -7.9260    4.0610   -4.9170 ha        1 ZAA      0.189000
     50 H1          1.0540    0.3430    1.8690 hc        1 ZAA      0.162000
     51 H1A         1.7980   -1.0790    2.5980 hc        1 ZAA      0.162000
     52 H1B         0.8000   -0.0120    2.8010 hc        1 ZAA      0.162000
     53 H8          4.4820   -0.0140   -1.2700 DU        1 ZAA      0.448000
     54 H9          5.1010   -0.0040   -2.8510 DU        1 ZAA      0.214000
     55 H10         6.7840   -0.0000   -3.0720 DU        1 ZAA      0.245000
     56 H14         0.4600    1.2760   -0.4530 h1        1 ZAA      0.248000
     57 H14A       -0.1500    1.9530   -0.8840 h1        1 ZAA      0.248000
     58 H29        -6.8320    1.3570   -3.6180 hc        1 ZAA      0.261000
     59 H30        -7.7790    0.6540   -4.2610 DU        1 ZAA      0.294000
     60 H31        -8.3470    0.2080   -5.7970 DU        1 ZAA      0.237000
     61 H32        -8.6940    1.4000   -6.9550 DU        1 ZAA      0.277000
     62 C1          1.8470    0.0010    2.5230 c3        1 ZAA     -0.355000
@<TRIPOS>BOND
     1    1   16 1   
     2    1   24 1   
     3    1   37 1   
     4    1   38 1   
     5    2    3 1   
     6    2    5 1   
     7    2   39 1   
     8    2   40 1   
     9    3    4 1   
    10    3   40 1   
    11    4    7 1   
    12    4   25 1   
    13    5    6 1   
    14    5   41 1   
    15    6    7 1   
    16    6    8 1   
    17    6   43 1   
    18    7   42 1   
    19    8    9 1   
    20    8   43 1   
    21    8   44 1   
    22    9   10 1   
    23    9   28 1   
    24   10   13 1   
    25   10   26 1   
    26   11   12 1   
    27   11   23 1   
    28   11   45 1   
    29   11   46 1   
    30   12   20 1   
    31   12   45 1   
    32   12   46 1   
    33   13   34 1   
    34   13   47 1   
    35   13   48 1   
    36   14   29 1   
    37   14   33 1   
    38   14   49 1   
    39   15   16 1   
    40   15   19 1   
    41   15   62 1   
    42   16   17 1   
    43   16   37 1   
    44   17   18 1   
    45   18   19 1   
    46   18   20 1   
    47   18   53 1   
    48   20   21 1   
    49   20   53 1   
    50   21   22 1   
    51   21   53 1   
    52   21   54 1   
    53   22   23 1   
    54   22   54 1   
    55   22   55 1   
    56   23   55 1   
    57   24   25 1   
    58   24   56 1   
    59   24   57 1   
    60   26   27 1   
    61   27   28 1   
    62   27   29 1   
    63   29   30 1   
    64   30   31 1   
    65   30   58 1   
    66   30   59 1   
    67   31   32 1   
    68   31   59 1   
    69   31   60 1   
    70   32   33 1   
    71   32   60 1   
    72   32   61 1   
    73   33   61 1   
    74   34   35 1   
    75   34   36 1   
    76   34   47 1   
    77   50   62 1   
    78   51   62 1   
    79   52   62 1   
@<TRIPOS>SUBSTRUCTURE
     1 ZAA         1 TEMP              0 ****  ****    0 ROOT
