@<TRIPOS>MOLECULE
ZAA
   62    66     1     0     0
SMALL
bcc


@<TRIPOS>ATOM
      1 C13         3.0090   -0.1220   -1.8990 c3        1 ZAA     -0.107700
      2 C18        -0.7050   -2.7090    1.5420 ca        1 ZAA     -0.114000
      3 C17         0.3330   -2.1880    0.7660 ca        1 ZAA     -0.207000
      4 C16         0.0440   -1.7230   -0.5200 ca        1 ZAA      0.095100
      5 C19        -2.0030   -2.7730    1.0490 ca        1 ZAA     -0.127000
      6 C20        -2.2850   -2.3020   -0.2440 ca        1 ZAA     -0.038300
      7 C21        -1.2640   -1.7720   -1.0330 ca        1 ZAA     -0.148000
      8 C22        -3.6790   -2.4010   -0.7650 c3        1 ZAA     -0.085400
      9 C23        -4.4910   -1.2010   -0.4580 cc        1 ZAA      0.238300
     10 C24        -5.7940   -1.2080    0.2610 cc        1 ZAA      0.304300
     11 C11         9.5310    1.4810    1.1260 ca        1 ZAA     -0.140000
     12 C12         8.5820    1.0020    0.2260 ca        1 ZAA     -0.093000
     13 C34        -6.5010   -2.3960    0.7680 c3        1 ZAA     -0.251700
     14 C33        -6.2890    2.9620    0.3160 ca        1 ZAA     -0.143000
     15 C2          5.5420   -0.3690   -2.2910 cc        1 ZAA      0.159700
     16 C3          4.4350    0.0410   -1.5480 cd        1 ZAA      0.253300
     17 N4          4.8830    0.6750   -0.3740 nd        1 ZAA     -0.652000
     18 C5          6.2180    0.6420   -0.4190 cc        1 ZAA      0.539900
     19 O6          6.6930    0.0060   -1.5880 os        1 ZAA     -0.387800
     20 C7          7.2150    1.1380    0.5130 ca        1 ZAA     -0.127500
     21 C8          6.8090    1.7560    1.7050 ca        1 ZAA     -0.093000
     22 C9          7.7680    2.2310    2.5980 ca        1 ZAA     -0.140000
     23 C10         9.1260    2.0960    2.3120 ca        1 ZAA     -0.117000
     24 C14         2.2520   -0.8780   -0.8140 c3        1 ZAA      0.138400
     25 O15         0.9940   -1.2210   -1.4010 os        1 ZAA     -0.348900
     26 N25        -6.2100    0.0760    0.3310 nd        1 ZAA     -0.512800
     27 N26        -5.2490    0.8140   -0.3050 na        1 ZAA      0.261800
     28 N27        -4.2030    0.0790   -0.7750 nd        1 ZAA     -0.497800
     29 C28        -5.2750    2.2400   -0.3530 ca        1 ZAA      0.079800
     30 C29        -4.2970    2.9510   -1.0850 ca        1 ZAA     -0.143000
     31 C30        -4.3460    4.3400   -1.1410 ca        1 ZAA     -0.123000
     32 C31        -5.3510    5.0470   -0.4840 ca        1 ZAA     -0.164000
     33 C32        -6.3160    4.3510    0.2410 ca        1 ZAA     -0.123000
     34 C35        -5.7530   -3.0860    1.9400 c         1 ZAA      0.921600
     35 O36        -6.0840   -2.7800    3.1140 o         1 ZAA     -0.830300
     36 O37        -4.8820   -3.9550    1.6410 o         1 ZAA     -0.830300
     37 H13         2.5330    0.8850   -2.0470 hc        1 ZAA      0.067700
     38 H13A        2.9240   -0.6810   -2.8690 hc        1 ZAA      0.067700
     39 H18        -0.4890   -3.0740    2.5570 ha        1 ZAA      0.127000
     40 H17         1.3530   -2.1480    1.1690 ha        1 ZAA      0.122000
     41 H19        -2.8310   -3.1960    1.6570 ha        1 ZAA      0.210000
     42 H21        -1.4670   -1.3900   -2.0420 ha        1 ZAA      0.139000
     43 H22        -3.6610   -2.5590   -1.8770 hc        1 ZAA      0.090700
     44 H22A       -4.1890   -3.2910   -0.2790 hc        1 ZAA      0.090700
     45 H11        10.6010    1.3730    0.8990 ha        1 ZAA      0.134000
     46 H12         8.8970    0.5160   -0.7100 ha        1 ZAA      0.154000
     47 H34        -7.5280   -2.1270    1.1250 hc        1 ZAA      0.051700
     48 H34A       -6.5920   -3.1370   -0.0690 hc        1 ZAA      0.051700
     49 H33        -7.0610    2.4410    0.9040 ha        1 ZAA      0.160000
     50 H1          6.1140   -0.3450   -4.3390 hc        1 ZAA      0.060033
     51 H1A         6.4890   -1.8830   -3.4510 hc        1 ZAA      0.060033
     52 H1B         4.7680   -1.4950   -3.9100 hc        1 ZAA      0.060033
     53 H8          5.7370    1.8640    1.9350 ha        1 ZAA      0.154000
     54 H9          7.4480    2.7140    3.5330 ha        1 ZAA      0.134000
     55 H10         9.8780    2.4720    3.0200 ha        1 ZAA      0.130000
     56 H14         2.7930   -1.8170   -0.5270 h1        1 ZAA      0.045700
     57 H14A        2.1000   -0.2370    0.0930 h1        1 ZAA      0.045700
     58 H29        -3.4860    2.4220   -1.6110 ha        1 ZAA      0.160000
     59 H30        -3.5770    4.8810   -1.7110 ha        1 ZAA      0.123500
     60 H31        -5.3810    6.1440   -0.5350 ha        1 ZAA      0.120000
     61 H32        -7.1100    4.9010    0.7670 ha        1 ZAA      0.123500
     62 C1          5.7390   -1.0600   -3.5640 c3        1 ZAA     -0.125400
@<TRIPOS>BOND
     1    1   16 1   
     2    1   24 1   
     3    1   37 1   
     4    1   38 1   
     5    2    3 ar  
     6    2    5 ar  
     7    2   39 1   
     8    3    4 ar  
     9    3   40 1   
    10    4    7 ar  
    11    4   25 1   
    12    5    6 ar  
    13    5   41 1   
    14    6    7 ar  
    15    6    8 1   
    16    7   42 1   
    17    8    9 1   
    18    8   43 1   
    19    8   44 1   
    20    9   10 1   
    21    9   28 2   
    22   10   13 1   
    23   10   26 2   
    24   11   12 ar  
    25   11   23 ar  
    26   11   45 1   
    27   12   20 ar  
    28   12   46 1   
    29   13   34 1   
    30   13   47 1   
    31   13   48 1   
    32   14   29 ar  
    33   14   33 ar  
    34   14   49 1   
    35   15   16 2   
    36   15   19 1   
    37   15   62 1   
    38   16   17 1   
    39   17   18 2   
    40   18   19 1   
    41   18   20 1   
    42   20   21 ar  
    43   21   22 ar  
    44   21   53 1   
    45   22   23 ar  
    46   22   54 1   
    47   23   55 1   
    48   24   25 1   
    49   24   56 1   
    50   24   57 1   
    51   26   27 1   
    52   27   28 1   
    53   27   29 1   
    54   29   30 ar  
    55   30   31 ar  
    56   30   58 1   
    57   31   32 ar  
    58   31   59 1   
    59   32   33 ar  
    60   32   60 1   
    61   33   61 1   
    62   34   35 1   
    63   34   36 1   
    64   50   62 1   
    65   51   62 1   
    66   52   62 1   
@<TRIPOS>SUBSTRUCTURE
     1 ZAA         1 TEMP              0 ****  ****    0 ROOT
