@<TRIPOS>MOLECULE
ZAD
   29    25     1     0     0
SMALL
bcc


@<TRIPOS>ATOM
      1 O2P        -2.0330    3.2390    4.0880 o         1 ZAD     -0.914833
      2 P          -3.2590    2.7640    3.3500 p5        1 ZAD      1.319900
      3 O1P        -3.8210    3.9000    2.5230 o         1 ZAD     -0.914833
      4 O3G        -2.8680    1.5550    2.3940 os        1 ZAD     -0.554200
      5 C3G        -1.8690    1.7660    1.4120 c3        1 ZAD      0.208400
      6 C2G        -1.4970    0.4340    0.7710 c3        1 ZAD      0.120100
      7 O2G        -2.6080   -0.0970    0.1240 oh        1 ZAD     -0.710800
      8 C1G        -0.3740    0.6510   -0.2400 c3        1 ZAD      0.171800
      9 N9          0.0400   -0.6260   -0.7850 n3        1 ZAD     -0.394800
     10 C4          1.3430   -1.0340   -0.7140 c1        1 ZAD      0.080800
     11 N3          2.2270   -1.0770    0.3180 n1        1 ZAD     -0.497800
     12 C2          3.4670   -1.6350    0.1380 c1        1 ZAD      0.356300
     13 N1          3.8160   -2.1470   -1.0780 n1        1 ZAD     -0.603800
     14 C6          2.9450   -2.1050   -2.1010 cg        1 ZAD      0.491800
     15 N6          3.8010   -2.4420   -3.1970 n2        1 ZAD     -0.733600
     16 C5          1.6880   -1.5410   -1.9200 cg        1 ZAD     -0.212000
     17 N7          0.6040   -1.4500   -2.7390 n1        1 ZAD     -0.514800
     18 C8         -0.4120   -0.8840   -2.0330 c1        1 ZAD      0.379600
     19 OXT        -4.3000    2.3040    4.3450 o         1 ZAD     -0.914833
     20 H3G1       -1.0790    2.1580    1.8310 h1        1 ZAD     -0.001300
     21 H3G2       -2.2110    2.3760    0.7230 h1        1 ZAD     -0.001300
     22 H2G        -1.1970   -0.1870    1.4630 h1        1 ZAD      0.012700
     23 HA         -3.0070   -0.6910    0.6560 ho        1 ZAD      0.521000
     24 H1G1        0.3870    1.0770    0.2040 h1        1 ZAD      0.067700
     25 H1G2       -0.6940    1.2260   -0.9640 h1        1 ZAD      0.067700
     26 H8         -1.3230   -0.7460   -2.3510 DU        1 ZAD      0.262000
     27 H2          4.1030   -1.6660    0.8830 ha        1 ZAD      0.108500
     28 H6N1        4.5510   -2.9450   -3.0530 hn        1 ZAD      0.401300
     29 H6N2        3.5820   -2.1760   -4.0480 hn        1 ZAD      0.401300
@<TRIPOS>BOND
     1    1    2 1   
     2    2    3 1   
     3    2    4 1   
     4    2   19 1   
     5    4    5 1   
     6    5    6 1   
     7    5   20 1   
     8    5   21 1   
     9    6    7 1   
    10    6    8 1   
    11    6   22 1   
    12    7   23 1   
    13    8    9 1   
    14    8   24 1   
    15    8   25 1   
    16    9   10 1   
    17    9   18 1   
    18   10   16 3   
    19   11   12 3   
    20   12   27 1   
    21   13   14 3   
    22   14   16 1   
    23   15   28 1   
    24   15   29 1   
    25   17   18 3   
@<TRIPOS>SUBSTRUCTURE
     1 ZAD         1 TEMP              0 ****  ****    0 ROOT
