@<TRIPOS>MOLECULE
ZAD
   29    30     1     0     0
SMALL
bcc


@<TRIPOS>ATOM
      1 O2P        -2.4930   -9.6730   12.6430 o         1 ZAD     -0.914500
      2 P          -1.5250   -9.2100   11.5930 p5        1 ZAD      1.323900
      3 O1P        -0.0790   -9.5820   11.8620 o         1 ZAD     -0.914500
      4 O3G        -1.3980   -7.5100   11.9510 os        1 ZAD     -0.569200
      5 C3G        -1.2200   -7.2250   13.2770 c3        1 ZAD      0.195400
      6 C2G         0.2380   -6.7870   13.5890 c3        1 ZAD      0.116100
      7 O2G         1.1320   -7.8670   13.5990 oh        1 ZAD     -0.713800
      8 C1G         0.6440   -5.7420   12.5230 c3        1 ZAD     -0.012700
      9 N9          2.0070   -5.2760   12.6170 na        1 ZAD     -0.200000
     10 C4          2.4820   -3.9640   12.5890 ca        1 ZAD      0.415800
     11 N3          1.8390   -2.7580   12.4840 nb        1 ZAD     -0.696000
     12 C2          2.6830   -1.7090   12.4630 ca        1 ZAD      0.631900
     13 N1          4.0480   -1.6680   12.5290 nb        1 ZAD     -0.805000
     14 C6          4.6990   -2.8630   12.6600 ca        1 ZAD      0.680200
     15 N6          6.0890   -2.9050   12.8370 nh        1 ZAD     -0.924500
     16 C5          3.9460   -4.0760   12.6820 ca        1 ZAD     -0.202200
     17 N7          4.3120   -5.4230   12.7650 nc        1 ZAD     -0.619100
     18 C8          3.1440   -6.1000   12.7250 cd        1 ZAD      0.454700
     19 OXT        -1.9670   -9.2280   10.1630 o         1 ZAD     -0.914500
     20 H3G1       -1.8850   -6.3610   13.5740 h1        1 ZAD      0.007200
     21 H3G2       -1.4600   -8.1190   13.9220 h1        1 ZAD      0.007200
     22 H2G         0.2930   -6.3230   14.6130 h1        1 ZAD      0.004700
     23 HA          0.7610   -8.5740   12.9800 ho        1 ZAD      0.514000
     24 H1G1        0.5030   -6.2310   11.5120 h1        1 ZAD      0.092200
     25 H1G2       -0.0430   -4.8570   12.6010 h1        1 ZAD      0.092200
     26 H8          3.0050   -7.1990   12.7940 h5        1 ZAD      0.130800
     27 H2          2.2010   -0.7140   12.3710 h5        1 ZAD      0.026100
     28 H6N1        6.4880   -3.7900   12.6140 hn        1 ZAD      0.397800
     29 H6N2        6.5910   -2.1280   12.4690 hn        1 ZAD      0.397800
@<TRIPOS>BOND
     1    1    2 1   
     2    2    3 1   
     3    2    4 1   
     4    2   19 1   
     5    4    5 1   
     6    5    6 1   
     7    5   20 1   
     8    5   21 1   
     9    6    7 1   
    10    6    8 1   
    11    6   22 1   
    12    7   23 1   
    13    8    9 1   
    14    8   24 1   
    15    8   25 1   
    16    9   10 1   
    17    9   18 1   
    18   10   11 ar  
    19   10   16 ar  
    20   11   12 ar  
    21   12   13 ar  
    22   12   27 1   
    23   13   14 ar  
    24   14   15 1   
    25   14   16 ar  
    26   15   28 1   
    27   15   29 1   
    28   16   17 1   
    29   17   18 2   
    30   18   26 1   
@<TRIPOS>SUBSTRUCTURE
     1 ZAD         1 TEMP              0 ****  ****    0 ROOT
