@<TRIPOS>MOLECULE
ZAE
   25    25     1     0     0
SMALL
bcc


@<TRIPOS>ATOM
      1 N           1.0160    1.4940    0.0140 n3        1 ZAE     -0.799200
      2 CA          1.1490    0.0660   -0.2550 c3        1 ZAE      0.050500
      3 C           2.6130   -0.4610   -0.0420 c         1 ZAE      0.928600
      4 O           3.4730   -0.1270   -0.9040 o         1 ZAE     -0.836800
      5 OXT         2.8350   -1.2240    0.9360 o         1 ZAE     -0.836800
      6 CB          0.2030   -0.7690    0.6200 c3        1 ZAE     -0.042100
      7 CG         -1.2330   -0.5050    0.3380 ca        1 ZAE     -0.046300
      8 CD1        -1.9040   -1.2180   -0.6650 ca        1 ZAE     -0.137500
      9 CD2        -1.9410    0.4560    1.0730 ca        1 ZAE     -0.137500
     10 CE1        -3.2510   -0.9760   -0.9260 ca        1 ZAE     -0.138500
     11 CE2        -3.2880    0.6970    0.8110 ca        1 ZAE     -0.138500
     12 CZ         -3.9480   -0.0190   -0.1880 ca        1 ZAE     -0.160000
     13 C10         1.7520    2.3310   -0.8940 c3        1 ZAE      0.146100
     14 H           0.0400    1.7380   -0.0190 hn        1 ZAE      0.317800
     15 HA          0.8950   -0.1570   -1.3380 h1        1 ZAE      0.000700
     16 HB2         0.4450   -1.8490    0.4260 hc        1 ZAE      0.070200
     17 HB3         0.4380   -0.5720    1.7000 hc        1 ZAE      0.070200
     18 HD1        -1.3530   -1.9690   -1.2510 ha        1 ZAE      0.137000
     19 HD2        -1.4180    1.0240    1.8570 ha        1 ZAE      0.137000
     20 HE1        -3.7660   -1.5410   -1.7160 ha        1 ZAE      0.114000
     21 HE2        -3.8320    1.4540    1.3920 ha        1 ZAE      0.114000
     22 HZ         -5.0100    0.1710   -0.3930 ha        1 ZAE      0.111000
     23 H11         2.8150    1.9650   -0.9540 h1        1 ZAE      0.025367
     24 H12         1.3310    2.3490   -1.9380 h1        1 ZAE      0.025367
     25 H13         1.7360    3.3810   -0.4970 h1        1 ZAE      0.025367
@<TRIPOS>BOND
     1    1    2 1   
     2    1   13 1   
     3    1   14 1   
     4    2    3 1   
     5    2    6 1   
     6    2   15 1   
     7    3    4 1   
     8    3    5 1   
     9    6    7 1   
    10    6   16 1   
    11    6   17 1   
    12    7    8 ar  
    13    7    9 ar  
    14    8   10 ar  
    15    8   18 1   
    16    9   11 ar  
    17    9   19 1   
    18   10   12 ar  
    19   10   20 1   
    20   11   12 ar  
    21   11   21 1   
    22   12   22 1   
    23   13   23 1   
    24   13   24 1   
    25   13   25 1   
@<TRIPOS>SUBSTRUCTURE
     1 ZAE         1 TEMP              0 ****  ****    0 ROOT
