@<TRIPOS>MOLECULE
ZAF
   58    59     1     0     0
SMALL
bcc


@<TRIPOS>ATOM
      1 C1         -0.4320   -1.9390   -5.6930 c         1 ZAF      0.915600
      2 O1A        -0.0860   -3.1530   -5.7820 o         1 ZAF     -0.855300
      3 O1B        -1.2800   -1.4030   -6.4620 o         1 ZAF     -0.855300
      4 C2A         1.7640   -1.3590   -4.5740 c3        1 ZAF     -0.069100
      5 C2          0.2630   -1.0170   -4.6440 c3        1 ZAF      0.094100
      6 CP1         2.6340   -0.3940   -5.2970 ca        1 ZAF     -0.029300
      7 CP2         3.5160   -0.8460   -6.2880 ca        1 ZAF     -0.131500
      8 CP3         4.3750    0.0430   -6.9350 ca        1 ZAF     -0.153500
      9 CP4         4.3600    1.3950   -6.6030 ca        1 ZAF     -0.173000
     10 CP5         3.4750    1.8560   -5.6270 ca        1 ZAF     -0.153500
     11 CP6         2.6150    0.9730   -4.9770 ca        1 ZAF     -0.131500
     12 O3         -0.3220   -1.2080   -3.3790 os        1 ZAF     -0.585200
     13 P3         -0.7450    0.1060   -2.5020 p5        1 ZAF      1.332600
     14 O3A        -2.2160    0.2620   -2.3620 o         1 ZAF     -0.858500
     15 O3B         0.1240    1.2350   -2.9140 o         1 ZAF     -0.858500
     16 C4         -0.1990   -0.4010   -0.8910 c3        1 ZAF     -0.117500
     17 C4A        -0.4480   -1.8890   -0.8150 c3        1 ZAF     -0.099100
     18 N5         -0.9340    0.3870    0.0590 n         1 ZAF     -0.479900
     19 C6         -0.5540    0.6320    1.3340 c         1 ZAF      0.625100
     20 O6          0.5280    0.2560    1.8510 o         1 ZAF     -0.677100
     21 C7         -1.5280    1.5160    2.1790 c3        1 ZAF     -0.002300
     22 C7A        -1.4980    2.9340    1.6090 c3        1 ZAF     -0.093100
     23 N8         -1.1620    1.5070    3.5910 n         1 ZAF     -0.478900
     24 C9         -2.0150    0.9000    4.4920 c         1 ZAF      0.724100
     25 O9         -3.2490    0.7560    4.4490 o         1 ZAF     -0.598000
     26 O10        -1.3690    0.5080    5.6610 os        1 ZAF     -0.453900
     27 C11        -2.2360    0.0150    6.6910 c3        1 ZAF      0.193700
     28 C1X        -1.3890   -0.4350    7.8340 ca        1 ZAF     -0.080300
     29 C2X        -0.0650   -0.8450    7.6480 ca        1 ZAF     -0.114000
     30 C3X         0.6870   -1.2900    8.7350 ca        1 ZAF     -0.136500
     31 C4X         0.1220   -1.3320   10.0090 ca        1 ZAF     -0.139000
     32 C5X        -1.1990   -0.9240   10.1970 ca        1 ZAF     -0.136500
     33 C6X        -1.9520   -0.4740    9.1160 ca        1 ZAF     -0.114000
     34 H2A1        2.0960   -1.3910   -3.5020 hc        1 ZAF      0.055700
     35 H2A2        1.8970   -2.3960   -4.9890 hc        1 ZAF      0.055700
     36 H2          0.1240    0.0590   -4.9520 h1        1 ZAF      0.044700
     37 HP2         3.5160   -1.9100   -6.5660 ha        1 ZAF      0.170000
     38 HP3         5.0580   -0.3250   -7.7130 ha        1 ZAF      0.101500
     39 HP4         5.0350    2.0960   -7.1120 ha        1 ZAF      0.092000
     40 HP5         3.4490    2.9240   -5.3720 ha        1 ZAF      0.101500
     41 HP6         1.8970    1.3420   -4.2150 ha        1 ZAF      0.170000
     42 H4          0.8960   -0.1940   -0.7570 h1        1 ZAF      0.082700
     43 H4A1       -1.4970   -2.1040   -1.1390 hc        1 ZAF      0.040033
     44 H4A2        0.2440   -2.3960   -1.5320 hc        1 ZAF      0.040033
     45 H4A3       -0.2840   -2.3040    0.2070 hc        1 ZAF      0.040033
     46 HN5        -1.8550    0.6420   -0.2540 hn        1 ZAF      0.345500
     47 H7         -2.5780    1.1070    2.0780 h1        1 ZAF      0.089700
     48 H7A1       -0.4580    3.3390    1.6070 hc        1 ZAF      0.050367
     49 H7A2       -1.8740    2.9110    0.5570 hc        1 ZAF      0.050367
     50 H7A3       -2.1490    3.6150    2.2070 hc        1 ZAF      0.050367
     51 HN8        -0.1830    1.3410    3.7490 hn        1 ZAF      0.329500
     52 H111       -2.9370    0.8380    6.9960 h1        1 ZAF      0.060200
     53 H112       -2.8380   -0.8430    6.2820 h1        1 ZAF      0.060200
     54 HP2'        0.3780   -0.8060    6.6390 ha        1 ZAF      0.145000
     55 HP3'        1.7280   -1.6100    8.5830 ha        1 ZAF      0.125000
     56 HP4'        0.7150   -1.6860   10.8640 ha        1 ZAF      0.120000
     57 HP5'       -1.6470   -0.9560   11.2010 ha        1 ZAF      0.125000
     58 HP6'       -2.9920   -0.1480    9.2650 ha        1 ZAF      0.145000
@<TRIPOS>BOND
     1    1    2 1   
     2    1    3 1   
     3    1    5 1   
     4    4    5 1   
     5    4    6 1   
     6    4   34 1   
     7    4   35 1   
     8    5   12 1   
     9    5   36 1   
    10    6    7 ar  
    11    6   11 ar  
    12    7    8 ar  
    13    7   37 1   
    14    8    9 ar  
    15    8   38 1   
    16    9   10 ar  
    17    9   39 1   
    18   10   11 ar  
    19   10   40 1   
    20   11   41 1   
    21   12   13 1   
    22   13   14 1   
    23   13   15 1   
    24   13   16 1   
    25   16   17 1   
    26   16   18 1   
    27   16   42 1   
    28   17   43 1   
    29   17   44 1   
    30   17   45 1   
    31   18   19 1   
    32   18   46 1   
    33   19   20 2   
    34   19   21 1   
    35   21   22 1   
    36   21   23 1   
    37   21   47 1   
    38   22   48 1   
    39   22   49 1   
    40   22   50 1   
    41   23   24 1   
    42   23   51 1   
    43   24   25 2   
    44   24   26 1   
    45   26   27 1   
    46   27   28 1   
    47   27   52 1   
    48   27   53 1   
    49   28   29 ar  
    50   28   33 ar  
    51   29   30 ar  
    52   29   54 1   
    53   30   31 ar  
    54   30   55 1   
    55   31   32 ar  
    56   31   56 1   
    57   32   33 ar  
    58   32   57 1   
    59   33   58 1   
@<TRIPOS>SUBSTRUCTURE
     1 ZAF         1 TEMP              0 ****  ****    0 ROOT
