@<TRIPOS>MOLECULE
ZAF
   58    59     1     0     0
SMALL
bcc


@<TRIPOS>ATOM
      1 C1          0.6500   -0.9500    1.4120 c         1 ZAF      0.907600
      2 O1A         0.6920   -1.8150    2.3300 o         1 ZAF     -0.855800
      3 O1B        -0.4330   -0.5660    0.8730 o         1 ZAF     -0.855800
      4 C2A         2.7920   -1.5670    0.2590 c3        1 ZAF     -0.065100
      5 C2          1.9700   -0.3840    0.8070 c3        1 ZAF      0.083100
      6 CP1         2.4640   -1.9440   -1.1410 ca        1 ZAF     -0.022300
      7 CP2         3.4640   -2.4740   -1.9680 ca        1 ZAF     -0.133000
      8 CP3         3.1730   -2.8750   -3.2710 ca        1 ZAF     -0.149000
      9 CP4         1.8780   -2.7490   -3.7680 ca        1 ZAF     -0.173000
     10 CP5         0.8780   -2.2150   -2.9540 ca        1 ZAF     -0.149000
     11 CP6         1.1620   -1.8140   -1.6510 ca        1 ZAF     -0.133000
     12 O3          2.7250    0.2740    1.7900 os        1 ZAF     -0.579200
     13 P3          3.2610    1.7930    1.5050 p5        1 ZAF      1.322600
     14 O3A         2.8170    2.7200    2.5800 o         1 ZAF     -0.851000
     15 O3B         3.1050    2.1300    0.0730 o         1 ZAF     -0.851000
     16 C4          5.0060    1.5840    1.7900 c3        1 ZAF     -0.118500
     17 C4A         5.1370    0.5260    2.8580 c3        1 ZAF     -0.095100
     18 N5          5.5170    2.8760    2.1500 n         1 ZAF     -0.478900
     19 C6          6.8110    3.2620    2.0520 c         1 ZAF      0.624100
     20 O6          7.7420    2.5600    1.5840 o         1 ZAF     -0.679100
     21 C7          7.1230    4.7260    2.5030 c3        1 ZAF     -0.003300
     22 C7A         6.4810    5.6800    1.4970 c3        1 ZAF     -0.093100
     23 N8          8.5600    4.9540    2.6050 n         1 ZAF     -0.477900
     24 C9          9.1100    5.1730    3.8530 c         1 ZAF      0.724100
     25 O9          8.6030    5.6770    4.8700 o         1 ZAF     -0.599000
     26 O10        10.4690    4.8750    3.8990 os        1 ZAF     -0.453900
     27 C11        11.1210    5.2320    5.1260 c3        1 ZAF      0.193700
     28 C1X        12.5400    4.7760    5.0460 ca        1 ZAF     -0.080300
     29 C2X        12.9230    3.7140    4.2220 ca        1 ZAF     -0.114000
     30 C3X        14.2530    3.2940    4.1970 ca        1 ZAF     -0.136500
     31 C4X        15.2040    3.9290    4.9960 ca        1 ZAF     -0.139000
     32 C5X        14.8240    4.9890    5.8190 ca        1 ZAF     -0.136500
     33 C6X        13.4980    5.4150    5.8430 ca        1 ZAF     -0.114000
     34 H2A1        3.8870   -1.3370    0.3380 hc        1 ZAF      0.052200
     35 H2A2        2.5920   -2.4520    0.9270 hc        1 ZAF      0.052200
     36 H2          1.7260    0.3390   -0.0230 h1        1 ZAF      0.062700
     37 HP2         4.4900   -2.5670   -1.5850 ha        1 ZAF      0.161500
     38 HP3         3.9690   -3.2860   -3.9080 ha        1 ZAF      0.102000
     39 HP4         1.6480   -3.0610   -4.7950 ha        1 ZAF      0.094000
     40 HP5        -0.1440   -2.1050   -3.3440 ha        1 ZAF      0.102000
     41 HP6         0.3690   -1.3840   -1.0020 ha        1 ZAF      0.161500
     42 H4          5.5210    1.2430    0.8530 h1        1 ZAF      0.081700
     43 H4A1        6.1790    0.4260    3.2440 hc        1 ZAF      0.037700
     44 H4A2        4.8140   -0.4530    2.4240 hc        1 ZAF      0.037700
     45 H4A3        4.4490    0.7690    3.7050 hc        1 ZAF      0.037700
     46 HN5         4.8480    3.4610    2.6210 hn        1 ZAF      0.346500
     47 H7          6.6590    4.9050    3.5200 h1        1 ZAF      0.089700
     48 H7A1        6.7110    6.7410    1.7560 hc        1 ZAF      0.050367
     49 H7A2        5.3720    5.5380    1.5180 hc        1 ZAF      0.050367
     50 H7A3        6.8470    5.4720    0.4640 hc        1 ZAF      0.050367
     51 HN8         9.1020    4.3660    1.9960 hn        1 ZAF      0.329500
     52 H111       11.0520    6.3450    5.2600 h1        1 ZAF      0.060200
     53 H112       10.5910    4.7290    5.9810 h1        1 ZAF      0.060200
     54 HP2'       12.1680    3.2180    3.5900 ha        1 ZAF      0.145000
     55 HP3'       14.5490    2.4590    3.5460 ha        1 ZAF      0.125000
     56 HP4'       16.2510    3.5950    4.9770 ha        1 ZAF      0.120000
     57 HP5'       15.5710    5.4910    6.4490 ha        1 ZAF      0.125000
     58 HP6'       13.2000    6.2540    6.4890 ha        1 ZAF      0.145000
@<TRIPOS>BOND
     1    1    2 1   
     2    1    3 1   
     3    1    5 1   
     4    4    5 1   
     5    4    6 1   
     6    4   34 1   
     7    4   35 1   
     8    5   12 1   
     9    5   36 1   
    10    6    7 ar  
    11    6   11 ar  
    12    7    8 ar  
    13    7   37 1   
    14    8    9 ar  
    15    8   38 1   
    16    9   10 ar  
    17    9   39 1   
    18   10   11 ar  
    19   10   40 1   
    20   11   41 1   
    21   12   13 1   
    22   13   14 1   
    23   13   15 1   
    24   13   16 1   
    25   16   17 1   
    26   16   18 1   
    27   16   42 1   
    28   17   43 1   
    29   17   44 1   
    30   17   45 1   
    31   18   19 1   
    32   18   46 1   
    33   19   20 2   
    34   19   21 1   
    35   21   22 1   
    36   21   23 1   
    37   21   47 1   
    38   22   48 1   
    39   22   49 1   
    40   22   50 1   
    41   23   24 1   
    42   23   51 1   
    43   24   25 2   
    44   24   26 1   
    45   26   27 1   
    46   27   28 1   
    47   27   52 1   
    48   27   53 1   
    49   28   29 ar  
    50   28   33 ar  
    51   29   30 ar  
    52   29   54 1   
    53   30   31 ar  
    54   30   55 1   
    55   31   32 ar  
    56   31   56 1   
    57   32   33 ar  
    58   32   57 1   
    59   33   58 1   
@<TRIPOS>SUBSTRUCTURE
     1 ZAF         1 TEMP              0 ****  ****    0 ROOT
