@<TRIPOS>MOLECULE
ZAF
   60    61     1     0     0
SMALL
bcc


@<TRIPOS>ATOM
      1 C1          0.0000    0.0000    0.0000 c         1 ZAF      0.969600
      2 O1A        -0.6040    0.0010    1.0460 o         1 ZAF     -0.805300
      3 O1B        -0.6720    0.0020   -1.1620 o         1 ZAF     -0.805300
      4 C2A         2.0160   -1.2490   -0.7230 c3        1 ZAF      0.012900
      5 C2          1.5060    0.0000    0.0000 c3        1 ZAF      0.145100
      6 CP1         3.5230   -1.2490   -0.7240 ca        1 ZAF     -0.038300
      7 CP2         4.2140   -0.6560   -1.7630 ca        1 ZAF     -0.073500
      8 CP3         5.5960   -0.6530   -1.7610 ca        1 ZAF     -0.110000
      9 CP4         6.2870   -1.2510   -0.7260 ca        1 ZAF     -0.131000
     10 CP5         5.5960   -1.8490    0.3120 ca        1 ZAF     -0.110000
     11 CP6         4.2140   -1.8490    0.3130 ca        1 ZAF     -0.073500
     12 O3          1.9840    0.0000    1.3450 os        1 ZAF     -0.403200
     13 P3          2.8660    1.3330    1.5280 p5        1 ZAF      0.638600
     14 O3A         4.0940    1.3110    0.4870 o         1 ZAF     -0.618500
     15 O3B         2.0230    2.5210    1.2700 o         1 ZAF     -0.618500
     16 C4          3.5140    1.4070    3.2300 c3        1 ZAF     -0.110700
     17 C4A         2.3470    1.4280    4.2200 c3        1 ZAF      0.036900
     18 N5          4.3170    2.6210    3.3950 ny        1 ZAF      0.232200
     19 C6          5.6380    2.5950    3.1330 c         1 ZAF      0.302100
     20 O6          6.1630    1.5670    2.7610 o         1 ZAF     -0.418100
     21 C7          6.4640    3.8430    3.3040 c3        1 ZAF     -0.122500
     22 C7A         5.9270    4.9400    2.3830 c3        1 ZAF     -0.015100
     23 N8          7.8590    3.5570    2.9600 ny        1 ZAF      0.130200
     24 C9          8.8550    4.2380    3.5610 c         1 ZAF      0.477100
     25 O9          8.5960    5.0880    4.3900 o         1 ZAF     -0.505000
     26 O10        10.1370    3.9740    3.2450 os        1 ZAF     -0.394900
     27 C11        11.2100    4.7070    3.8930 c3        1 ZAF      0.321700
     28 C1X        12.5370    4.2260    3.3660 ca        1 ZAF     -0.160300
     29 C2X        13.1020    4.8330    2.2600 ca        1 ZAF     -0.064000
     30 C3X        14.3190    4.3920    1.7750 ca        1 ZAF     -0.096000
     31 C4X        14.9720    3.3440    2.3980 ca        1 ZAF     -0.061000
     32 C5X        14.4070    2.7390    3.5050 ca        1 ZAF     -0.096000
     33 C6X        13.1920    3.1830    3.9910 ca        1 ZAF     -0.064000
     34 H2A1        1.6550   -1.2470   -1.7440 hc        1 ZAF      0.031200
     35 H2A2        1.6550   -2.1340   -0.2140 hc        1 ZAF      0.031200
     36 H2          1.8670    0.8850   -0.5110 h1        1 ZAF      0.047700
     37 HP2         3.6730   -0.2330   -2.6010 ha        1 ZAF      0.102000
     38 HP3         6.1380   -0.1860   -2.5750 ha        1 ZAF      0.079500
     39 HP4         7.3700   -1.2870   -0.7470 ha        1 ZAF      0.075000
     40 HP5         6.1380   -2.3190    1.1240 ha        1 ZAF      0.079500
     41 HP6         3.6730   -2.3180    1.1250 ha        1 ZAF      0.102000
     42 H4          4.1320    0.5370    3.4190 hx        1 ZAF      0.096700
     43 H4A1        2.7120    1.7020    5.2020 hc        1 ZAF      0.026700
     44 H4A2        1.6100    2.1520    3.8930 hc        1 ZAF      0.026700
     45 H4A3        1.8930    0.4450    4.2640 hc        1 ZAF      0.026700
     46 HN5         4.2140    2.9110    4.3470 hn        1 ZAF      0.238800
     47 H7          6.4070    4.1750    4.3340 hx        1 ZAF      0.106700
     48 H7A1        5.3040    4.4950    1.6170 hc        1 ZAF      0.051367
     49 H7A2        5.3390    5.6420    2.9620 hc        1 ZAF      0.051367
     50 H7A3        6.7560    5.4590    1.9180 hc        1 ZAF      0.051367
     51 HN8         8.0150    2.5850    3.1390 hn        1 ZAF      0.282300
     52 H111       11.1010    5.7650    3.6860 h1        1 ZAF      0.023700
     53 H112       11.1650    4.5420    4.9620 h1        1 ZAF      0.023700
     54 HP2'       12.5880    5.6520    1.7700 ha        1 ZAF      0.105000
     55 HP3'       14.7610    4.8680    0.9080 ha        1 ZAF      0.114500
     56 HP4'       15.9420    3.0220    2.0400 ha        1 ZAF      0.113000
     57 HP5'       14.9190    1.9190    3.9940 ha        1 ZAF      0.114500
     58 HP6'       12.7490    2.7090    4.8590 ha        1 ZAF      0.105000
     59 H52         3.9160    3.3180    2.8000 hn        1 ZAF      0.238800
     60 H82         7.9550    3.6990    1.9740 hn        1 ZAF      0.282300
@<TRIPOS>BOND
     1    1    2 1   
     2    1    3 1   
     3    1    5 1   
     4    4    5 1   
     5    4    6 1   
     6    4   34 1   
     7    4   35 1   
     8    5   12 1   
     9    5   36 1   
    10    6    7 ar  
    11    6   11 ar  
    12    7    8 ar  
    13    7   37 1   
    14    8    9 ar  
    15    8   38 1   
    16    9   10 ar  
    17    9   39 1   
    18   10   11 ar  
    19   10   40 1   
    20   11   41 1   
    21   12   13 1   
    22   13   14 1   
    23   13   15 1   
    24   13   16 1   
    25   16   17 1   
    26   16   18 1   
    27   16   42 1   
    28   17   43 1   
    29   17   44 1   
    30   17   45 1   
    31   18   19 1   
    32   18   46 1   
    33   18   59 1   
    34   19   20 2   
    35   19   21 1   
    36   21   22 1   
    37   21   23 1   
    38   21   47 1   
    39   22   48 1   
    40   22   49 1   
    41   22   50 1   
    42   23   24 1   
    43   23   51 1   
    44   23   60 1   
    45   24   25 2   
    46   24   26 1   
    47   26   27 1   
    48   27   28 1   
    49   27   52 1   
    50   27   53 1   
    51   28   29 ar  
    52   28   33 ar  
    53   29   30 ar  
    54   29   54 1   
    55   30   31 ar  
    56   30   55 1   
    57   31   32 ar  
    58   31   56 1   
    59   32   33 ar  
    60   32   57 1   
    61   33   58 1   
@<TRIPOS>SUBSTRUCTURE
     1 ZAF         1 TEMP              0 ****  ****    0 ROOT
