@<TRIPOS>MOLECULE
ZAH
   43    44     1     0     0
SMALL
bcc


@<TRIPOS>ATOM
      1 C1          0.5520    2.2520   -1.8180 c         1 ZAH      0.605100
      2 O2         -0.1680    2.5760   -0.8760 o         1 ZAH     -0.478000
      3 O20         0.1550    2.7660   -3.0170 oh        1 ZAH     -0.576100
      4 C3          1.7570    1.3150   -1.7740 c3        1 ZAH      0.037700
      5 C4          1.2680   -0.0720   -1.2740 c3        1 ZAH     -0.082400
      6 C5          1.9890   -0.3400    0.0410 c3        1 ZAH     -0.089400
      7 C6          2.9190    0.8550    0.2780 c3        1 ZAH      0.090000
      8 N7          2.8160    1.7390   -0.8820 n         1 ZAH     -0.464800
      9 C8          3.5820    2.8860   -0.9100 c         1 ZAH      0.654100
     10 O9          4.3670    3.1080    0.0330 o         1 ZAH     -0.590100
     11 C10         3.5510    3.9160   -2.0600 c3        1 ZAH      0.029700
     12 C11         2.4520    4.9340   -1.7670 c3        1 ZAH     -0.115100
     13 N14         3.4630    3.2880   -3.3690 n         1 ZAH     -0.522900
     14 C15         3.5480    4.0950   -4.5030 c         1 ZAH      0.722100
     15 O16         3.2720    5.2970   -4.6300 o         1 ZAH     -0.565000
     16 O17         3.9560    3.3750   -5.6090 os        1 ZAH     -0.446900
     17 C18         3.8190    4.0150   -6.8890 c3        1 ZAH      0.194700
     18 C19         2.4620    3.7890   -7.4690 ca        1 ZAH     -0.135300
     19 C20         1.4050    4.6420   -7.1300 ca        1 ZAH     -0.107500
     20 C21         0.1450    4.4490   -7.6920 ca        1 ZAH     -0.136000
     21 C22        -0.0660    3.4070   -8.5960 ca        1 ZAH     -0.117000
     22 C23         0.9850    2.5550   -8.9340 ca        1 ZAH     -0.136000
     23 C24         2.2460    2.7430   -8.3710 ca        1 ZAH     -0.107500
     24 H3          2.1630    1.1980   -2.8210 h1        1 ZAH      0.066700
     25 H4C1        1.5180   -0.8500   -2.0360 hc        1 ZAH      0.066700
     26 H4C2        0.1590   -0.0670   -1.1290 hc        1 ZAH      0.066700
     27 H5C1        2.5780   -1.2880   -0.0120 hc        1 ZAH      0.060700
     28 H5C2        1.2600   -0.4330    0.8830 hc        1 ZAH      0.060700
     29 H6C1        2.6310    1.4180    1.2080 h1        1 ZAH      0.065200
     30 H6C2        3.9900    0.5310    0.3880 h1        1 ZAH      0.065200
     31 H10         4.5450    4.4650   -1.9760 h1        1 ZAH      0.080700
     32 H111        2.5960    5.3180   -0.7270 hc        1 ZAH      0.069033
     33 H112        1.4330    4.4860   -1.8510 hc        1 ZAH      0.069033
     34 H113        2.5230    5.7890   -2.4850 hc        1 ZAH      0.069033
     35 H14         3.9710    2.4300   -3.4460 hn        1 ZAH      0.310500
     36 H181        4.6160    3.5030   -7.4970 h1        1 ZAH      0.076700
     37 H182        4.0400    5.1120   -6.7980 h1        1 ZAH      0.076700
     38 HA          1.5790    5.4600   -6.4110 ha        1 ZAH      0.144500
     39 H21        -0.6840    5.1210   -7.4220 ha        1 ZAH      0.135500
     40 H22        -1.0610    3.2570   -9.0410 ha        1 ZAH      0.134000
     41 H23         0.8200    1.7330   -9.6460 ha        1 ZAH      0.135500
     42 H24         3.0740    2.0680   -8.6380 ha        1 ZAH      0.144500
     43 H142        0.8090    2.5740   -3.7040 ho        1 ZAH      0.437000
@<TRIPOS>BOND
     1    1    2 2   
     2    1    3 1   
     3    1    4 1   
     4    3   43 1   
     5    4    5 1   
     6    4    8 1   
     7    4   24 1   
     8    5    6 1   
     9    5   25 1   
    10    5   26 1   
    11    6    7 1   
    12    6   27 1   
    13    6   28 1   
    14    7    8 1   
    15    7   29 1   
    16    7   30 1   
    17    8    9 1   
    18    9   10 2   
    19    9   11 1   
    20   11   12 1   
    21   11   13 1   
    22   11   31 1   
    23   12   32 1   
    24   12   33 1   
    25   12   34 1   
    26   13   14 1   
    27   13   35 1   
    28   14   15 2   
    29   14   16 1   
    30   16   17 1   
    31   17   18 1   
    32   17   36 1   
    33   17   37 1   
    34   18   19 ar  
    35   18   23 ar  
    36   19   20 ar  
    37   19   38 1   
    38   20   21 ar  
    39   20   39 1   
    40   21   22 ar  
    41   21   40 1   
    42   22   23 ar  
    43   22   41 1   
    44   23   42 1   
@<TRIPOS>SUBSTRUCTURE
     1 ZAH         1 TEMP              0 ****  ****    0 ROOT
