@<TRIPOS>MOLECULE
ZAH
   42    43     1     0     0
SMALL
bcc


@<TRIPOS>ATOM
      1 C1          0.9720    0.6180   -4.9780 c         1 ZAH      0.912600
      2 O2          0.6360    1.6490   -4.3330 o         1 ZAH     -0.831800
      3 O20         1.7280    0.6070   -5.9870 o         1 ZAH     -0.831800
      4 C3          0.3960   -0.7760   -4.5470 c3        1 ZAH     -0.043300
      5 C4         -0.6220   -1.2280   -5.6140 c3        1 ZAH     -0.071400
      6 C5         -2.0000   -0.9440   -5.0210 c3        1 ZAH     -0.080400
      7 C6         -1.7570   -0.5460   -3.5520 c3        1 ZAH      0.080000
      8 N7         -0.3480   -0.7810   -3.2780 n         1 ZAH     -0.416800
      9 C8          0.2600   -0.3790   -2.1070 c         1 ZAH      0.682100
     10 O9          1.4470   -0.6630   -1.8430 o         1 ZAH     -0.620100
     11 C10        -0.5850    0.3880   -1.0520 c3        1 ZAH      0.017700
     12 C11        -0.3180    1.8720   -1.3010 c3        1 ZAH     -0.139100
     13 N14        -0.2490   -0.0820    0.2840 n         1 ZAH     -0.498900
     14 C15        -0.9670    0.3820    1.3610 c         1 ZAH      0.731100
     15 O16        -2.1180    0.8520    1.4090 o         1 ZAH     -0.603000
     16 O17        -0.3010    0.1920    2.5680 os        1 ZAH     -0.455900
     17 C18        -1.0830    0.4830    3.7350 c3        1 ZAH      0.194700
     18 C19        -0.2710    0.1550    4.9430 ca        1 ZAH     -0.083300
     19 C20        -0.7280    0.6080    6.1890 ca        1 ZAH     -0.117000
     20 C21        -0.0150    0.3080    7.3460 ca        1 ZAH     -0.134000
     21 C22         1.1600   -0.4420    7.2710 ca        1 ZAH     -0.136000
     22 C23         1.6180   -0.8910    6.0340 ca        1 ZAH     -0.134000
     23 C24         0.9060   -0.5960    4.8710 ca        1 ZAH     -0.117000
     24 H3          1.2520   -1.4940   -4.4540 h1        1 ZAH      0.072700
     25 H4C1       -0.5040   -2.3170   -5.8320 hc        1 ZAH      0.047200
     26 H4C2       -0.4490   -0.6600   -6.5600 hc        1 ZAH      0.047200
     27 H5C1       -2.6580   -1.8440   -5.0760 hc        1 ZAH      0.032700
     28 H5C2       -2.5060   -0.1090   -5.5620 hc        1 ZAH      0.032700
     29 H6C1       -2.3770   -1.1750   -2.8580 h1        1 ZAH      0.033200
     30 H6C2       -2.0320    0.5360   -3.4010 h1        1 ZAH      0.033200
     31 H10        -1.6900    0.1890   -1.1810 h1        1 ZAH      0.077700
     32 H111        0.7260    2.1430   -1.0120 hc        1 ZAH      0.067367
     33 H112       -0.4260    2.0830   -2.3990 hc        1 ZAH      0.067367
     34 H113       -1.0360    2.4950   -0.7180 hc        1 ZAH      0.067367
     35 H14         0.7170   -0.2930    0.4340 hn        1 ZAH      0.332500
     36 H181       -1.3620    1.5720    3.7170 h1        1 ZAH      0.061200
     37 H182       -2.0220   -0.1340    3.7080 h1        1 ZAH      0.061200
     38 HA         -1.6510    1.2020    6.2480 ha        1 ZAH      0.143000
     39 H21        -0.3770    0.6640    8.3210 ha        1 ZAH      0.127000
     40 H22         1.7220   -0.6760    8.1860 ha        1 ZAH      0.124000
     41 H23         2.5450   -1.4800    5.9700 ha        1 ZAH      0.127000
     42 H24         1.2680   -0.9470    3.8920 ha        1 ZAH      0.143000
@<TRIPOS>BOND
     1    1    2 1   
     2    1    3 1   
     3    1    4 1   
     4    4    5 1   
     5    4    8 1   
     6    4   24 1   
     7    5    6 1   
     8    5   25 1   
     9    5   26 1   
    10    6    7 1   
    11    6   27 1   
    12    6   28 1   
    13    7    8 1   
    14    7   29 1   
    15    7   30 1   
    16    8    9 1   
    17    9   10 2   
    18    9   11 1   
    19   11   12 1   
    20   11   13 1   
    21   11   31 1   
    22   12   32 1   
    23   12   33 1   
    24   12   34 1   
    25   13   14 1   
    26   13   35 1   
    27   14   15 2   
    28   14   16 1   
    29   16   17 1   
    30   17   18 1   
    31   17   36 1   
    32   17   37 1   
    33   18   19 ar  
    34   18   23 ar  
    35   19   20 ar  
    36   19   38 1   
    37   20   21 ar  
    38   20   39 1   
    39   21   22 ar  
    40   21   40 1   
    41   22   23 ar  
    42   22   41 1   
    43   23   42 1   
@<TRIPOS>SUBSTRUCTURE
     1 ZAH         1 TEMP              0 ****  ****    0 ROOT
