@<TRIPOS>MOLECULE
ZAH
   43    44     1     0     0
SMALL
bcc


@<TRIPOS>ATOM
      1 C1          0.5420    2.4050   -1.7950 c         1 ZAH      0.605100
      2 O2         -0.1440    2.7970   -0.8540 o         1 ZAH     -0.478000
      3 O20         0.1710    2.9230   -3.0010 oh        1 ZAH     -0.576100
      4 C3          1.6790    1.3870   -1.7420 c3        1 ZAH      0.037700
      5 C4          1.0990    0.0470   -1.2110 c3        1 ZAH     -0.082400
      6 C5          1.8110   -0.2450    0.1030 c3        1 ZAH     -0.089400
      7 C6          2.8250    0.8860    0.3090 c3        1 ZAH      0.090000
      8 N7          2.7730    1.7520   -0.8670 n         1 ZAH     -0.464800
      9 C8          3.6180    2.8420   -0.9240 c         1 ZAH      0.654100
     10 O9          4.4250    3.0260    0.0090 o         1 ZAH     -0.590100
     11 C10         3.6480    3.8490   -2.0930 c3        1 ZAH      0.029700
     12 C11         2.6270    4.9480   -1.8120 c3        1 ZAH     -0.115100
     13 N14         3.5040    3.2050   -3.3890 ns        1 ZAH     -0.522900
     14 C15         3.6350    3.9810   -4.5400 c         1 ZAH      0.722100
     15 O16         3.4410    5.1970   -4.6880 o         1 ZAH     -0.565000
     16 O17         3.9810    3.2140   -5.6340 os        1 ZAH     -0.446900
     17 C18         3.8760    3.8370   -6.9260 c3        1 ZAH      0.194700
     18 C19         2.5020    3.6940   -7.4900 ca        1 ZAH     -0.135300
     19 C20         1.5090    4.6240   -7.1590 ca        1 ZAH     -0.107500
     20 C21         0.2330    4.5080   -7.7070 ca        1 ZAH     -0.135500
     21 C22        -0.0580    3.4660   -8.5880 ca        1 ZAH     -0.117000
     22 C23         0.9290    2.5370   -8.9180 ca        1 ZAH     -0.135500
     23 C24         2.2060    2.6480   -8.3700 ca        1 ZAH     -0.107500
     24 H3          2.0660    1.2210   -2.7890 h1        1 ZAH      0.066700
     25 H4C1       -0.0050    0.1330   -1.0580 hc        1 ZAH      0.066700
     26 H4C2        1.2870   -0.7610   -1.9600 hc        1 ZAH      0.066700
     27 H5C1        1.0850   -0.2710    0.9530 hc        1 ZAH      0.060700
     28 H5C2        2.3320   -1.2330    0.0640 hc        1 ZAH      0.060700
     29 H6C1        3.8710    0.4890    0.4180 h1        1 ZAH      0.065200
     30 H6C2        2.5860    1.4850    1.2300 h1        1 ZAH      0.065200
     31 H10         4.6790    4.3280   -2.0290 h1        1 ZAH      0.080700
     32 H111        2.8060    5.3400   -0.7810 hc        1 ZAH      0.069033
     33 H112        2.7500    5.7810   -2.5470 hc        1 ZAH      0.069033
     34 H113        1.5780    4.5710   -1.8790 hc        1 ZAH      0.069033
     35 H14         0.8040    2.6720   -3.6890 ho        1 ZAH      0.437000
     36 H181        4.6300    3.2590   -7.5300 h1        1 ZAH      0.076700
     37 H182        4.1730    4.9170   -6.8580 h1        1 ZAH      0.076700
     38 HA          1.7460    5.4420   -6.4570 ha        1 ZAH      0.144500
     39 H21        -0.5450    5.2400   -7.4430 ha        1 ZAH      0.135500
     40 H22        -1.0650    3.3770   -9.0210 ha        1 ZAH      0.134000
     41 H23         0.7010    1.7150   -9.6130 ha        1 ZAH      0.135500
     42 H24         2.9820    1.9130   -8.6300 ha        1 ZAH      0.144500
     43 H142        3.9510    2.3110   -3.4530 hn        1 ZAH      0.310500
@<TRIPOS>BOND
     1    1    2 2   
     2    1    3 1   
     3    1    4 1   
     4    3   35 1   
     5    4    5 1   
     6    4    8 1   
     7    4   24 1   
     8    5    6 1   
     9    5   25 1   
    10    5   26 1   
    11    6    7 1   
    12    6   27 1   
    13    6   28 1   
    14    7    8 1   
    15    7   29 1   
    16    7   30 1   
    17    8    9 1   
    18    9   10 2   
    19    9   11 1   
    20   11   12 1   
    21   11   13 1   
    22   11   31 1   
    23   12   32 1   
    24   12   33 1   
    25   12   34 1   
    26   13   14 1   
    27   13   43 1   
    28   14   15 2   
    29   14   16 1   
    30   16   17 1   
    31   17   18 1   
    32   17   36 1   
    33   17   37 1   
    34   18   19 ar  
    35   18   23 ar  
    36   19   20 ar  
    37   19   38 1   
    38   20   21 ar  
    39   20   39 1   
    40   21   22 ar  
    41   21   40 1   
    42   22   23 ar  
    43   22   41 1   
    44   23   42 1   
@<TRIPOS>SUBSTRUCTURE
     1 ZAH         1 TEMP              0 ****  ****    0 ROOT
