@<TRIPOS>MOLECULE
ZAH
   42    40     1     0     0
SMALL
bcc


@<TRIPOS>ATOM
      1 C1          1.5080   -5.5090    1.2230 c1        1 ZAH      0.332000
      2 O2          1.6880   -5.4550    2.4580 o         1 ZAH     -0.556000
      3 O20         2.3760   -6.0200    0.4910 os        1 ZAH     -0.579000
      4 C3          0.3670   -4.8970    0.6470 c3        1 ZAH     -0.068000
      5 C4          0.1740   -5.3800   -0.5900 c3        1 ZAH     -0.150000
      6 C5          0.9840   -4.4620   -1.5330 c3        1 ZAH     -0.159000
      7 C6          1.3810   -3.2270   -0.7010 c3        1 ZAH     -0.036000
      8 N7          0.6870   -3.2900    0.3650 n         1 ZAH     -0.277000
      9 C8          0.2580   -2.1670    1.1870 c2        1 ZAH      0.299000
     10 O9         -0.4190   -2.3700    2.2110 o         1 ZAH     -0.383000
     11 C10         0.5840   -0.7430    0.7620 c3        1 ZAH     -0.020000
     12 C11         2.0480   -0.4070    1.1440 c3        1 ZAH     -0.229000
     13 N14        -0.2820    0.1450    1.4140 n         1 ZAH     -0.293000
     14 C15        -1.1850    0.9750    0.6480 c2        1 ZAH      0.381000
     15 O16        -2.4160    0.7390    0.6650 o         1 ZAH     -0.430000
     16 O17        -0.6820    2.1500   -0.0430 os        1 ZAH     -0.272000
     17 C18        -1.6660    2.8050   -0.8470 c3        1 ZAH      0.034000
     18 C19        -1.4650    4.3260   -0.7780 c2        1 ZAH     -0.105000
     19 C20        -0.2570    4.8950   -1.1950 c2        1 ZAH     -0.112000
     20 C21        -0.0540    6.2780   -1.0710 c1        1 ZAH     -0.142000
     21 C22        -1.0550    7.0820   -0.5340 c1        1 ZAH     -0.133500
     22 C23        -2.2740    6.5070   -0.1140 c1        1 ZAH     -0.133500
     23 C24        -2.4750    5.1390   -0.2370 c1        1 ZAH     -0.104000
     24 H3         -0.3240   -5.1090    1.3280 h1        1 ZAH      0.112000
     25 H4C1       -0.7860   -5.3450   -0.8220 hc        1 ZAH      0.086000
     26 H4C2        0.5050   -6.3070   -0.6490 hc        1 ZAH      0.086000
     27 H5C1        1.7870   -4.9280   -1.8500 hc        1 ZAH      0.071500
     28 H5C2        0.4530   -4.2000   -2.2630 hc        1 ZAH      0.071500
     29 H6C1        1.1720   -2.4130   -1.1880 h1        1 ZAH      0.071500
     30 H6C2        2.3120   -3.2580   -0.4900 h1        1 ZAH      0.071500
     31 H10         0.4710   -0.6560   -0.2310 h1        1 ZAH      0.122000
     32 H111        2.1000   -0.2170    2.0990 hc        1 ZAH      0.104000
     33 H112        2.3390    0.3680    0.6460 hc        1 ZAH      0.104000
     34 H113        2.6200   -1.1610    0.9330 hc        1 ZAH      0.104000
     35 H14        -0.3060    0.1690    2.3380 hn        1 ZAH      0.243000
     36 H181       -1.5800    2.5050   -1.7790 h1        1 ZAH      0.109000
     37 H182       -2.5640    2.5800   -0.5120 h1        1 ZAH      0.109000
     38 HA          0.4280    4.3430   -1.5640 ha        1 ZAH      0.130000
     39 H21         0.7940    6.6790   -1.3630 ha        1 ZAH      0.124000
     40 H22        -0.9190    8.0140   -0.4510 ha        1 ZAH      0.125000
     41 H23        -3.0020    7.0800    0.1910 ha        1 ZAH      0.125000
     42 H24        -3.3240    4.7390    0.0560 ha        1 ZAH      0.165000
@<TRIPOS>BOND
     1    1    2 1   
     2    1    4 1   
     3    4    5 1   
     4    4    8 1   
     5    4   24 1   
     6    5    6 1   
     7    5   25 1   
     8    5   26 1   
     9    6    7 1   
    10    6   27 1   
    11    6   28 1   
    12    7    8 1   
    13    7   29 1   
    14    7   30 1   
    15    8    9 1   
    16    9   10 1   
    17    9   11 1   
    18   11   12 1   
    19   11   13 1   
    20   11   31 1   
    21   12   32 1   
    22   12   33 1   
    23   12   34 1   
    24   13   14 1   
    25   13   35 1   
    26   14   15 1   
    27   14   16 1   
    28   16   17 1   
    29   17   18 1   
    30   17   36 1   
    31   17   37 1   
    32   18   19 1   
    33   18   23 1   
    34   19   20 1   
    35   19   38 1   
    36   20   39 1   
    37   21   22 1   
    38   21   40 1   
    39   22   41 1   
    40   23   42 1   
@<TRIPOS>SUBSTRUCTURE
     1 ZAH         1 TEMP              0 ****  ****    0 ROOT
