@<TRIPOS>MOLECULE
ZAL
   28    28     1     0     0
SMALL
bcc


@<TRIPOS>ATOM
      1 C1          0.9590    0.2910    0.0500 c3        1 ZAL     -0.062700
      2 C2          1.4270   -1.1380    0.2910 c3        1 ZAL     -0.072900
      3 C3          2.8550   -1.1770    0.7940 c3        1 ZAL     -0.074400
      4 C4          3.7950   -0.4680   -0.1600 c3        1 ZAL     -0.072400
      5 C5          3.3380    0.9530   -0.4180 c3        1 ZAL     -0.074400
      6 C6          1.9080    0.9900   -0.9160 c3        1 ZAL     -0.072900
      7 N          -1.6450    1.0820    1.5620 n3        1 ZAL     -0.891800
      8 CA         -1.5350    0.0380    0.5500 c3        1 ZAL      0.017500
      9 CB         -0.4590    0.3180   -0.5000 c3        1 ZAL     -0.060400
     10 C          -2.8750   -0.2740   -0.2000 c         1 ZAL      0.886600
     11 O          -3.9060    0.3820    0.1270 o         1 ZAL     -0.845300
     12 H1          0.9850    0.8420    1.0310 hc        1 ZAL      0.057700
     13 H2          0.7520   -1.6270    1.0410 hc        1 ZAL      0.039700
     14 H2A         1.3480   -1.7220   -0.6630 hc        1 ZAL      0.039700
     15 H3          2.9100   -0.6870    1.8020 hc        1 ZAL      0.026950
     16 H3A         3.1820   -2.2420    0.9190 hc        1 ZAL      0.026950
     17 H4          4.8320   -0.4600    0.2650 hc        1 ZAL      0.025200
     18 H4A         3.8330   -1.0290   -1.1310 hc        1 ZAL      0.025200
     19 H5          3.4170    1.5460    0.5300 hc        1 ZAL      0.026950
     20 H5A         4.0140    1.4330   -1.1730 hc        1 ZAL      0.026950
     21 H6          1.8450    0.4950   -1.9200 hc        1 ZAL      0.039700
     22 H6A         1.5880    2.0570   -1.0460 hc        1 ZAL      0.039700
     23 HA         -1.2580   -0.9080    1.1010 h1        1 ZAL      0.040700
     24 HB         -0.6500    1.3180   -0.9730 hc        1 ZAL      0.046700
     25 HBA        -0.5720   -0.4590   -1.3040 hc        1 ZAL      0.046700
     26 OXT        -2.8550   -1.1810   -1.0770 o         1 ZAL     -0.845300
     27 HN         -1.7290    1.9690    1.0960 hn        1 ZAL      0.329800
     28 HNA        -2.5180    0.9360    2.0430 hn        1 ZAL      0.329800
@<TRIPOS>BOND
     1    1    2 1   
     2    1    6 1   
     3    1    9 1   
     4    1   12 1   
     5    2    3 1   
     6    2   13 1   
     7    2   14 1   
     8    3    4 1   
     9    3   15 1   
    10    3   16 1   
    11    4    5 1   
    12    4   17 1   
    13    4   18 1   
    14    5    6 1   
    15    5   19 1   
    16    5   20 1   
    17    6   21 1   
    18    6   22 1   
    19    7    8 1   
    20    7   27 1   
    21    7   28 1   
    22    8    9 1   
    23    8   10 1   
    24    8   23 1   
    25    9   24 1   
    26    9   25 1   
    27   10   11 1   
    28   10   26 1   
@<TRIPOS>SUBSTRUCTURE
     1 ZAL         1 TEMP              0 ****  ****    0 ROOT
