@<TRIPOS>MOLECULE
ZAL
   28    28     1     0     0
SMALL
bcc


@<TRIPOS>ATOM
      1 C1          0.0050    0.0290   -0.0130 c3        1 ZAL     -0.055700
      2 C2          1.5750    0.2590    0.0500 c3        1 ZAL     -0.072900
      3 C3          2.1150    0.2940    1.4710 c3        1 ZAL     -0.071900
      4 C4          1.1340    0.5390    2.3690 c3        1 ZAL     -0.071400
      5 C5          0.1060    1.4100    2.1890 c3        1 ZAL     -0.071900
      6 C6         -0.4130    1.3700    0.7740 c3        1 ZAL     -0.072900
      7 N          -2.5950   -1.0260   -1.4840 n3        1 ZAL     -0.891800
      8 CA         -1.1940   -1.2640   -1.5460 c3        1 ZAL      0.018500
      9 CB         -0.4520    0.0270   -1.2790 c3        1 ZAL     -0.063400
     10 C          -0.8310   -1.7790   -2.9190 c         1 ZAL      0.886600
     11 O          -0.3990   -2.9540   -3.0560 o         1 ZAL     -0.845300
     12 H1         -0.2630   -0.7750    0.4750 hc        1 ZAL      0.052700
     13 H2          1.7860    1.1080   -0.3870 hc        1 ZAL      0.038700
     14 H2A         2.0190   -0.4650   -0.4360 hc        1 ZAL      0.038700
     15 H3          2.5290   -0.5690    1.6770 hc        1 ZAL      0.024200
     16 H3A         2.7930    0.9980    1.5370 hc        1 ZAL      0.024200
     17 H4          1.5870    0.8240    3.1910 hc        1 ZAL      0.026700
     18 H4A         0.7210   -0.3300    2.5600 hc        1 ZAL      0.026700
     19 H5         -0.6210    1.1780    2.8030 hc        1 ZAL      0.024200
     20 H5A         0.4160    2.3170    2.3900 hc        1 ZAL      0.024200
     21 H6         -1.3890    1.4300    0.7960 hc        1 ZAL      0.038700
     22 H6A        -0.0610    2.1420    0.2880 hc        1 ZAL      0.038700
     23 HN         -2.9380   -0.9980   -2.3330 hn        1 ZAL      0.329300
     24 HNA        -2.9990   -1.7010   -1.0140 hn        1 ZAL      0.329300
     25 HA         -0.9460   -1.9270   -0.8730 h1        1 ZAL      0.040700
     26 HB         -1.0580    0.7850   -1.4090 hc        1 ZAL      0.049200
     27 HBA         0.3030    0.1030   -1.8990 hc        1 ZAL      0.049200
     28 OXT        -0.9310   -1.0250   -3.9220 o         1 ZAL     -0.845300
@<TRIPOS>BOND
     1    1    2 1   
     2    1    6 1   
     3    1    9 1   
     4    1   12 1   
     5    2    3 1   
     6    2   13 1   
     7    2   14 1   
     8    3    4 1   
     9    3   15 1   
    10    3   16 1   
    11    4    5 1   
    12    4   17 1   
    13    4   18 1   
    14    5    6 1   
    15    5   19 1   
    16    5   20 1   
    17    6   21 1   
    18    6   22 1   
    19    7    8 1   
    20    7   23 1   
    21    7   24 1   
    22    8    9 1   
    23    8   10 1   
    24    8   25 1   
    25    9   26 1   
    26    9   27 1   
    27   10   11 1   
    28   10   28 1   
@<TRIPOS>SUBSTRUCTURE
     1 ZAL         1 TEMP              0 ****  ****    0 ROOT
