@<TRIPOS>MOLECULE
ZAM
   54    56     1     0     0
SMALL
bcc


@<TRIPOS>ATOM
      1 C13        -0.4730   -0.6910    5.0330 c3        1 ZAM      0.143300
      2 C21         1.5170    0.4850    5.8780 c         1 ZAM      0.664100
      3 C27         0.0630    0.5840    0.2090 c         1 ZAM      0.682700
      4 C30        -0.2810    1.8780   -1.8530 c3        1 ZAM      0.147200
      5 C33        -2.1430    0.5810   -0.9190 c3        1 ZAM      0.078300
      6 C01        -1.2590   -2.2190    3.1940 ca        1 ZAM      0.169600
      7 C02        -0.6490   -0.9860    3.5670 ca        1 ZAM     -0.164300
      8 C03        -0.2410   -0.1020    2.5720 ca        1 ZAM     -0.039000
      9 C04        -0.4380   -0.3900    1.2170 ca        1 ZAM     -0.183600
     10 C05        -1.0210   -1.6020    0.8450 ca        1 ZAM     -0.063000
     11 C06        -1.4200   -2.5080    1.8160 ca        1 ZAM     -0.204000
     12 N16         0.2140    0.5240    5.3890 n         1 ZAM     -0.484800
     13 C17        -0.4570    1.7750    5.1900 c3        1 ZAM      0.081300
     14 O22         2.0870   -0.6070    6.0710 o         1 ZAM     -0.606100
     15 C23         2.2070    1.7890    6.1860 c3        1 ZAM     -0.170100
     16 N28        -0.7910    1.0430   -0.7870 n         1 ZAM     -0.469800
     17 O29         1.2310    1.0250    0.2780 o         1 ZAM     -0.620100
     18 C37        -0.1260    1.1880   -3.1730 cc        1 ZAM     -0.091300
     19 C38        -1.0510    1.2060   -4.2190 cd        1 ZAM     -0.180200
     20 C39        -0.4910    0.4400   -5.3040 ca        1 ZAM     -0.098800
     21 C40         0.7990   -0.0300   -4.8490 ca        1 ZAM     -0.043200
     22 N41         0.9920    0.4130   -3.5340 na        1 ZAM     -0.057400
     23 C43         2.2210    0.3120   -2.8180 c3        1 ZAM      0.010600
     24 C47        -0.9340    0.1030   -6.5850 ca        1 ZAM     -0.084000
     25 C48        -0.1200   -0.6730   -7.3940 ca        1 ZAM     -0.159000
     26 C51         1.6130   -0.8160   -5.6830 ca        1 ZAM     -0.141000
     27 C52         1.1360   -1.1240   -6.9470 ca        1 ZAM     -0.114000
     28 H131        0.1000   -1.5490    5.5000 h1        1 ZAM      0.067200
     29 H132       -1.5030   -0.6540    5.5020 h1        1 ZAM      0.067200
     30 H301       -1.0100    2.7280   -2.0090 h1        1 ZAM      0.076700
     31 H302        0.7070    2.3190   -1.5290 h1        1 ZAM      0.076700
     32 H331       -2.5540    0.2750    0.0790 h1        1 ZAM      0.044033
     33 H332       -2.7800    1.4100   -1.3300 h1        1 ZAM      0.044033
     34 H333       -2.2040   -0.2930   -1.6240 h1        1 ZAM      0.044033
     35 H03         0.2620    0.8450    2.8300 ha        1 ZAM      0.150000
     36 H05        -1.1540   -1.8510   -0.2200 ha        1 ZAM      0.141000
     37 H06        -1.8720   -3.4630    1.5050 ha        1 ZAM      0.137000
     38 H101       -1.9320   -4.0250    3.8110 hn        1 ZAM      0.398300
     39 H102       -1.3180   -3.0780    5.0350 hn        1 ZAM      0.398300
     40 H171       -0.7070    2.2450    6.1810 h1        1 ZAM      0.040367
     41 H172        0.1910    2.4900    4.6130 h1        1 ZAM      0.040367
     42 H173       -1.4080    1.6140    4.6170 h1        1 ZAM      0.040367
     43 H231        3.1810    1.5670    6.6880 hc        1 ZAM      0.067700
     44 H232        2.4070    2.3480    5.2400 hc        1 ZAM      0.067700
     45 H233        1.5840    2.4240    6.8620 hc        1 ZAM      0.067700
     46 H38        -2.0140    1.7050   -4.2210 ha        1 ZAM      0.152000
     47 H431        2.9590    1.0780   -3.1840 h1        1 ZAM      0.059367
     48 H432        2.0430    0.4750   -1.7190 h1        1 ZAM      0.059367
     49 H433        2.6580   -0.7110   -2.9750 h1        1 ZAM      0.059367
     50 H47        -1.9150    0.4540   -6.9370 ha        1 ZAM      0.131000
     51 H48        -0.4530   -0.9450   -8.4060 ha        1 ZAM      0.128000
     52 H51         2.5930   -1.1720   -5.3410 ha        1 ZAM      0.133000
     53 H52         1.7530   -1.7370   -7.6220 ha        1 ZAM      0.128000
     54 N10        -1.7670   -3.1020    4.1470 nh        1 ZAM     -0.823200
@<TRIPOS>BOND
     1    1    7 1   
     2    1   12 1   
     3    1   28 1   
     4    1   29 1   
     5    2   12 1   
     6    2   14 2   
     7    2   15 1   
     8    3    9 1   
     9    3   16 1   
    10    3   17 2   
    11    4   16 1   
    12    4   18 1   
    13    4   30 1   
    14    4   31 1   
    15    5   16 1   
    16    5   32 1   
    17    5   33 1   
    18    5   34 1   
    19    6    7 ar  
    20    6   11 ar  
    21    6   54 1   
    22    7    8 ar  
    23    8    9 ar  
    24    8   35 1   
    25    9   10 ar  
    26   10   11 ar  
    27   10   36 1   
    28   11   37 1   
    29   12   13 1   
    30   13   40 1   
    31   13   41 1   
    32   13   42 1   
    33   15   43 1   
    34   15   44 1   
    35   15   45 1   
    36   18   19 2   
    37   18   22 1   
    38   19   20 1   
    39   19   46 1   
    40   20   21 ar  
    41   20   24 ar  
    42   21   22 1   
    43   21   26 ar  
    44   22   23 1   
    45   23   47 1   
    46   23   48 1   
    47   23   49 1   
    48   24   25 ar  
    49   24   50 1   
    50   25   27 ar  
    51   25   51 1   
    52   26   27 ar  
    53   26   52 1   
    54   27   53 1   
    55   38   54 1   
    56   39   54 1   
@<TRIPOS>SUBSTRUCTURE
     1 ZAM         1 TEMP              0 ****  ****    0 ROOT
