@<TRIPOS>MOLECULE
ZAM
   56    54     1     0     0
SMALL
bcc


@<TRIPOS>ATOM
      1 C13        -0.4850   -0.5180    0.4450 c3        1 ZAM      0.016000
      2 C21        -1.3400    1.3500   -0.8840 c2        1 ZAM      0.306000
      3 C27         3.4280    1.0520   -2.2370 c2        1 ZAM      0.265000
      4 C30        10.7620    4.5720    0.7680 c2        1 ZAM     -0.121000
      5 C33         4.3370   -1.2800   -5.1660 c2        1 ZAM     -0.071000
      6 C01         1.8450   -1.1250    1.2680 c2        1 ZAM      0.265000
      7 C02         1.0000   -0.5580    0.1700 c2        1 ZAM     -0.143000
      8 C03         1.5610   -0.1000   -0.9860 c2        1 ZAM     -0.018000
      9 C04         3.0660   -0.0720   -1.3030 c3        1 ZAM     -0.162000
     10 C05         3.5040    0.0480    0.1100 c2        1 ZAM      0.085000
     11 C06         3.2210   -1.1050    0.8330 c2        1 ZAM     -0.358000
     12 N16        -1.3310   -0.0260   -0.6120 n         1 ZAM     -0.350000
     13 C17        -2.4250   -0.8650   -1.0280 c3        1 ZAM     -0.089000
     14 O22        -0.3710    2.0340   -0.4960 o         1 ZAM     -0.384000
     15 C23        -2.4750    1.9430   -1.6690 c3        1 ZAM     -0.240000
     16 N28         4.7140   -0.4880   -4.2440 n2        1 ZAM     -0.338000
     17 O29         4.4310    1.7500   -2.0800 o         1 ZAM     -0.344000
     18 C37         9.9140    4.0640   -0.0700 c1        1 ZAM     -0.117000
     19 C38         9.0440    3.5370   -0.8880 c2        1 ZAM     -0.187000
     20 C39         9.1180    3.7100   -2.3770 c3        1 ZAM     -0.050000
     21 C40         7.8710    4.4030   -2.8830 c2        1 ZAM     -0.110000
     22 N41         6.6770    3.6000   -2.9580 n7        1 ZAM     -0.090000
     23 C43         6.3420    2.9460   -4.0360 c2        1 ZAM      0.120000
     24 C47         9.4150    2.3740   -2.9790 c2        1 ZAM      0.237000
     25 C48         8.5240    1.6170   -3.6060 c1        1 ZAM     -0.590000
     26 C51         7.8660    5.7090   -3.1980 c2        1 ZAM     -0.106000
     27 C52         7.6950    0.8340   -4.1690 c1        1 ZAM      0.156000
     28 H131       -0.8230   -1.5640    0.7070 h1        1 ZAM      0.111500
     29 H132       -0.6120    0.1470    1.3550 h1        1 ZAM      0.111500
     30 H301       11.6680    4.0310    1.0920 ha        1 ZAM      0.169000
     31 H302       10.6280    5.5740    1.2110 ha        1 ZAM      0.169000
     32 H331        5.7000   -0.3250   -4.1730 hn        1 ZAM      0.164000
     33 H332        4.9870   -1.8070   -5.8940 h4        1 ZAM      0.122500
     34 H333        3.2550   -1.4850   -5.2830 h4        1 ZAM      0.122500
     35 H03         3.3700   -1.0370   -1.8080 hc        1 ZAM      0.195000
     36 H05         3.7620   -2.0550    0.7100 ha        1 ZAM      0.219000
     37 H06         3.5230    1.0530    0.5660 ha        1 ZAM      0.175000
     38 H101        2.0150   -2.0740    3.0480 hn        1 ZAM      0.278500
     39 H102        0.4040   -1.8480    2.5150 hn        1 ZAM      0.278500
     40 H171       -2.0910   -1.9350   -1.0700 h1        1 ZAM      0.098000
     41 H172       -2.7640   -0.5610   -2.0550 h1        1 ZAM      0.098000
     42 H173       -3.2950   -0.7810   -0.3210 h1        1 ZAM      0.098000
     43 H231       -2.4450    1.5850   -2.7280 hc        1 ZAM      0.125333
     44 H232       -2.3730    3.0570   -1.6600 hc        1 ZAM      0.125333
     45 H233       -3.4600    1.6650   -1.2190 hc        1 ZAM      0.125333
     46 H38         8.2010    2.9330   -0.5160 ha        1 ZAM      0.142000
     47 H431        6.1840    3.4560   -2.0870 hn        1 ZAM      0.291000
     48 H432        5.4710    2.2490   -4.0140 h4        1 ZAM      0.206500
     49 H433        6.8650    3.1230   -5.0010 h4        1 ZAM      0.206500
     50 H47         9.9910    4.3890   -2.6350 hc        1 ZAM      0.165000
     51 H48        10.4620    2.0250   -2.8380 ha        1 ZAM      0.178000
     52 H51         8.7860    6.3120   -3.1190 ha        1 ZAM      0.166500
     53 H52         6.9770    6.2590   -3.5430 ha        1 ZAM      0.166500
     54 H161        0.9380    0.3720   -1.7690 ha        1 ZAM      0.199000
     55 H281        2.7330    1.1890   -3.0950 h4        1 ZAM      0.140000
     56 N10         1.3830   -1.7150    2.3580 n8        1 ZAM     -0.228000
@<TRIPOS>BOND
     1    1    7 1   
     2    1   12 1   
     3    1   28 1   
     4    1   29 1   
     5    2   12 1   
     6    2   14 1   
     7    2   15 1   
     8    3    9 1   
     9    3   17 1   
    10    3   55 1   
    11    4   18 1   
    12    4   30 1   
    13    4   31 1   
    14    5   16 1   
    15    5   33 1   
    16    5   34 1   
    17    6    7 1   
    18    6   11 1   
    19    6   56 1   
    20    7    8 1   
    21    8    9 1   
    22    8   54 1   
    23    9   10 1   
    24    9   35 1   
    25   10   11 1   
    26   10   37 1   
    27   11   36 1   
    28   12   13 1   
    29   13   40 1   
    30   13   41 1   
    31   13   42 1   
    32   15   43 1   
    33   15   44 1   
    34   15   45 1   
    35   16   32 1   
    36   18   19 1   
    37   19   20 1   
    38   19   46 1   
    39   20   21 1   
    40   20   24 1   
    41   20   50 1   
    42   21   22 1   
    43   21   26 1   
    44   22   23 1   
    45   22   47 1   
    46   23   48 1   
    47   23   49 1   
    48   24   25 1   
    49   24   51 1   
    50   25   27 1   
    51   26   52 1   
    52   26   53 1   
    53   38   56 1   
    54   39   56 1   
@<TRIPOS>SUBSTRUCTURE
     1 ZAM         1 TEMP              0 ****  ****    0 ROOT
