@<TRIPOS>MOLECULE
ZAM
   54    55     1     0     0
SMALL
bcc


@<TRIPOS>ATOM
      1 C13         0.8200    0.9300   -0.1540 c3        1 ZAM      0.006000
      2 C21         0.5980    1.7510   -2.4460 c2        1 ZAM     -0.073000
      3 C27         5.0580   -1.5240   -1.4230 c2        1 ZAM      0.278000
      4 C30         5.7740    0.3440   -2.6840 c2        1 ZAM     -0.620000
      5 C33         7.2420   -1.5900   -2.5870 c3        1 ZAM     -0.183000
      6 C01         2.5590    0.3420    1.5460 c2        1 ZAM     -0.046000
      7 C02         2.1360    0.3150    0.2280 c2        1 ZAM     -0.108000
      8 C03         2.9930   -0.2470   -0.8360 c3        1 ZAM     -0.125000
      9 C04         4.2470   -0.8780   -0.3670 c2        1 ZAM     -0.077000
     10 C05         4.6250   -0.8510    0.9340 c2        1 ZAM     -0.142000
     11 C06         3.8650   -0.1420    1.9110 c1        1 ZAM     -0.068000
     12 N16         0.3290    0.7790   -1.4990 n3        1 ZAM     -0.257000
     13 C17        -0.0800   -0.5290   -1.9400 c3        1 ZAM     -0.091000
     14 O22         1.8030    2.3720   -2.3270 os        1 ZAM      0.023000
     15 C23        -0.1630    1.8610   -3.7130 c3        1 ZAM     -0.182000
     16 N28         6.2640   -0.7300   -1.8740 n4        1 ZAM      0.100000
     17 O29         4.8020   -2.5890   -1.9790 o         1 ZAM     -0.233000
     18 C37         6.0000    1.6860   -2.3100 c2        1 ZAM      0.171000
     19 C38         6.6700    2.1820   -1.2090 c2        1 ZAM     -0.458000
     20 C39         6.5860    3.6870   -1.2010 c3        1 ZAM     -0.033000
     21 C40         5.7220    3.9720   -2.4350 c2        1 ZAM     -0.006000
     22 N41         5.5080    2.7490   -3.1400 n3        1 ZAM     -0.226000
     23 C43         2.2770    3.1660   -3.2670 c2        1 ZAM     -0.380000
     24 C47         7.9490    4.2630   -1.3460 c2        1 ZAM      0.224000
     25 C48         8.6190    4.8320   -0.3570 c1        1 ZAM     -0.592000
     26 C51         5.2720    5.1810   -2.7950 c2        1 ZAM     -0.292000
     27 C52         9.2730    5.3820    0.5850 c1        1 ZAM      0.158000
     28 H131        0.8920    2.0410    0.0600 h1        1 ZAM      0.120500
     29 H132        0.0270    0.4910    0.5260 h1        1 ZAM      0.120500
     30 H301        6.7130   -0.3410   -1.0330 hn        1 ZAM      0.239000
     31 H302        5.3570    0.0490   -3.6490 hx        1 ZAM      0.167000
     32 H331        6.7480   -2.0470   -3.4840 hx        1 ZAM      0.123667
     33 H332        7.5970   -2.4010   -1.9010 hx        1 ZAM      0.123667
     34 H333        8.0980   -0.9480   -2.9200 hx        1 ZAM      0.123667
     35 H03         3.2650    0.5850   -1.5630 hc        1 ZAM      0.163000
     36 H05         2.4120   -1.0180   -1.4250 hc        1 ZAM      0.163000
     37 H06         5.5470   -1.3430    1.2870 ha        1 ZAM      0.150000
     38 H101        2.2380    0.8890    3.4510 hn        1 ZAM      0.186500
     39 H102        1.2160    1.6170    2.3620 hn        1 ZAM      0.186500
     40 H171       -0.0870   -1.2420   -1.0750 h1        1 ZAM      0.081000
     41 H172        0.5990   -0.9320   -2.7400 h1        1 ZAM      0.081000
     42 H173       -1.1190   -0.4640   -2.3630 h1        1 ZAM      0.081000
     43 H231        0.3660    1.3280   -4.5440 hc        1 ZAM      0.098667
     44 H232       -0.2450    2.9460   -3.9850 hc        1 ZAM      0.098667
     45 H233       -1.1920    1.4390   -3.6090 hc        1 ZAM      0.098667
     46 H38         7.1970    1.6470   -0.4300 ha        1 ZAM      0.135000
     47 H431        4.5910    2.6140   -3.5170 hn        1 ZAM      0.212000
     48 H432        1.9670    3.0860   -4.3080 h4        1 ZAM      0.141000
     49 H433        2.8430    4.0220   -2.8810 h4        1 ZAM      0.141000
     50 H47         6.0800    4.0690   -0.2750 hc        1 ZAM      0.123000
     51 H48         8.4010    4.1630   -2.3540 ha        1 ZAM      0.131000
     52 H51         5.5360    6.0750   -2.2190 ha        1 ZAM      0.124000
     53 H52         4.6390    5.3480   -3.6740 ha        1 ZAM      0.124000
     54 N10         1.7390    0.7970    2.5890 n3        1 ZAM     -0.303000
@<TRIPOS>BOND
     1    1    7 1   
     2    1   12 1   
     3    1   28 1   
     4    1   29 1   
     5    2   12 1   
     6    2   14 1   
     7    2   15 1   
     8    3    9 1   
     9    3   16 1   
    10    3   17 1   
    11    4   16 1   
    12    4   18 1   
    13    4   31 1   
    14    5   16 1   
    15    5   32 1   
    16    5   33 1   
    17    5   34 1   
    18    6    7 1   
    19    6   11 1   
    20    6   54 1   
    21    7    8 1   
    22    8    9 1   
    23    8   35 1   
    24    8   36 1   
    25    9   10 1   
    26   10   11 1   
    27   10   37 1   
    28   12   13 1   
    29   13   40 1   
    30   13   41 1   
    31   13   42 1   
    32   14   23 1   
    33   15   43 1   
    34   15   44 1   
    35   15   45 1   
    36   16   30 1   
    37   18   19 1   
    38   18   22 1   
    39   19   20 1   
    40   19   46 1   
    41   20   21 1   
    42   20   24 1   
    43   20   50 1   
    44   21   22 1   
    45   21   26 1   
    46   22   47 1   
    47   23   48 1   
    48   23   49 1   
    49   24   25 1   
    50   24   51 1   
    51   25   27 1   
    52   26   52 1   
    53   26   53 1   
    54   38   54 1   
    55   39   54 1   
@<TRIPOS>SUBSTRUCTURE
     1 ZAM         1 TEMP              0 ****  ****    0 ROOT
