@<TRIPOS>MOLECULE
ZAP
   41    35     1     0     0
SMALL
bcc


@<TRIPOS>ATOM
      1 C1         -5.8430    1.3390   -1.6690 c1        1 ZAP      0.162000
      2 C2         -4.3310    1.3000   -1.6530 c1        1 ZAP     -0.323000
      3 C3         -3.6450    0.6200   -2.6470 c2        1 ZAP     -0.056000
      4 C4         -2.2620    0.5390   -2.6030 c1        1 ZAP     -0.237000
      5 C5         -1.5650    1.1380   -1.5660 c1        1 ZAP      0.142000
      6 C6         -2.2510    1.8190   -0.5720 c1        1 ZAP     -0.248000
      7 C7         -3.6340    1.9000   -0.6160 c1        1 ZAP     -0.047000
      8 C8         -0.0530    1.1330   -1.5710 c3        1 ZAP     -0.421000
      9 C9          1.5870   -0.3100   -0.4400 c1        1 ZAP      0.401000
     10 C10         3.3680   -1.4780    0.5730 c3        1 ZAP     -0.016000
     11 C11         3.8470   -2.0180    1.9040 c2        1 ZAP     -0.037000
     12 C12         3.4220   -3.2640    2.3390 c2        1 ZAP     -0.115000
     13 C13         3.8820   -3.7710    3.5440 c1        1 ZAP     -0.147000
     14 C14         4.7670   -3.0330    4.3140 c1        1 ZAP     -0.155000
     15 C15         5.1920   -1.7870    3.8790 c1        1 ZAP     -0.155000
     16 C16         4.7320   -1.2800    2.6740 c1        1 ZAP     -0.133000
     17 N1         -6.4660    2.2830   -2.3260 n1        1 ZAP     -0.406000
     18 N2         -6.5850    0.3510   -0.9720 n3        1 ZAP     -0.338000
     19 N3          0.4220    0.5000   -0.3910 n2        1 ZAP     -0.295000
     20 O3          2.1280   -0.5310   -1.5050 o         1 ZAP     -0.413000
     21 O4          2.1210   -0.8450    0.7450 os        1 ZAP     -0.323000
     22 O1P        -0.4080    3.6940   -2.4170 o         1 ZAP     -0.831833
     23 O2P         0.6760    3.3810   -0.2240 o         1 ZAP     -0.831833
     24 O3P         1.9130    2.8680   -2.2940 o         1 ZAP     -0.831833
     25 P           0.5580    2.8410   -1.6290 p5        1 ZAP      1.489500
     26 H3         -4.1360    0.1980   -3.3770 ha        1 ZAP      0.084000
     27 H4         -1.7790    0.0600   -3.3030 ha        1 ZAP      0.123000
     28 H6         -1.7610    2.2410    0.1580 ha        1 ZAP      0.112000
     29 H7         -4.1180    2.3710    0.0890 ha        1 ZAP      0.089000
     30 H8          0.2690    0.6450   -2.3540 h1        1 ZAP      0.131000
     31 H101        4.0190   -0.8300    0.2310 h1        1 ZAP      0.140000
     32 H102        3.2760   -2.2150   -0.0640 h1        1 ZAP      0.140000
     33 H12         2.7980   -3.7840    1.7960 ha        1 ZAP      0.162000
     34 H13         3.5820   -4.6480    3.8510 ha        1 ZAP      0.108000
     35 H14         5.0730   -3.3800    5.1730 ha        1 ZAP      0.105000
     36 H15         5.8180   -1.2690    4.4190 ha        1 ZAP      0.105000
     37 H16         5.0310   -0.4030    2.3670 ha        1 ZAP      0.145000
     38 HN1        -5.9880    2.9190   -2.7750 DU        1 ZAP      0.133000
     39 HN21       -6.1640   -0.3920   -0.6450 hn        1 ZAP      0.164000
     40 HN22       -7.4840    0.4610   -0.8440 hn        1 ZAP      0.164000
     41 HN3        -0.0060    0.6350    0.4030 hn        1 ZAP      0.262000
@<TRIPOS>BOND
     1    1   17 1   
     2    1   18 1   
     3    2    3 1   
     4    2    7 1   
     5    3    4 1   
     6    3   26 1   
     7    4   27 1   
     8    5    6 1   
     9    5    8 1   
    10    6   28 1   
    11    7   29 1   
    12    8   19 1   
    13    8   25 1   
    14    8   30 1   
    15    9   20 1   
    16    9   21 1   
    17   10   11 1   
    18   10   21 1   
    19   10   31 1   
    20   10   32 1   
    21   11   12 1   
    22   11   16 1   
    23   12   13 1   
    24   12   33 1   
    25   13   34 1   
    26   14   15 1   
    27   14   35 1   
    28   15   36 1   
    29   16   37 1   
    30   18   39 1   
    31   18   40 1   
    32   19   41 1   
    33   22   25 1   
    34   23   25 1   
    35   24   25 1   
@<TRIPOS>SUBSTRUCTURE
     1 ZAP         1 TEMP              0 ****  ****    0 ROOT
