@<TRIPOS>MOLECULE
ZAP
   43    42     1     0     0
SMALL
bcc


@<TRIPOS>ATOM
      1 C1          0.5410    0.3260   -1.0560 c2        1 ZAP      0.113000
      2 C2          1.9480    0.1500   -0.5660 c2        1 ZAP     -0.232000
      3 C3          2.1170   -0.7580    0.5160 c1        1 ZAP     -0.038000
      4 C4          3.4220   -0.9010    1.1470 c3        1 ZAP     -0.228000
      5 C5          4.5410   -0.0050    0.7170 c2        1 ZAP      0.030000
      6 C6          4.3850    0.6380   -0.6220 c3        1 ZAP     -0.182000
      7 C7          3.0030    0.8140   -1.1040 c2        1 ZAP      0.031000
      8 C8          5.6390    0.1870    1.4830 c2        1 ZAP     -0.727000
      9 C10         6.7410   -3.9870    1.9460 c3        1 ZAP      0.025000
     10 C11         7.8390   -4.2270    2.9140 c2        1 ZAP     -0.241000
     11 C12         7.9000   -5.3020    3.6970 c2        1 ZAP     -0.167000
     12 C13        10.6420   -4.2900    5.1510 c1        1 ZAP      0.184000
     13 C14        11.1290   -3.0850    4.9260 c2        1 ZAP     -0.338000
     14 C15        10.5610   -2.0600    4.1650 c1        1 ZAP     -0.180000
     15 C16        10.0870   -1.1700    3.5180 c1        1 ZAP     -0.155000
     16 N1         -0.5050    0.2000   -0.2990 n2        1 ZAP     -0.273000
     17 N2          0.4340    0.7120   -2.4210 n8        1 ZAP     -0.328000
     18 N3          5.8400   -0.4980    2.7530 ny        1 ZAP     -0.019000
     19 O3          4.9500   -2.5880    3.4540 o         1 ZAP     -0.290000
     20 O4          6.5140   -2.5590    1.7950 os        1 ZAP     -0.218000
     21 P           6.9790    1.2940    1.2080 p5        1 ZAP      2.012000
     22 H3          3.7310   -1.9810    0.9940 hc        1 ZAP      0.150500
     23 H4          3.2220   -0.7900    2.2560 hc        1 ZAP      0.150500
     24 H6          4.9450    0.0070   -1.3790 hc        1 ZAP      0.179500
     25 H7          4.9430    1.6300   -0.6260 hc        1 ZAP      0.179500
     26 H8          6.3320    3.3740    1.5020 ho        1 ZAP      0.256000
     27 H101        5.7830   -4.4950    2.2300 h1        1 ZAP      0.128500
     28 H102        7.0510   -4.2670    0.8990 h1        1 ZAP      0.128500
     29 H12         7.1240   -6.0790    3.7100 ha        1 ZAP      0.133000
     30 H13         8.7490   -5.4750    4.3800 ha        1 ZAP      0.133000
     31 H14        12.1140   -2.8400    5.3930 ha        1 ZAP      0.203000
     32 H15         9.6610   -0.3730    2.9390 ha        1 ZAP      0.284000
     33 H16         8.6320   -3.4550    2.9200 ha        1 ZAP      0.155000
     34 HN1        -0.3040   -0.0110    0.6560 hn        1 ZAP      0.169000
     35 HN21        0.9620    0.1050   -3.0120 hn        1 ZAP      0.181000
     36 HN22        2.8960    1.5090   -1.9580 ha        1 ZAP      0.165000
     37 HN3         6.8560   -0.2660    3.0410 hn        1 ZAP      0.292000
     38 C9          5.7180   -1.9730    2.7160 c2        1 ZAP      0.333000
     39 O1P         7.0170    1.6960   -0.2020 o         1 ZAP     -0.821000
     40 O2P         6.3890    2.5730    2.0120 oh        1 ZAP     -0.830000
     41 O3P         8.0510    0.7050    2.0620 o         1 ZAP     -0.821000
     42 H23        -0.5090    0.8050   -2.7410 hn        1 ZAP      0.181000
     43 H32         5.1760   -0.1580    3.4630 hn        1 ZAP      0.292000
@<TRIPOS>BOND
     1    1    2 1   
     2    1   16 1   
     3    1   17 1   
     4    2    3 1   
     5    2    7 1   
     6    3    4 1   
     7    4    5 1   
     8    4   22 1   
     9    4   23 1   
    10    5    6 1   
    11    5    8 1   
    12    6    7 1   
    13    6   24 1   
    14    6   25 1   
    15    7   36 1   
    16    8   18 1   
    17    8   21 1   
    18    9   10 1   
    19    9   20 1   
    20    9   27 1   
    21    9   28 1   
    22   10   11 1   
    23   10   33 1   
    24   11   29 1   
    25   11   30 1   
    26   12   13 1   
    27   13   14 1   
    28   13   31 1   
    29   14   15 1   
    30   15   32 1   
    31   16   34 1   
    32   17   35 1   
    33   17   42 1   
    34   18   37 1   
    35   18   38 1   
    36   18   43 1   
    37   19   38 1   
    38   20   38 1   
    39   21   39 1   
    40   21   40 1   
    41   21   41 1   
    42   26   40 1   
@<TRIPOS>SUBSTRUCTURE
     1 ZAP         1 TEMP              0 ****  ****    0 ROOT
