@<TRIPOS>MOLECULE
ZAP
   41    41     1     0     0
SMALL
bcc


@<TRIPOS>ATOM
      1 C1          1.7190   -0.3880    5.9820 ce        1 ZAP      0.685800
      2 C2          1.2060   -0.2890    4.6040 ca        1 ZAP     -0.402900
      3 C3          2.0800    0.0050    3.5390 ca        1 ZAP     -0.050500
      4 C4          1.6310    0.1030    2.2440 ca        1 ZAP     -0.243000
      5 C5          0.2510   -0.0910    1.9130 ca        1 ZAP      0.047100
      6 C6         -0.6310   -0.3500    3.0160 ca        1 ZAP     -0.243000
      7 C7         -0.1630   -0.4490    4.3020 ca        1 ZAP     -0.050500
      8 C8         -0.2640   -0.0170    0.6240 ce        1 ZAP     -0.197900
      9 C10         1.9190   -1.0830   -3.5150 c3        1 ZAP      0.195700
     10 C11         1.0560   -0.5400   -4.6100 ca        1 ZAP     -0.108300
     11 C12         1.4400   -0.7720   -5.9380 ca        1 ZAP     -0.113500
     12 C13         0.6510   -0.3150   -6.9900 ca        1 ZAP     -0.142500
     13 C14        -0.5290    0.3810   -6.7240 ca        1 ZAP     -0.160000
     14 C15        -0.9120    0.6160   -5.4050 ca        1 ZAP     -0.142500
     15 C16        -0.1280    0.1580   -4.3450 ca        1 ZAP     -0.113500
     16 N1          2.6340    0.3910    6.5070 n2        1 ZAP     -0.934100
     17 N2          1.1910   -1.4530    6.7630 nh        1 ZAP     -0.898800
     18 N3          0.4980    0.2180   -0.5310 n         1 ZAP     -0.404500
     19 O3          0.7570   -2.0160   -1.3330 o         1 ZAP     -0.636000
     20 O4          1.8420   -0.3130   -2.3260 os        1 ZAP     -0.467900
     21 P          -1.5470    1.9170   -0.5030 p4        1 ZAP      1.537300
     22 H3          3.1520    0.1450    3.7490 ha        1 ZAP      0.079000
     23 H4          2.3390    0.3370    1.4390 ha        1 ZAP      0.116000
     24 H6         -1.7050   -0.4390    2.8010 ha        1 ZAP      0.116000
     25 H7         -0.8840   -0.6280    5.1150 ha        1 ZAP      0.079000
     26 H8         -1.2890   -0.3750    0.4220 h4        1 ZAP      0.013800
     27 H101        3.0040   -1.0180   -3.8110 h1        1 ZAP      0.050700
     28 H102        1.6480   -2.1580   -3.3210 h1        1 ZAP      0.050700
     29 H12         2.3710   -1.3160   -6.1480 ha        1 ZAP      0.170000
     30 H13         0.9590   -0.5020   -8.0280 ha        1 ZAP      0.122000
     31 H14        -1.1500    0.7440   -7.5540 ha        1 ZAP      0.101000
     32 H15        -1.8380    1.1660   -5.1770 ha        1 ZAP      0.122000
     33 H16        -0.4580    0.3610   -3.3000 ha        1 ZAP      0.170000
     34 HN1         2.9820    1.0580    5.8530 hn        1 ZAP      0.376400
     35 HN21        1.1840   -1.2860    7.7460 hn        1 ZAP      0.368800
     36 HN22        0.3050   -1.7640    6.4270 hn        1 ZAP      0.368800
     37 HN3         0.9080    1.1320   -0.6290 hn        1 ZAP      0.354500
     38 C9          0.9760   -0.7880   -1.3200 c         1 ZAP      0.728100
     39 O1P        -2.6400    1.9290    0.4880 o         1 ZAP     -0.831167
     40 O2P        -0.4110    2.8640   -0.4110 o         1 ZAP     -0.831167
     41 O3P        -1.8030    1.2820   -1.8190 o         1 ZAP     -0.879967
@<TRIPOS>BOND
     1    1    2 1   
     2    1   16 2   
     3    1   17 1   
     4    2    3 ar  
     5    2    7 ar  
     6    3    4 ar  
     7    3   22 1   
     8    4    5 ar  
     9    4   23 1   
    10    5    6 ar  
    11    5    8 1   
    12    6    7 ar  
    13    6   24 1   
    14    7   25 1   
    15    8   18 2   
    16    8   26 1   
    17    9   10 1   
    18    9   20 1   
    19    9   27 1   
    20    9   28 1   
    21   10   11 ar  
    22   10   15 ar  
    23   11   12 ar  
    24   11   29 1   
    25   12   13 ar  
    26   12   30 1   
    27   13   14 ar  
    28   13   31 1   
    29   14   15 ar  
    30   14   32 1   
    31   15   33 1   
    32   16   34 1   
    33   17   35 1   
    34   17   36 1   
    35   18   37 1   
    36   18   38 1   
    37   19   38 2   
    38   20   38 1   
    39   21   39 1   
    40   21   40 1   
    41   21   41 2   
@<TRIPOS>SUBSTRUCTURE
     1 ZAP         1 TEMP              0 ****  ****    0 ROOT
