@<TRIPOS>MOLECULE
ZAP
   43    41     1     0     0
SMALL
bcc


@<TRIPOS>ATOM
      1 C1          0.9940   -1.6470   -1.0110 c2        1 ZAP      0.118000
      2 C2          1.7250   -0.5690   -0.2540 c2        1 ZAP     -0.096000
      3 C3          1.3110   -0.1680    0.9180 c1        1 ZAP     -0.131000
      4 C4          0.8910    0.2420    2.0750 c2        1 ZAP     -0.157000
      5 C5          4.6150    1.3270    0.5150 c1        1 ZAP     -0.200000
      6 C6          3.8170    0.7140   -0.1370 c1        1 ZAP     -0.073000
      7 C7          2.9110   -0.0150   -0.9730 c3        1 ZAP     -0.012000
      8 C8          5.5170    2.1160    1.2720 c3        1 ZAP     -0.538000
      9 C10         6.7620   -2.1960    1.4520 c3        1 ZAP      0.024000
     10 C11         7.7260   -2.7840    2.4140 c2        1 ZAP     -0.232000
     11 C12         7.4530   -3.8550    3.1550 c2        1 ZAP     -0.172000
     12 C13         9.9120   -5.2910    5.1680 c1        1 ZAP      0.210000
     13 C14        10.9480   -5.7980    5.8090 c2        1 ZAP     -0.350000
     14 C15        12.2970   -5.7370    5.4540 c1        1 ZAP     -0.116000
     15 C16        13.4570   -5.6910    5.1610 c1        1 ZAP     -0.178000
     16 N1          0.4850   -1.4850   -2.1960 n2        1 ZAP     -0.298000
     17 N2          0.9720   -2.8930   -0.3530 n3        1 ZAP     -0.329000
     18 N3          6.3380    1.3850    2.2750 n4        1 ZAP     -0.050000
     19 O3          5.3150   -0.6050    3.1050 o         1 ZAP     -0.294000
     20 O4          6.8790   -0.7490    1.4500 os        1 ZAP     -0.217000
     21 P           6.6560    2.9960    0.1210 p5        1 ZAP      1.950000
     22 H3          1.2430   -0.2020    3.0190 ha        1 ZAP      0.142500
     23 H4          0.1620    1.0600    2.1770 ha        1 ZAP      0.142500
     24 H6          6.2170    2.5120   -1.9590 ho        1 ZAP      0.259000
     25 H7          2.5480    0.6690   -1.7970 hc        1 ZAP      0.126000
     26 H8          4.9440    2.9270    1.8100 hx        1 ZAP      0.171000
     27 H101        5.7010   -2.4940    1.6550 h1        1 ZAP      0.128500
     28 H102        7.0490   -2.4380    0.3890 h1        1 ZAP      0.128500
     29 H12         6.4770   -4.3600    3.1340 ha        1 ZAP      0.133000
     30 H13         8.1980   -4.3050    3.8330 ha        1 ZAP      0.133000
     31 H14        10.7300   -6.3470    6.7580 ha        1 ZAP      0.206000
     32 H15        14.4840   -5.6490    4.8990 ha        1 ZAP      0.231000
     33 H16         8.7090   -2.2850    2.4500 ha        1 ZAP      0.142000
     34 HN1         0.6500   -0.5870   -2.5960 hn        1 ZAP      0.152000
     35 HN21        0.8890   -2.8120    0.6360 hn        1 ZAP      0.194500
     36 HN22        3.4690   -0.8650   -1.4650 hc        1 ZAP      0.126000
     37 HN3         7.3660    1.5880    2.0150 hn        1 ZAP      0.284500
     38 C9          6.1020   -0.0720    2.3260 c2        1 ZAP      0.346000
     39 O1P         6.6600    2.1030   -1.2200 oh        1 ZAP     -0.803000
     40 O2P         5.9630    4.2410   -0.2140 o         1 ZAP     -0.791000
     41 O3P         7.9440    2.8130    0.8450 o         1 ZAP     -0.791000
     42 H23         0.3590   -3.5750   -0.7480 hn        1 ZAP      0.194500
     43 H32         6.1440    1.7460    3.2140 hn        1 ZAP      0.284500
@<TRIPOS>BOND
     1    1    2 1   
     2    1   16 1   
     3    1   17 1   
     4    2    3 1   
     5    2    7 1   
     6    3    4 1   
     7    4   22 1   
     8    4   23 1   
     9    5    6 1   
    10    5    8 1   
    11    6    7 1   
    12    7   25 1   
    13    7   36 1   
    14    8   18 1   
    15    8   21 1   
    16    8   26 1   
    17    9   10 1   
    18    9   20 1   
    19    9   27 1   
    20    9   28 1   
    21   10   11 1   
    22   10   33 1   
    23   11   29 1   
    24   11   30 1   
    25   12   13 1   
    26   13   14 1   
    27   13   31 1   
    28   14   15 1   
    29   15   32 1   
    30   16   34 1   
    31   17   35 1   
    32   17   42 1   
    33   18   37 1   
    34   18   38 1   
    35   18   43 1   
    36   19   38 1   
    37   20   38 1   
    38   21   39 1   
    39   21   40 1   
    40   21   41 1   
    41   24   39 1   
@<TRIPOS>SUBSTRUCTURE
     1 ZAP         1 TEMP              0 ****  ****    0 ROOT
