@<TRIPOS>MOLECULE
ZAR
   29    23     1     0     0
SMALL
bcc


@<TRIPOS>ATOM
      1 O1         -5.9130    0.2710   -0.3110 o         1 ZAR     -0.334000
      2 C2         -4.7440    0.3250   -0.3290 c1        1 ZAR      0.299000
      3 N3         -4.0410   -0.3800   -1.2690 n2        1 ZAR     -0.261000
      4 N4         -2.6770   -0.3830   -1.2400 n1        1 ZAR      0.012000
      5 C5         -2.0150    0.3160   -0.2770 c1        1 ZAR     -0.055500
      6 C6         -2.7230    1.0250    0.6690 c1        1 ZAR     -0.084000
      7 C7         -4.0780    1.0280    0.6400 c1        1 ZAR     -0.196000
      8 C8         -0.6460    0.3200   -0.2520 c1        1 ZAR     -0.055500
      9 C9          0.0510   -0.6960    0.4340 c1        1 ZAR     -0.119000
     10 C10         1.4180   -0.7210    0.4090 c1        1 ZAR      0.061000
     11 C11         2.1130    0.2450   -0.2860 c1        1 ZAR      0.027000
     12 C12         1.4230    1.2540   -0.9670 c1        1 ZAR     -0.158000
     13 C13         0.0550    1.2860   -0.9460 c1        1 ZAR     -0.084000
     14 C14         4.0950   -0.1570   -1.4600 c3        1 ZAR      0.335000
     15 O15         3.5090    0.2540   -0.2610 os        1 ZAR     -0.255000
     16 F16         5.4290   -0.3880   -1.2610 f         1 ZAR     -0.159500
     17 F17         3.5130   -1.2780   -1.8800 f         1 ZAR     -0.159500
     18 O18         2.1090   -1.7460    1.0540 os        1 ZAR     -0.217000
     19 C19         2.3130   -1.5170    2.4760 c3        1 ZAR     -0.076000
     20 HN3        -4.4940   -0.8570   -1.9260 hn        1 ZAR      0.275000
     21 H6         -2.2350    1.5410    1.3810 ha        1 ZAR      0.155000
     22 H7         -4.5690    1.5210    1.2960 ha        1 ZAR      0.172000
     23 H9         -0.4290   -1.3650    0.9140 ha        1 ZAR      0.156000
     24 H12         1.9210    1.9380   -1.4600 ha        1 ZAR      0.153000
     25 H13        -0.4220    1.9900   -1.4200 ha        1 ZAR      0.155000
     26 H14         3.9810    0.5420   -2.1340 h3        1 ZAR      0.143000
     27 H191        2.7970   -2.2750    2.8620 h1        1 ZAR      0.090000
     28 H192        2.8490   -0.6730    2.6080 h1        1 ZAR      0.090000
     29 H193        1.4110   -1.4220    2.9360 h1        1 ZAR      0.090000
@<TRIPOS>BOND
     1    1    2 1   
     2    2    7 1   
     3    3    4 1   
     4    3   20 1   
     5    5    6 1   
     6    6   21 1   
     7    7   22 1   
     8    8   13 1   
     9    9   10 1   
    10    9   23 1   
    11   10   18 1   
    12   11   12 1   
    13   11   15 1   
    14   12   24 1   
    15   13   25 1   
    16   14   15 1   
    17   14   16 1   
    18   14   17 1   
    19   14   26 1   
    20   18   19 1   
    21   19   27 1   
    22   19   28 1   
    23   19   29 1   
@<TRIPOS>SUBSTRUCTURE
     1 ZAR         1 TEMP              0 ****  ****    0 ROOT
