@<TRIPOS>MOLECULE
ZAR
   29    30     1     0     0
SMALL
bcc


@<TRIPOS>ATOM
      1 O1         -0.4440   -0.2270    6.1730 o         1 ZAR     -0.611500
      2 C2         -0.4690   -0.1840    4.9320 c         1 ZAR      0.660700
      3 N3          0.6060    0.4480    4.2480 n         1 ZAR     -0.282900
      4 N4          0.7110    0.5740    2.9460 nc        1 ZAR     -0.409300
      5 C5         -0.2520    0.0730    2.1650 cd        1 ZAR      0.365200
      6 C6         -1.4130   -0.6080    2.7200 cd        1 ZAR     -0.159600
      7 C7         -1.5180   -0.7350    4.0650 cc        1 ZAR     -0.216200
      8 C8         -0.1540    0.2040    0.7030 ca        1 ZAR     -0.071900
      9 C9          1.0620   -0.0310    0.0520 ca        1 ZAR     -0.173000
     10 C10         1.1350    0.0770   -1.3420 ca        1 ZAR      0.134100
     11 C11        -0.0190    0.4350   -2.0770 ca        1 ZAR      0.067100
     12 C12        -1.2280    0.6720   -1.4160 ca        1 ZAR     -0.101000
     13 C13        -1.2940    0.5570   -0.0300 ca        1 ZAR     -0.146000
     14 C14        -0.4310   -0.2620   -4.3450 c3        1 ZAR      0.586700
     15 O15         0.1060    0.6770   -3.4380 os        1 ZAR     -0.364900
     16 F16        -0.0150   -1.5190   -4.0240 f         1 ZAR     -0.246800
     17 F17        -1.7890   -0.2840   -4.1980 f         1 ZAR     -0.246800
     18 O18         2.2730   -0.1410   -2.0850 os        1 ZAR     -0.306900
     19 C19         3.4540   -0.4500   -1.3510 c3        1 ZAR      0.109700
     20 HN3         1.3550    0.8580    4.7760 hn        1 ZAR      0.360500
     21 H6         -2.1680   -1.0060    2.0260 ha        1 ZAR      0.158000
     22 H7         -2.3550   -1.2360    4.5710 ha        1 ZAR      0.171000
     23 H9          1.9530   -0.3020    0.6370 ha        1 ZAR      0.154000
     24 H12        -2.1180    0.9460   -2.0040 ha        1 ZAR      0.158000
     25 H13        -2.2440    0.7550    0.4870 ha        1 ZAR      0.141000
     26 H14        -0.0950    0.0820   -5.3680 h3        1 ZAR      0.125700
     27 H191        4.2310   -0.5560   -2.1510 h1        1 ZAR      0.048700
     28 H192        3.7160    0.3820   -0.6540 h1        1 ZAR      0.048700
     29 H193        3.3300   -1.4090   -0.7920 h1        1 ZAR      0.048700
@<TRIPOS>BOND
     1    1    2 2   
     2    2    3 1   
     3    2    7 1   
     4    3    4 1   
     5    3   20 1   
     6    4    5 2   
     7    5    6 1   
     8    5    8 1   
     9    6    7 2   
    10    6   21 1   
    11    7   22 1   
    12    8    9 ar  
    13    8   13 ar  
    14    9   10 ar  
    15    9   23 1   
    16   10   11 ar  
    17   10   18 1   
    18   11   12 ar  
    19   11   15 1   
    20   12   13 ar  
    21   12   24 1   
    22   13   25 1   
    23   14   15 1   
    24   14   16 1   
    25   14   17 1   
    26   14   26 1   
    27   18   19 1   
    28   19   27 1   
    29   19   28 1   
    30   19   29 1   
@<TRIPOS>SUBSTRUCTURE
     1 ZAR         1 TEMP              0 ****  ****    0 ROOT
