@<TRIPOS>MOLECULE
ZAR
   29    30     1     0     0
SMALL
bcc


@<TRIPOS>ATOM
      1 O1         -0.2550   -0.2250   -0.1140 o         1 ZAR     -0.611500
      2 C2          0.9820   -0.1120   -0.1360 c         1 ZAR      0.660700
      3 N3          1.6970   -0.1920    1.0910 ns        1 ZAR     -0.282900
      4 N4          2.9980   -0.0850    1.2230 nc        1 ZAR     -0.409300
      5 C5          3.7470    0.1120    0.1330 cd        1 ZAR      0.365200
      6 C6          3.1580    0.2110   -1.1950 cd        1 ZAR     -0.159600
      7 C7          1.8140    0.1000   -1.3260 cc        1 ZAR     -0.216200
      8 C8          5.2070    0.2370    0.2590 ca        1 ZAR     -0.071900
      9 C9          5.9220   -0.6300    1.0920 ca        1 ZAR     -0.173000
     10 C10         7.3140   -0.5130    1.1860 ca        1 ZAR      0.134100
     11 C11         7.9830    0.4890    0.4450 ca        1 ZAR      0.067100
     12 C12         7.2590    1.3530   -0.3810 ca        1 ZAR     -0.101000
     13 C13         5.8750    1.2260   -0.4740 ca        1 ZAR     -0.146000
     14 C14        10.2490    0.2820   -0.3440 c3        1 ZAR      0.586700
     15 O15         9.3400    0.6820    0.6600 os        1 ZAR     -0.364900
     16 F16         9.9850   -0.9960   -0.7370 f         1 ZAR     -0.246800
     17 F17        10.0390    1.0500   -1.4540 f         1 ZAR     -0.246800
     18 O18         8.1160   -1.3160    1.9660 os        1 ZAR     -0.306900
     19 C19         7.4480   -2.2940    2.7570 c3        1 ZAR      0.109700
     20 HN3         1.1930   -0.3250    1.9500 hn        1 ZAR      0.360500
     21 H6          3.8270    0.3640   -2.0540 ha        1 ZAR      0.158000
     22 H7          1.2840    0.1570   -2.2870 ha        1 ZAR      0.171000
     23 H9          5.3880   -1.4000    1.6690 ha        1 ZAR      0.154000
     24 H12         7.7950    2.1240   -0.9550 ha        1 ZAR      0.158000
     25 H13         5.3080    1.9150   -1.1170 ha        1 ZAR      0.141000
     26 H14        11.2750    0.4170    0.1080 h3        1 ZAR      0.125700
     27 H191        6.7390   -1.8090    3.4710 h1        1 ZAR      0.048700
     28 H192        8.2860   -2.7930    3.3080 h1        1 ZAR      0.048700
     29 H193        6.9120   -3.0280    2.1070 h1        1 ZAR      0.048700
@<TRIPOS>BOND
     1    1    2 2   
     2    2    3 1   
     3    2    7 1   
     4    3    4 1   
     5    3   20 1   
     6    4    5 2   
     7    5    6 1   
     8    5    8 1   
     9    6    7 2   
    10    6   21 1   
    11    7   22 1   
    12    8    9 ar  
    13    8   13 ar  
    14    9   10 ar  
    15    9   23 1   
    16   10   11 ar  
    17   10   18 1   
    18   11   12 ar  
    19   11   15 1   
    20   12   13 ar  
    21   12   24 1   
    22   13   25 1   
    23   14   15 1   
    24   14   16 1   
    25   14   17 1   
    26   14   26 1   
    27   18   19 1   
    28   19   27 1   
    29   19   28 1   
    30   19   29 1   
@<TRIPOS>SUBSTRUCTURE
     1 ZAR         1 TEMP              0 ****  ****    0 ROOT
