@<TRIPOS>MOLECULE
ZAS
   34    36     1     0     0
SMALL
bcc


@<TRIPOS>ATOM
      1 N53         4.4540    0.0610   -2.7520 n2        1 ZAS     -0.183400
      2 N52         3.9120   -0.1740   -1.7120 n1        1 ZAS      0.228000
      3 N51         3.1240   -0.3610   -0.8260 n2        1 ZAS     -0.032200
      4 C5'         3.1160    0.2000    0.5170 c3        1 ZAS      0.084800
      5 C4'         4.4550    0.2710    1.2660 c3        1 ZAS      0.088100
      6 O4'         5.5030    0.6990    0.4020 os        1 ZAS     -0.441600
      7 C3'         4.3530    1.2430    2.4630 c3        1 ZAS      0.102100
      8 O3'         4.5770    0.5800    3.6780 oh        1 ZAS     -0.566800
      9 C2'         5.4040    2.3390    2.1810 c3        1 ZAS      0.072100
     10 O2'         6.4340    2.2870    3.1460 oh        1 ZAS     -0.588800
     11 C1'         6.0820    1.9500    0.8290 c3        1 ZAS      0.267800
     12 N9          5.9880    2.9380   -0.2070 na        1 ZAS     -0.310000
     13 C8          6.9860    3.9340   -0.4430 cc        1 ZAS      0.418700
     14 N7          6.6220    4.8440   -1.3480 nd        1 ZAS     -0.507100
     15 C5          5.3270    4.4750   -1.7480 ca        1 ZAS     -0.236200
     16 C4          4.9050    3.2750   -1.0390 ca        1 ZAS      0.469800
     17 N3          3.7020    2.6630   -1.2440 nb        1 ZAS     -0.858000
     18 C2          2.9260    3.3260   -2.1470 ca        1 ZAS      0.704900
     19 N1          3.1770    4.4430   -2.8590 nb        1 ZAS     -0.774000
     20 C6          4.4060    5.0590   -2.6840 ca        1 ZAS      0.784200
     21 N6          4.7360    6.1780   -3.3820 nh        1 ZAS     -0.926500
     22 H53         5.2420   -0.5330   -3.0310 hn        1 ZAS      0.513400
     23 H5'         2.6290    1.2220    0.4550 h1        1 ZAS      0.150200
     24 H5''        2.4220   -0.5050    1.0730 h1        1 ZAS      0.150200
     25 H4'         4.7480   -0.7610    1.6150 h1        1 ZAS      0.107700
     26 H3'         3.3200    1.6790    2.5640 h1        1 ZAS      0.108700
     27 HO3'        5.5210    0.3620    3.7430 ho        1 ZAS      0.432000
     28 H2'         4.9290    3.3550    2.1510 h1        1 ZAS      0.094700
     29 HO8'        6.0950    2.6980    3.9540 ho        1 ZAS      0.442000
     30 H1'         7.1830    1.7270    0.9980 h2        1 ZAS      0.127700
     31 H8          7.9470    3.9080    0.0890 h5        1 ZAS      0.092800
     32 H2          1.9220    2.8830   -2.3310 h5        1 ZAS      0.052100
     33 H61         5.6140    6.6090   -3.2210 hn        1 ZAS      0.465300
     34 H62         4.0950    6.5910   -4.0180 hn        1 ZAS      0.465300
@<TRIPOS>BOND
     1    1    2 2   
     2    1   22 1   
     3    2    3 2   
     4    3    4 1   
     5    4    5 1   
     6    4   23 1   
     7    4   24 1   
     8    5    6 1   
     9    5    7 1   
    10    5   25 1   
    11    6   11 1   
    12    7    8 1   
    13    7    9 1   
    14    7   26 1   
    15    8   27 1   
    16    9   10 1   
    17    9   11 1   
    18    9   28 1   
    19   10   29 1   
    20   11   12 1   
    21   11   30 1   
    22   12   13 1   
    23   12   16 1   
    24   13   14 2   
    25   13   31 1   
    26   14   15 1   
    27   15   16 ar  
    28   15   20 ar  
    29   16   17 ar  
    30   17   18 ar  
    31   18   19 ar  
    32   18   32 1   
    33   19   20 ar  
    34   20   21 1   
    35   21   33 1   
    36   21   34 1   
@<TRIPOS>SUBSTRUCTURE
     1 ZAS         1 TEMP              0 ****  ****    0 ROOT
