@<TRIPOS>MOLECULE
ZAS
   34    36     1     0     0
SMALL
bcc


@<TRIPOS>ATOM
      1 N53         0.0000    0.0000    0.0000 n2        1 ZAS     -0.322400
      2 N52         1.2610    0.0000    0.0000 n1        1 ZAS      0.624000
      3 N51         2.5140    0.0000    0.0220 n2        1 ZAS     -0.150200
      4 C5'         3.0990    0.0000    1.3210 c3        1 ZAS      0.101800
      5 C4'         4.6030   -0.0000    1.1960 c3        1 ZAS      0.155100
      6 O4'         5.0280   -0.0000   -0.3460 os        1 ZAS     -0.370600
      7 C3'         4.8680    1.2220    1.6370 c3        1 ZAS      0.057100
      8 O3'         6.1600    1.2470    2.2770 oh        1 ZAS     -0.538800
      9 C2'         5.4420    2.0910    0.5540 c3        1 ZAS      0.201100
     10 O2'         6.5950    2.8860    0.7720 oh        1 ZAS     -0.508800
     11 C1'         5.5550    1.4160   -0.6290 c3        1 ZAS      0.105800
     12 N9          4.9470    1.9490   -1.8280 na        1 ZAS      0.245000
     13 C8          3.9100    2.6750   -2.2540 cc        1 ZAS      0.194700
     14 N7          3.9910    2.7730   -3.5830 nd        1 ZAS     -0.464100
     15 C5          5.0820    2.1050   -3.9830 ca        1 ZAS     -0.173200
     16 C4          5.6730    1.5960   -2.8980 ca        1 ZAS      0.250800
     17 N3          6.8000    0.8720   -3.0250 nb        1 ZAS     -0.702000
     18 C2          7.3350    0.6610   -4.2490 ca        1 ZAS      0.723900
     19 N1          6.7380    1.1760   -5.3490 nb        1 ZAS     -0.765000
     20 C6          5.6290    1.8880   -5.2290 ca        1 ZAS      0.594200
     21 N6          5.3880    2.1560   -6.6340 nv        1 ZAS     -0.499500
     22 H53        -0.5010    0.0000    0.8670 hn        1 ZAS      0.479400
     23 H5'         3.1200    1.0120    1.7080 h1        1 ZAS      0.065700
     24 H5''        2.5120   -0.6260    1.9820 h1        1 ZAS      0.065700
     25 H4'         5.1870   -0.7290    1.7440 h1        1 ZAS      0.109700
     26 H3'         4.1060    1.6070    2.3030 h1        1 ZAS      0.044700
     27 HO3'        6.0510    1.4220    3.1980 ho        1 ZAS      0.390000
     28 H2'         4.5510    2.7080    0.5480 h1        1 ZAS     -0.038300
     29 HO8'        6.3370    3.7820    0.9090 ho        1 ZAS      0.399000
     30 H1'         6.6330    1.3980   -0.7270 h2        1 ZAS      0.133700
     31 H8          3.1000    3.0480   -1.6390 h5        1 ZAS      0.014800
     32 H2          8.2430    0.0780   -4.3490 h5        1 ZAS      0.009100
     33 H61         6.0260    1.8140   -7.3260 hn        1 ZAS      0.282300
     34 H62         4.5960    2.7010   -6.9110 hn        1 ZAS      0.282300
@<TRIPOS>BOND
     1    1    2 2   
     2    1   22 1   
     3    2    3 2   
     4    3    4 1   
     5    4    5 1   
     6    4   23 1   
     7    4   24 1   
     8    5    6 1   
     9    5    7 1   
    10    5   25 1   
    11    6   11 1   
    12    7    8 1   
    13    7    9 1   
    14    7   26 1   
    15    8   27 1   
    16    9   10 1   
    17    9   11 1   
    18    9   28 1   
    19   10   29 1   
    20   11   12 1   
    21   11   30 1   
    22   12   13 1   
    23   12   16 1   
    24   13   14 2   
    25   13   31 1   
    26   14   15 1   
    27   15   16 ar  
    28   15   20 ar  
    29   16   17 ar  
    30   17   18 ar  
    31   18   19 ar  
    32   18   32 1   
    33   19   20 ar  
    34   20   21 1   
    35   21   33 1   
    36   21   34 1   
@<TRIPOS>SUBSTRUCTURE
     1 ZAS         1 TEMP              0 ****  ****    0 ROOT
