@<TRIPOS>MOLECULE
ZAS
   34    29     1     0     0
SMALL
bcc


@<TRIPOS>ATOM
      1 N53        -4.7650   -0.6780   -3.3460 n1        1 ZAS      0.074000
      2 N52        -3.8120   -1.5270   -3.1960 n2        1 ZAS      0.237000
      3 N51        -3.0360   -1.4440   -2.1910 n1        1 ZAS      0.074000
      4 C5'        -3.2180   -0.4040   -1.2320 c2        1 ZAS     -0.121000
      5 C4'        -2.2350   -0.6360    0.0050 c3        1 ZAS      0.011000
      6 O4'        -1.0370   -0.6100   -0.3770 os        1 ZAS     -0.299000
      7 C3'        -2.3680    0.5540    1.0370 c3        1 ZAS     -0.018000
      8 O3'        -2.9690    0.1290    2.1630 oh        1 ZAS     -0.316000
      9 C2'        -0.9680    0.9900    1.3290 c3        1 ZAS     -0.033000
     10 O2'        -0.7520    1.1010    2.8230 oh        1 ZAS     -0.291000
     11 C1'        -0.2030    0.0390    0.8180 c3        1 ZAS      0.145000
     12 N9          1.0180    0.5980    0.3230 n3        1 ZAS     -0.225000
     13 C8          1.2330    1.5400   -0.6200 c1        1 ZAS     -0.036000
     14 N7          2.5390    1.4380   -1.0310 n2        1 ZAS     -0.080000
     15 C5          3.1280    0.4200   -0.3290 c1        1 ZAS     -0.245000
     16 C4          2.2030   -0.1030    0.5060 c1        1 ZAS      0.079000
     17 N3          2.5130   -1.2050    1.2760 n1        1 ZAS     -0.334000
     18 C2          3.7700   -1.7760    1.1950 c1        1 ZAS      0.042000
     19 N1          4.7130   -1.2460    0.3460 n1        1 ZAS     -0.248000
     20 C6          4.4110   -0.1630   -0.4120 c1        1 ZAS      0.263000
     21 N6          5.6010    0.3410   -1.0800 n2        1 ZAS     -0.324000
     22 H53        -4.8920    0.0030   -2.7150 DU        1 ZAS      0.245500
     23 H5'        -4.1500   -0.4060   -0.9160 ha        1 ZAS      0.189500
     24 H5''       -3.0090    0.4890   -1.6630 ha        1 ZAS      0.189500
     25 H4'        -2.4370   -1.5080    0.4530 h1        1 ZAS      0.160000
     26 H3'        -2.8760    1.2920    0.6410 h1        1 ZAS      0.118000
     27 HO3'       -3.5620    0.6970    2.4020 ho        1 ZAS      0.243000
     28 H2'        -0.7770    1.8710    0.8810 h1        1 ZAS      0.166000
     29 HO8'       -0.6100    0.3040    3.1590 ho        1 ZAS      0.225000
     30 H1'        -0.0090   -0.6460    1.5050 h2        1 ZAS      0.152000
     31 H8          0.5760    2.1620   -0.9610 DU        1 ZAS      0.245500
     32 H2          3.9930   -2.5760    1.7550 ha        1 ZAS      0.188000
     33 H61         6.1650   -0.2500   -1.5460 hn        1 ZAS      0.260500
     34 H62         5.8240    1.2070   -1.0050 hn        1 ZAS      0.260500
@<TRIPOS>BOND
     1    1    2 1   
     2    2    3 1   
     3    4    5 1   
     4    4   23 1   
     5    4   24 1   
     6    5    6 1   
     7    5    7 1   
     8    5   25 1   
     9    6   11 1   
    10    7    8 1   
    11    7    9 1   
    12    7   26 1   
    13    8   27 1   
    14    9   10 1   
    15    9   11 1   
    16    9   28 1   
    17   10   29 1   
    18   11   12 1   
    19   11   30 1   
    20   12   13 1   
    21   12   16 1   
    22   13   14 1   
    23   14   15 1   
    24   15   20 1   
    25   16   17 1   
    26   18   19 1   
    27   18   32 1   
    28   21   33 1   
    29   21   34 1   
@<TRIPOS>SUBSTRUCTURE
     1 ZAS         1 TEMP              0 ****  ****    0 ROOT
