@<TRIPOS>MOLECULE
ZAS
   34    36     1     0     0
SMALL
bcc


@<TRIPOS>ATOM
      1 N53        21.2710    7.2800   11.2100 n2        1 ZAS     -0.183400
      2 N52        20.2140    6.8670   11.5890 n1        1 ZAS      0.228000
      3 N51        19.0780    6.4930   11.6890 n2        1 ZAS     -0.032200
      4 C5'        18.0710    6.8900   12.6620 c3        1 ZAS      0.084800
      5 C4'        18.5120    7.0200   14.1270 c3        1 ZAS      0.088100
      6 O4'        19.7820    7.6580   14.2260 os        1 ZAS     -0.441600
      7 C3'        17.4720    7.8300   14.9340 c3        1 ZAS      0.102100
      8 O3'        16.9150    7.0580   15.9640 oh        1 ZAS     -0.566800
      9 C2'        18.2410    9.0600   15.4620 c3        1 ZAS      0.072100
     10 O2'        18.3350    9.0090   16.8710 oh        1 ZAS     -0.588800
     11 C1'        19.7080    8.9070   14.9450 c3        1 ZAS      0.267800
     12 N9         20.1850    9.9920   14.1370 na        1 ZAS     -0.310000
     13 C8         20.9020   11.1130   14.6620 cc        1 ZAS      0.418700
     14 N7         21.1100   12.0760   13.7630 nd        1 ZAS     -0.507100
     15 C5         20.5120   11.6160   12.5780 ca        1 ZAS     -0.236200
     16 C4         19.9190   10.3030   12.7920 ca        1 ZAS      0.469800
     17 N3         19.2940    9.5900   11.8090 nb        1 ZAS     -0.858000
     18 C2         19.2440   10.2650   10.6260 ca        1 ZAS      0.704900
     19 N1         19.7280   11.4780   10.2910 nb        1 ZAS     -0.774000
     20 C6         20.3920   12.2000   11.2700 ca        1 ZAS      0.784200
     21 N6         20.9230   13.4220   11.0010 nh        1 ZAS     -0.926500
     22 H53        22.1200    6.8130   11.5450 hn        1 ZAS      0.513400
     23 H5'        17.6020    7.8530   12.2910 h1        1 ZAS      0.150200
     24 H5''       17.3090    6.0530   12.5810 h1        1 ZAS      0.150200
     25 H4'        18.6510    5.9930   14.5730 h1        1 ZAS      0.107700
     26 H3'        16.5940    8.1340   14.3000 h1        1 ZAS      0.108700
     27 HO3'       17.5820    6.9390   16.6590 ho        1 ZAS      0.432000
     28 H2'        17.7590   10.0130   15.1230 h1        1 ZAS      0.094700
     29 HO8'       17.4770    9.2840   17.2280 ho        1 ZAS      0.442000
     30 H1'        20.4180    8.7890   15.8230 h2        1 ZAS      0.127700
     31 H8         21.2340   11.1300   15.7090 h5        1 ZAS      0.092800
     32 H2         18.7190    9.7380    9.7980 h5        1 ZAS      0.052100
     33 H61        20.8300   13.8330   10.1020 hn        1 ZAS      0.465300
     34 H62        21.3760   13.9260   11.7260 hn        1 ZAS      0.465300
@<TRIPOS>BOND
     1    1    2 2   
     2    1   22 1   
     3    2    3 2   
     4    3    4 1   
     5    4    5 1   
     6    4   23 1   
     7    4   24 1   
     8    5    6 1   
     9    5    7 1   
    10    5   25 1   
    11    6   11 1   
    12    7    8 1   
    13    7    9 1   
    14    7   26 1   
    15    8   27 1   
    16    9   10 1   
    17    9   11 1   
    18    9   28 1   
    19   10   29 1   
    20   11   12 1   
    21   11   30 1   
    22   12   13 1   
    23   12   16 1   
    24   13   14 2   
    25   13   31 1   
    26   14   15 1   
    27   15   16 ar  
    28   15   20 ar  
    29   16   17 ar  
    30   17   18 ar  
    31   18   19 ar  
    32   18   32 1   
    33   19   20 ar  
    34   20   21 1   
    35   21   33 1   
    36   21   34 1   
@<TRIPOS>SUBSTRUCTURE
     1 ZAS         1 TEMP              0 ****  ****    0 ROOT
