@<TRIPOS>MOLECULE
ZAT
   60    61     1     0     0
SMALL
bcc


@<TRIPOS>ATOM
      1 NAA         0.8320   -1.2660   -0.4330 n2        1 ZAT     -0.616600
      2 CAK         0.7120   -0.0230   -0.6590 c2        1 ZAT      0.627100
      3 NAB        -0.3420    0.9240   -0.1500 n4        1 ZAT     -0.860600
      4 NAC         1.7600    0.6300   -1.5750 n4        1 ZAT     -0.429600
      5 NAD         3.0950    0.4750   -1.1460 n2        1 ZAT     -0.521400
      6 CAL         3.9220   -0.3970   -1.6890 ce        1 ZAT      0.589900
      7 CAM         3.6100   -1.3980   -2.7500 c3        1 ZAT     -0.246900
      8 CAN         5.3500   -0.3770   -1.2430 ca        1 ZAT     -0.105400
      9 CAS         6.1300    0.7810   -1.3500 ca        1 ZAT     -0.049000
     10 CAR         7.4830    0.7670   -0.9910 ca        1 ZAT     -0.076000
     11 CAO         5.9350   -1.5620   -0.7640 ca        1 ZAT     -0.049000
     12 CAP         7.2790   -1.5930   -0.3900 ca        1 ZAT     -0.076000
     13 CAQ         8.0540   -0.4200   -0.4930 ca        1 ZAT     -0.052400
     14 NAE         9.4360   -0.4110    0.0420 n4        1 ZAT     -0.508200
     15 CAT        10.5240   -0.4430   -1.0070 c         1 ZAT      0.479100
     16 OBD        10.5040    0.3460   -1.9340 o         1 ZAT     -0.270100
     17 NAF        11.6270   -1.4670   -0.8910 n4        1 ZAT     -0.508200
     18 CAU        12.9930   -0.9630   -1.1780 ca        1 ZAT     -0.052400
     19 CAZ        13.3400   -0.5530   -2.4800 ca        1 ZAT     -0.076000
     20 CAY        14.6750   -0.2720   -2.7750 ca        1 ZAT     -0.049000
     21 CAV        13.9720   -1.0170   -0.1660 ca        1 ZAT     -0.076000
     22 CAW        15.3050   -0.7310   -0.4830 ca        1 ZAT     -0.049000
     23 CAX        15.6730   -0.3870   -1.7910 ca        1 ZAT     -0.105400
     24 CBA        17.0980   -0.1820   -2.1940 ce        1 ZAT      0.589900
     25 CBB        17.4550   -0.7460   -3.5290 c3        1 ZAT     -0.246900
     26 NAG        17.8840    0.4920   -1.3750 n2        1 ZAT     -0.521400
     27 NAH        19.2010    0.8680   -1.7050 n4        1 ZAT     -0.429600
     28 CBC        20.3190   -0.0510   -1.1850 c2        1 ZAT      0.627100
     29 NAJ        20.1590   -1.3040   -1.3080 n2        1 ZAT     -0.616600
     30 NAI        21.4940    0.6850   -0.5940 n4        1 ZAT     -0.860600
     31 HAA         0.2100   -1.8310    0.1240 hn        1 ZAT      0.557900
     32 HAB1       -0.8800    1.3490   -0.9270 hn        1 ZAT      0.514133
     33 HAB2       -1.0210    0.4070    0.4470 hn        1 ZAT      0.514133
     34 HAC         1.6330    1.6640   -1.5790 hn        1 ZAT      0.497050
     35 HAM1        3.4530   -0.8850   -3.7400 hc        1 ZAT      0.123867
     36 HAM2        2.6950   -2.0000   -2.5060 hc        1 ZAT      0.123867
     37 HAM3        4.4550   -2.1230   -2.8910 hc        1 ZAT      0.123867
     38 HAS         5.6970    1.7300   -1.7220 ha        1 ZAT      0.204750
     39 HAO         5.3370   -2.4900   -0.6660 ha        1 ZAT      0.204750
     40 HAR         8.0670    1.7000   -1.1000 ha        1 ZAT      0.191750
     41 HAP         7.6890   -2.5430   -0.0010 ha        1 ZAT      0.191750
     42 HAE         9.5560    0.4870    0.5610 hn        1 ZAT      0.506050
     43 HAF        11.6450   -1.9130    0.0400 hn        1 ZAT      0.506050
     44 HAZ        12.5870   -0.4550   -3.2850 ha        1 ZAT      0.191750
     45 HAV        13.7340   -1.3020    0.8750 ha        1 ZAT      0.191750
     46 HAY        14.9300    0.0370   -3.8080 ha        1 ZAT      0.204750
     47 HAW        16.0600   -0.8000    0.3240 ha        1 ZAT      0.204750
     48 HBB1       16.7840   -1.6070   -3.7940 hc        1 ZAT      0.123867
     49 HBB2       17.3270    0.0400   -4.3250 hc        1 ZAT      0.123867
     50 HBB3       18.5050   -1.1340   -3.5740 hc        1 ZAT      0.123867
     51 HAH        19.3670    0.9680   -2.7300 hn        1 ZAT      0.497050
     52 HAJ        20.8170   -2.0160   -1.0300 hn        1 ZAT      0.557900
     53 HAI1       21.9180    1.3400   -1.2740 hn        1 ZAT      0.514133
     54 HAI2       21.2220    1.2050    0.2580 hn        1 ZAT      0.514133
     55 HAB3        0.0730    1.6740    0.4290 hn        1 ZAT      0.514133
     56 HAC2        1.5720    0.2640   -2.5350 hn        1 ZAT      0.497050
     57 HAE2        9.5190   -1.1900    0.7160 hn        1 ZAT      0.506050
     58 HAF2       11.4260   -2.2000   -1.6060 hn        1 ZAT      0.506050
     59 HAH2       19.2810    1.8050   -1.2530 hn        1 ZAT      0.497050
     60 HAI3       22.2340    0.0050   -0.3210 hn        1 ZAT      0.514133
@<TRIPOS>BOND
     1    1    2 2   
     2    1   31 1   
     3    2    3 1   
     4    2    4 1   
     5    3   32 1   
     6    3   33 1   
     7    3   55 1   
     8    4    5 1   
     9    4   34 1   
    10    4   56 1   
    11    5    6 2   
    12    6    7 1   
    13    6    8 1   
    14    7   35 1   
    15    7   36 1   
    16    7   37 1   
    17    8    9 ar  
    18    8   11 ar  
    19    9   10 ar  
    20    9   38 1   
    21   10   13 ar  
    22   10   40 1   
    23   11   12 ar  
    24   11   39 1   
    25   12   13 ar  
    26   12   41 1   
    27   13   14 1   
    28   14   15 1   
    29   14   42 1   
    30   14   57 1   
    31   15   16 2   
    32   15   17 1   
    33   17   18 1   
    34   17   43 1   
    35   17   58 1   
    36   18   19 ar  
    37   18   21 ar  
    38   19   20 ar  
    39   19   44 1   
    40   20   23 ar  
    41   20   46 1   
    42   21   22 ar  
    43   21   45 1   
    44   22   23 ar  
    45   22   47 1   
    46   23   24 1   
    47   24   25 1   
    48   24   26 2   
    49   25   48 1   
    50   25   49 1   
    51   25   50 1   
    52   26   27 1   
    53   27   28 1   
    54   27   51 1   
    55   27   59 1   
    56   28   29 2   
    57   28   30 1   
    58   29   52 1   
    59   30   53 1   
    60   30   54 1   
    61   30   60 1   
@<TRIPOS>SUBSTRUCTURE
     1 ZAT         1 TEMP              0 ****  ****    0 ROOT
