@<TRIPOS>MOLECULE
ZAT
   58    59     1     0     0
SMALL
bcc


@<TRIPOS>ATOM
      1 NAA        -0.0640   -1.3770   -1.4990 n2        1 ZAT     -0.617100
      2 CAK         0.7010   -0.6060   -0.8430 c2        1 ZAT      0.614100
      3 NAB         0.8170   -0.4490    0.6520 nz        1 ZAT     -0.846600
      4 NAC         1.6600    0.3020   -1.6210 ny        1 ZAT     -0.397100
      5 NAD         2.9770    0.2480   -1.1740 n2        1 ZAT     -0.691400
      6 CAL         3.9680   -0.2880   -1.9040 ce        1 ZAT      0.641900
      7 CAM         3.7970   -1.0520   -3.1780 c3        1 ZAT     -0.236400
      8 CAN         5.3330   -0.1040   -1.4480 ca        1 ZAT     -0.275900
      9 CAS         5.6810    0.8510   -0.4640 ca        1 ZAT     -0.008000
     10 CAR         6.9970    1.0710   -0.1070 ca        1 ZAT     -0.192500
     11 CAO         6.3850   -0.8550   -2.0260 ca        1 ZAT     -0.008000
     12 CAP         7.7070   -0.6500   -1.6750 ca        1 ZAT     -0.192500
     13 CAQ         8.0590    0.3360   -0.7160 ca        1 ZAT      0.191600
     14 NAE         9.3610    0.6310   -0.3310 ns        1 ZAT     -0.459100
     15 CAT        10.5430    0.0870   -0.8930 c         1 ZAT      0.803100
     16 OBD        10.5050   -0.7900   -1.7750 o         1 ZAT     -0.566100
     17 NAF        11.7690    0.5930   -0.3950 ns        1 ZAT     -0.459100
     18 CAU        13.0390    0.2530   -0.8450 ca        1 ZAT      0.191600
     19 CAZ        13.3090   -0.7520   -1.8100 ca        1 ZAT     -0.192500
     20 CAY        14.6020   -1.0040   -2.2270 ca        1 ZAT     -0.008000
     21 CAV        14.1540    0.9580   -0.3000 ca        1 ZAT     -0.192500
     22 CAW        15.4420    0.6920   -0.7220 ca        1 ZAT     -0.008000
     23 CAX        15.7070   -0.2830   -1.7120 ca        1 ZAT     -0.275900
     24 CBA        17.0390   -0.5150   -2.2370 ce        1 ZAT      0.641900
     25 CBB        17.1190   -1.2950   -3.5110 c3        1 ZAT     -0.236400
     26 NAG        18.0850   -0.0060   -1.5650 n2        1 ZAT     -0.691400
     27 NAH        19.3770    0.0010   -2.0810 ny        1 ZAT     -0.397100
     28 CBC        20.3460   -0.9310   -1.3440 c2        1 ZAT      0.614100
     29 NAJ        21.0500   -1.7330   -2.0300 n2        1 ZAT     -0.617100
     30 NAI        20.3130   -0.7570    0.1530 nz        1 ZAT     -0.846600
     31 HAA        -0.7480   -2.0030   -1.1130 hn        1 ZAT      0.538400
     32 HAB1        0.0900   -1.0080    1.1280 hn        1 ZAT      0.497800
     33 HAB2        0.7000    0.5370    0.9290 hn        1 ZAT      0.497800
     34 HAC         1.3510    1.2820   -1.4490 hn        1 ZAT      0.491300
     35 HAM1        4.1040   -2.1210   -3.0120 hc        1 ZAT      0.105700
     36 HAM2        2.7630   -1.0680   -3.5980 hc        1 ZAT      0.105700
     37 HAM3        4.4690   -0.6210   -3.9690 hc        1 ZAT      0.105700
     38 HAS         4.9050    1.4650    0.0240 ha        1 ZAT      0.157000
     39 HAO         6.1730   -1.6370   -2.7760 ha        1 ZAT      0.157000
     40 HAR         7.2170    1.8380    0.6550 ha        1 ZAT      0.186500
     41 HAP         8.4840   -1.2690   -2.1610 ha        1 ZAT      0.186500
     42 HAE         9.4490    1.3280    0.3820 hn        1 ZAT      0.342500
     43 HAF        11.7410    1.2960    0.3170 hn        1 ZAT      0.342500
     44 HAZ        12.4870   -1.3500   -2.2490 ha        1 ZAT      0.186500
     45 HAV        13.9990    1.7390    0.4650 ha        1 ZAT      0.186500
     46 HAY        14.7500   -1.7990   -2.9790 ha        1 ZAT      0.157000
     47 HAW        16.2620    1.2840   -0.2820 ha        1 ZAT      0.157000
     48 HBB1       16.7870   -2.3520   -3.3190 hc        1 ZAT      0.105700
     49 HBB2       18.1280   -1.3470   -3.9850 hc        1 ZAT      0.105700
     50 HBB3       16.4190   -0.8480   -4.2700 hc        1 ZAT      0.105700
     51 HAH        19.4590   -0.2190   -3.0990 hn        1 ZAT      0.491300
     52 HAJ        21.7320   -2.3770   -1.6740 hn        1 ZAT      0.538400
     53 HAI1       19.3930   -1.0470    0.5230 hn        1 ZAT      0.497800
     54 HAI2       21.0450   -1.3350    0.5970 hn        1 ZAT      0.497800
     55 HAB3        1.7450   -0.7730    0.9710 hn        1 ZAT      0.497800
     56 HAC2        1.5190    0.0960   -2.6360 hn        1 ZAT      0.491300
     57 HAH2       19.7260    0.9720   -1.9350 hn        1 ZAT      0.491300
     58 HAI3       20.4760    0.2280    0.4130 hn        1 ZAT      0.497800
@<TRIPOS>BOND
     1    1    2 2   
     2    1   31 1   
     3    2    3 1   
     4    2    4 1   
     5    3   32 1   
     6    3   33 1   
     7    3   55 1   
     8    4    5 1   
     9    4   34 1   
    10    4   56 1   
    11    5    6 2   
    12    6    7 1   
    13    6    8 1   
    14    7   35 1   
    15    7   36 1   
    16    7   37 1   
    17    8    9 ar  
    18    8   11 ar  
    19    9   10 ar  
    20    9   38 1   
    21   10   13 ar  
    22   10   40 1   
    23   11   12 ar  
    24   11   39 1   
    25   12   13 ar  
    26   12   41 1   
    27   13   14 1   
    28   14   15 1   
    29   14   42 1   
    30   15   16 2   
    31   15   17 1   
    32   17   18 1   
    33   17   43 1   
    34   18   19 ar  
    35   18   21 ar  
    36   19   20 ar  
    37   19   44 1   
    38   20   23 ar  
    39   20   46 1   
    40   21   22 ar  
    41   21   45 1   
    42   22   23 ar  
    43   22   47 1   
    44   23   24 1   
    45   24   25 1   
    46   24   26 2   
    47   25   48 1   
    48   25   49 1   
    49   25   50 1   
    50   26   27 1   
    51   27   28 1   
    52   27   51 1   
    53   27   57 1   
    54   28   29 2   
    55   28   30 1   
    56   29   52 1   
    57   30   53 1   
    58   30   54 1   
    59   30   58 1   
@<TRIPOS>SUBSTRUCTURE
     1 ZAT         1 TEMP              0 ****  ****    0 ROOT
