@<TRIPOS>MOLECULE
ZAT
   54    55     1     0     0
SMALL
bcc


@<TRIPOS>ATOM
      1 NAA        40.4270  -29.4850   -1.2170 n2        1 ZAT     -0.868600
      2 CAK        40.5280  -29.0760    0.0210 c2        1 ZAT      0.771600
      3 NAB        40.2370  -27.7640    0.4900 nh        1 ZAT     -0.918800
      4 NAC        40.9830  -30.0690    1.0050 nh        1 ZAT     -0.482800
      5 NAD        40.3370  -30.0940    2.1780 n2        1 ZAT     -0.451900
      6 CAL        40.2900  -31.1760    2.9200 ce        1 ZAT      0.396900
      7 CAM        40.8190  -32.5280    2.5550 c3        1 ZAT     -0.173900
      8 CAN        39.6700  -31.0760    4.2560 ca        1 ZAT     -0.139900
      9 CAS        40.0350  -30.0590    5.1450 ca        1 ZAT     -0.084500
     10 CAR        39.4620  -29.9860    6.4100 ca        1 ZAT     -0.162250
     11 CAO        38.7050  -32.0110    4.6480 ca        1 ZAT     -0.084500
     12 CAP        38.1140  -31.9450    5.9050 ca        1 ZAT     -0.162250
     13 CAQ        38.4870  -30.9300    6.8110 ca        1 ZAT      0.070600
     14 NAE        37.8770  -30.7780    8.0710 n         1 ZAT     -0.464600
     15 CAT        37.4170  -31.8680    8.8440 c         1 ZAT      0.771100
     16 OBD        37.3500  -33.0250    8.3770 o         1 ZAT     -0.606100
     17 NAF        37.0370  -31.5780   10.1740 n         1 ZAT     -0.464600
     18 CAU        36.3590  -32.4960   11.0010 ca        1 ZAT      0.070600
     19 CAZ        36.5800  -33.8880   10.9310 ca        1 ZAT     -0.162250
     20 CAY        35.9310  -34.7420   11.8140 ca        1 ZAT     -0.084500
     21 CAV        35.4750  -31.9980   11.9870 ca        1 ZAT     -0.162250
     22 CAW        34.8430  -32.8650   12.8700 ca        1 ZAT     -0.084500
     23 CAX        35.0570  -34.2450   12.7880 ca        1 ZAT     -0.139900
     24 CBA        34.3720  -35.1780   13.7040 ce        1 ZAT      0.396900
     25 CBB        33.7710  -36.3870   13.0570 c3        1 ZAT     -0.173900
     26 NAG        34.3550  -34.8870   14.9840 n2        1 ZAT     -0.451900
     27 NAH        33.8570  -35.7320   15.8960 nh        1 ZAT     -0.482800
     28 CBC        33.3960  -35.1360   17.1590 c2        1 ZAT      0.771600
     29 NAJ        32.2460  -35.5560   17.6190 n2        1 ZAT     -0.868600
     30 NAI        34.2320  -34.1590   17.7680 nh        1 ZAT     -0.918800
     31 HAA        40.2180  -28.7830   -1.8920 hn        1 ZAT      0.402400
     32 HAB1       40.3480  -27.6110    1.4680 hn        1 ZAT      0.401050
     33 HAB2       40.6630  -27.0490   -0.0590 hn        1 ZAT      0.401050
     34 HAC        41.1330  -30.9680    0.5570 hn        1 ZAT      0.401800
     35 HAM1       40.3400  -32.8990    1.6140 hc        1 ZAT      0.056533
     36 HAM2       41.9260  -32.4830    2.3970 hc        1 ZAT      0.056533
     37 HAM3       40.6150  -33.2670    3.3680 hc        1 ZAT      0.056533
     38 HAS        40.7850  -29.3110    4.8470 ha        1 ZAT      0.142750
     39 HAO        38.3980  -32.8070    3.9520 ha        1 ZAT      0.142750
     40 HAR        39.7750  -29.1790    7.0890 ha        1 ZAT      0.150750
     41 HAP        37.3600  -32.6980    6.1880 ha        1 ZAT      0.150750
     42 HAE        38.1280  -29.9410    8.5520 hn        1 ZAT      0.309500
     43 HAF        36.8890  -30.6220   10.4160 hn        1 ZAT      0.309500
     44 HAZ        37.2590  -34.3090   10.1710 ha        1 ZAT      0.150750
     45 HAV        35.2820  -30.9170   12.0730 ha        1 ZAT      0.150750
     46 HAY        36.1160  -35.8260   11.7470 ha        1 ZAT      0.142750
     47 HAW        34.1670  -32.4560   13.6370 ha        1 ZAT      0.142750
     48 HBB1       33.7950  -36.2920   11.9440 hc        1 ZAT      0.056533
     49 HBB2       34.3410  -37.3050   13.3460 hc        1 ZAT      0.056533
     50 HBB3       32.7040  -36.5180   13.3680 hc        1 ZAT      0.056533
     51 HAH        33.1830  -36.4110   15.5570 hn        1 ZAT      0.401800
     52 HAJ        31.9920  -35.2250   18.5240 hn        1 ZAT      0.402400
     53 HAI1       35.0820  -33.9490   17.2920 hn        1 ZAT      0.401050
     54 HAI2       34.3710  -34.3160   18.7430 hn        1 ZAT      0.401050
@<TRIPOS>BOND
     1    1    2 2   
     2    1   31 1   
     3    2    3 1   
     4    2    4 1   
     5    3   32 1   
     6    3   33 1   
     7    4    5 1   
     8    4   34 1   
     9    5    6 2   
    10    6    7 1   
    11    6    8 1   
    12    7   35 1   
    13    7   36 1   
    14    7   37 1   
    15    8    9 ar  
    16    8   11 ar  
    17    9   10 ar  
    18    9   38 1   
    19   10   13 ar  
    20   10   40 1   
    21   11   12 ar  
    22   11   39 1   
    23   12   13 ar  
    24   12   41 1   
    25   13   14 1   
    26   14   15 1   
    27   14   42 1   
    28   15   16 2   
    29   15   17 1   
    30   17   18 1   
    31   17   43 1   
    32   18   19 ar  
    33   18   21 ar  
    34   19   20 ar  
    35   19   44 1   
    36   20   23 ar  
    37   20   46 1   
    38   21   22 ar  
    39   21   45 1   
    40   22   23 ar  
    41   22   47 1   
    42   23   24 1   
    43   24   25 1   
    44   24   26 2   
    45   25   48 1   
    46   25   49 1   
    47   25   50 1   
    48   26   27 1   
    49   27   28 1   
    50   27   51 1   
    51   28   29 2   
    52   28   30 1   
    53   29   52 1   
    54   30   53 1   
    55   30   54 1   
@<TRIPOS>SUBSTRUCTURE
     1 ZAT         1 TEMP              0 ****  ****    0 ROOT
