@<TRIPOS>MOLECULE
ZAT
   54    46     1     0     0
SMALL
bcc


@<TRIPOS>ATOM
      1 NAA         2.2390   -5.2060    3.9500 n1        1 ZAT     -0.330000
      2 CAK         1.5620   -4.2610    4.5600 c1        1 ZAT      0.177000
      3 NAB         2.1910   -3.4660    5.5550 n2        1 ZAT     -0.351000
      4 NAC         0.1660   -4.0300    4.2180 n3        1 ZAT     -0.214000
      5 NAD        -0.7650   -5.0800    4.3190 n2        1 ZAT     -0.084000
      6 CAL        -1.6560   -5.2690    3.3580 c1        1 ZAT     -0.051000
      7 CAM        -2.6660   -6.4120    3.4670 c2        1 ZAT     -0.163000
      8 CAN        -1.7220   -4.3010    2.1780 c2        1 ZAT     -0.115000
      9 CAS        -1.5980   -4.7790    0.8790 c2        1 ZAT     -0.082000
     10 CAR        -1.7170   -3.9060   -0.1950 c1        1 ZAT     -0.183000
     11 CAO        -1.9660   -2.9450    2.4030 c1        1 ZAT     -0.092000
     12 CAP        -2.0840   -2.0820    1.3420 c1        1 ZAT     -0.139000
     13 CAQ        -1.9600   -2.5600    0.0300 c1        1 ZAT      0.083000
     14 NAE        -2.2590   -1.7170   -1.0460 n         1 ZAT     -0.321000
     15 CAT        -1.4880   -0.5330   -1.2600 c2        1 ZAT      0.400000
     16 OBD        -0.5770   -0.2610   -0.5090 o         1 ZAT     -0.362000
     17 NAF        -1.8210    0.3590   -2.3390 n         1 ZAT     -0.319000
     18 CAU        -1.0750    1.5640   -2.5230 c2        1 ZAT      0.081000
     19 CAZ        -0.0260    1.6000   -3.4460 c2        1 ZAT     -0.182000
     20 CAY         0.6360    2.7980   -3.7030 c1        1 ZAT     -0.081000
     21 CAV        -1.4580    2.7250   -1.8620 c1        1 ZAT     -0.137000
     22 CAW        -0.7930    3.9310   -2.1200 c1        1 ZAT     -0.099000
     23 CAX         0.2510    3.9660   -3.0390 c1        1 ZAT     -0.110000
     24 CBA         0.8950    5.3010   -3.4090 c2        1 ZAT     -0.054000
     25 CBB         0.5000    6.0090   -4.7120 c3        1 ZAT     -0.163000
     26 NAG         1.7950    5.8500   -2.6040 n1        1 ZAT     -0.081000
     27 NAH         2.1490    5.2230   -1.4430 n2        1 ZAT     -0.214000
     28 CBC         3.4100    5.4880   -0.8560 c2        1 ZAT      0.177000
     29 NAJ         3.5120    5.6240    0.4390 n1        1 ZAT     -0.329000
     30 NAI         4.5530    5.6000   -1.6660 n3        1 ZAT     -0.351000
     31 HAA         3.1130   -5.3510    4.1650 DU        1 ZAT      0.159500
     32 HAB1        3.0990   -3.5830    5.7390 hn        1 ZAT      0.193000
     33 HAB2        1.7040   -2.8960    6.0470 hn        1 ZAT      0.193000
     34 HAC        -0.1010   -3.2050    3.8990 hn        1 ZAT      0.204000
     35 HAM1       -2.9520   -6.6850    2.5650 ha        1 ZAT      0.092333
     36 HAM2       -3.4410   -6.1140    3.9770 ha        1 ZAT      0.092333
     37 HAM3       -2.2480   -7.1770    3.9220 ha        1 ZAT      0.092333
     38 HAS        -1.4300   -5.7170    0.7230 ha        1 ZAT      0.138000
     39 HAO        -2.0530   -2.6100    3.3160 ha        1 ZAT      0.151000
     40 HAR        -1.6310   -4.2370   -1.1000 ha        1 ZAT      0.131000
     41 HAP        -2.2570   -1.1230    1.5040 ha        1 ZAT      0.175000
     42 HAE        -2.9150   -1.9440   -1.6320 hn        1 ZAT      0.224000
     43 HAF        -2.4550    0.1120   -2.9590 hn        1 ZAT      0.223000
     44 HAZ         0.2460    0.7780   -3.9150 ha        1 ZAT      0.132000
     45 HAV        -2.1950    2.6990   -1.2140 ha        1 ZAT      0.176000
     46 HAY         1.3850    2.8230   -4.3620 ha        1 ZAT      0.139000
     47 HAW        -1.0640    4.7530   -1.6520 ha        1 ZAT      0.145000
     48 HBB1       -0.3820    5.7060   -4.9920 hc        1 ZAT      0.092000
     49 HBB2        1.1520    5.7990   -5.4070 hc        1 ZAT      0.092000
     50 HBB3        0.4810    6.9850   -4.5630 hc        1 ZAT      0.092000
     51 HAH         1.5310    4.6890   -0.9960 hn        1 ZAT      0.206000
     52 HAJ         4.3330    5.7960    0.8220 DU        1 ZAT      0.159500
     53 HAI1        5.3420    5.9000   -1.3070 hn        1 ZAT      0.193000
     54 HAI2        4.5120    5.3720   -2.5420 hn        1 ZAT      0.193000
@<TRIPOS>BOND
     1    1    2 1   
     2    2    4 1   
     3    3   32 1   
     4    3   33 1   
     5    4    5 1   
     6    4   34 1   
     7    5    6 1   
     8    6    8 1   
     9    7   35 1   
    10    7   36 1   
    11    7   37 1   
    12    8    9 1   
    13    8   11 1   
    14    9   10 1   
    15    9   38 1   
    16   10   40 1   
    17   11   39 1   
    18   12   13 1   
    19   12   41 1   
    20   13   14 1   
    21   14   15 1   
    22   14   42 1   
    23   15   16 1   
    24   15   17 1   
    25   17   18 1   
    26   17   43 1   
    27   18   19 1   
    28   18   21 1   
    29   19   20 1   
    30   19   44 1   
    31   20   46 1   
    32   21   45 1   
    33   22   23 1   
    34   22   47 1   
    35   23   24 1   
    36   24   25 1   
    37   24   26 1   
    38   25   48 1   
    39   25   49 1   
    40   25   50 1   
    41   27   28 1   
    42   27   51 1   
    43   28   29 1   
    44   28   30 1   
    45   30   53 1   
    46   30   54 1   
@<TRIPOS>SUBSTRUCTURE
     1 ZAT         1 TEMP              0 ****  ****    0 ROOT
