@<TRIPOS>MOLECULE
ZAW
   22    23     1     0     0
SMALL
bcc


@<TRIPOS>ATOM
      1 C01         0.0200   -0.1960   -0.0180 ca        1 ZAW     -0.057000
      2 C06         1.4150   -0.2180   -0.0120 ca        1 ZAW     -0.260300
      3 C05         2.0850   -0.0350    1.2110 ca        1 ZAW      0.419200
      4 N01         1.4500    0.1550    2.3850 nb        1 ZAW     -0.668000
      5 C03         0.1060    0.1660    2.3680 ca        1 ZAW      0.447200
      6 C04        -0.6600    0.0050    1.1890 ca        1 ZAW     -0.288900
      7 C02        -2.1330    0.0150    1.2800 c         1 ZAW      0.599300
      8 O01        -2.7140   -0.3890    2.2970 o         1 ZAW     -0.519100
      9 C07        -2.8910    0.5210    0.1190 ca        1 ZAW     -0.288900
     10 C08        -2.4030    1.5330   -0.7180 ca        1 ZAW     -0.057000
     11 C09        -3.1950    1.9740   -1.7780 ca        1 ZAW     -0.260300
     12 C10        -4.4570    1.3810   -1.9660 ca        1 ZAW      0.419200
     13 N02        -4.9480    0.4100   -1.1700 nb        1 ZAW     -0.668000
     14 C12        -4.1790   -0.0000   -0.1460 ca        1 ZAW      0.447200
     15 H1         -0.5390   -0.3440   -0.9550 ha        1 ZAW      0.147000
     16 H2          1.9820   -0.3790   -0.9390 ha        1 ZAW      0.149000
     17 H3          3.1890   -0.0440    1.2590 h4        1 ZAW      0.027100
     18 H4         -0.4000    0.3050    3.3430 h4        1 ZAW      0.044100
     19 H5         -1.4130    1.9780   -0.5340 ha        1 ZAW      0.147000
     20 H6         -2.8470    2.7680   -2.4510 ha        1 ZAW      0.149000
     21 H7         -5.1150    1.7000   -2.7950 h4        1 ZAW      0.027100
     22 H8         -4.6050   -0.7850    0.5080 h4        1 ZAW      0.044100
@<TRIPOS>BOND
     1    1    2 ar  
     2    1    6 ar  
     3    1   15 1   
     4    2    3 ar  
     5    2   16 1   
     6    3    4 ar  
     7    3   17 1   
     8    4    5 ar  
     9    5    6 ar  
    10    5   18 1   
    11    6    7 1   
    12    7    8 2   
    13    7    9 1   
    14    9   10 ar  
    15    9   14 ar  
    16   10   11 ar  
    17   10   19 1   
    18   11   12 ar  
    19   11   20 1   
    20   12   13 ar  
    21   12   21 1   
    22   13   14 ar  
    23   14   22 1   
@<TRIPOS>SUBSTRUCTURE
     1 ZAW         1 TEMP              0 ****  ****    0 ROOT
