@<TRIPOS>MOLECULE
ZAW
   22    23     1     0     0
SMALL
bcc


@<TRIPOS>ATOM
      1 C01         1.3680   -0.9190    0.6830 ca        1 ZAW     -0.057000
      2 C06         2.6060   -1.5610    0.7090 ca        1 ZAW     -0.260300
      3 C05         3.7040   -0.9300    0.0940 ca        1 ZAW      0.419200
      4 N01         3.6260    0.2690   -0.5160 nb        1 ZAW     -0.668000
      5 C03         2.4290    0.8820   -0.5270 ca        1 ZAW      0.447200
      6 C04         1.2620    0.3260    0.0500 ca        1 ZAW     -0.288900
      7 C02        -0.0000    1.0880   -0.0010 c         1 ZAW      0.599300
      8 O01        -0.0000    2.3270   -0.0010 o         1 ZAW     -0.519100
      9 C07        -1.2630    0.3250   -0.0500 ca        1 ZAW     -0.288900
     10 C08        -1.3680   -0.9200   -0.6820 ca        1 ZAW     -0.057000
     11 C09        -2.6060   -1.5620   -0.7080 ca        1 ZAW     -0.260300
     12 C10        -3.7030   -0.9320   -0.0940 ca        1 ZAW      0.419200
     13 N02        -3.6260    0.2680    0.5150 nb        1 ZAW     -0.668000
     14 C12        -2.4290    0.8810    0.5260 ca        1 ZAW      0.447200
     15 H1          0.4880   -1.3780    1.1600 ha        1 ZAW      0.147000
     16 H2          2.7280   -2.5350    1.2010 ha        1 ZAW      0.149000
     17 H3          4.7020   -1.4060    0.0900 h4        1 ZAW      0.027100
     18 H4          2.3860    1.8740   -1.0160 h4        1 ZAW      0.044100
     19 H5         -0.4880   -1.3790   -1.1590 ha        1 ZAW      0.147000
     20 H6         -2.7270   -2.5370   -1.1990 ha        1 ZAW      0.149000
     21 H7         -4.7010   -1.4070   -0.0890 h4        1 ZAW      0.027100
     22 H8         -2.3860    1.8740    1.0140 h4        1 ZAW      0.044100
@<TRIPOS>BOND
     1    1    2 ar  
     2    1    6 ar  
     3    1   15 1   
     4    2    3 ar  
     5    2   16 1   
     6    3    4 ar  
     7    3   17 1   
     8    4    5 ar  
     9    5    6 ar  
    10    5   18 1   
    11    6    7 1   
    12    7    8 2   
    13    7    9 1   
    14    9   10 ar  
    15    9   14 ar  
    16   10   11 ar  
    17   10   19 1   
    18   11   12 ar  
    19   11   20 1   
    20   12   13 ar  
    21   12   21 1   
    22   13   14 ar  
    23   14   22 1   
@<TRIPOS>SUBSTRUCTURE
     1 ZAW         1 TEMP              0 ****  ****    0 ROOT
