@<TRIPOS>MOLECULE
ZB6
   31    31     1     0     0
SMALL
bcc


@<TRIPOS>ATOM
      1 C01         0.2110   -0.4930   -0.4050 c3        1 ZB6     -0.085100
      2 C02         1.6370   -0.0200   -0.1490 c3        1 ZB6      0.094700
      3 C03         1.8400    0.1930    1.3620 c3        1 ZB6     -0.100400
      4 C04         3.2950    0.4930    1.6590 c3        1 ZB6     -0.077400
      5 C05         3.8270    1.6040    0.7790 c3        1 ZB6     -0.093400
      6 C06         3.5170    1.3640   -0.7060 c3        1 ZB6     -0.043300
      7 N07         2.0940    1.1260   -0.9420 n         1 ZB6     -0.407800
      8 C08         1.2000    2.1560   -1.2370 c         1 ZB6      0.669100
      9 O09         0.0080    2.1150   -0.8450 o         1 ZB6     -0.677100
     10 C10         1.6330    3.2920   -2.1480 c3        1 ZB6     -0.165400
     11 C11         0.4140    3.9860   -2.7020 c3        1 ZB6      0.030700
     12 S12         0.9450    5.3080   -3.7610 sh        1 ZB6     -0.372900
     13 C13         4.2040    2.4920   -1.5480 c         1 ZB6      0.913600
     14 O14         4.4030    3.6060   -0.9900 o         1 ZB6     -0.822300
     15 O15         4.5650    2.1890   -2.7150 o         1 ZB6     -0.822300
     16 H1         -0.5260    0.1440    0.1400 hc        1 ZB6      0.035700
     17 H2         -0.0330   -0.4600   -1.4930 hc        1 ZB6      0.035700
     18 H3          0.1150   -1.5460   -0.0440 hc        1 ZB6      0.035700
     19 H4          2.3210   -0.8720   -0.4610 h1        1 ZB6      0.040700
     20 H5          1.5180   -0.7320    1.9050 hc        1 ZB6      0.036700
     21 H6          1.1920    1.0390    1.7090 hc        1 ZB6      0.036700
     22 H7          3.9030   -0.4360    1.4920 hc        1 ZB6      0.020200
     23 H8          3.4080    0.7750    2.7380 hc        1 ZB6      0.020200
     24 H9          3.3970    2.5920    1.0870 hc        1 ZB6      0.056700
     25 H10         4.9390    1.6830    0.8870 hc        1 ZB6      0.056700
     26 H11         4.0350    0.4070   -1.0240 h1        1 ZB6      0.046700
     27 H12         2.2840    2.9010   -2.9800 hc        1 ZB6      0.127700
     28 H13         2.2670    4.0090   -1.5500 hc        1 ZB6      0.127700
     29 H14        -0.2120    4.3860   -1.8690 h1        1 ZB6      0.058200
     30 H15        -0.2130    3.2630   -3.2790 h1        1 ZB6      0.058200
     31 H16        -0.2450    5.7740   -4.0820 hs        1 ZB6      0.165800
@<TRIPOS>BOND
     1    1    2 1   
     2    1   16 1   
     3    1   17 1   
     4    1   18 1   
     5    2    3 1   
     6    2    7 1   
     7    2   19 1   
     8    3    4 1   
     9    3   20 1   
    10    3   21 1   
    11    4    5 1   
    12    4   22 1   
    13    4   23 1   
    14    5    6 1   
    15    5   24 1   
    16    5   25 1   
    17    6    7 1   
    18    6   13 1   
    19    6   26 1   
    20    7    8 1   
    21    8    9 2   
    22    8   10 1   
    23   10   11 1   
    24   10   27 1   
    25   10   28 1   
    26   11   12 1   
    27   11   29 1   
    28   11   30 1   
    29   12   31 1   
    30   13   14 1   
    31   13   15 1   
@<TRIPOS>SUBSTRUCTURE
     1 ZB6         1 TEMP              0 ****  ****    0 ROOT
