@<TRIPOS>MOLECULE
ZB6
   31    31     1     0     0
SMALL
bcc


@<TRIPOS>ATOM
      1 C01         0.1850   -0.4600   -0.3560 c3        1 ZB6     -0.085100
      2 C02         1.6180   -0.0010   -0.1170 c3        1 ZB6      0.094700
      3 C03         1.8330    0.2390    1.3880 c3        1 ZB6     -0.100400
      4 C04         3.2920    0.5250    1.6710 c3        1 ZB6     -0.077400
      5 C05         3.8350    1.6120    0.7670 c3        1 ZB6     -0.093400
      6 C06         3.5130    1.3470   -0.7110 c3        1 ZB6     -0.043300
      7 N07         2.0850    1.1230   -0.9340 n         1 ZB6     -0.407800
      8 C08         1.2040    2.1590   -1.2450 c         1 ZB6      0.669100
      9 O09         0.0130    2.1410   -0.8460 o         1 ZB6     -0.677100
     10 C10         1.6460    3.2710   -2.1800 c3        1 ZB6     -0.165400
     11 C11         0.4340    3.9700   -2.7410 c3        1 ZB6      0.030700
     12 S12         0.9760    5.2650   -3.8280 sh        1 ZB6     -0.372900
     13 C13         4.2100    2.4500   -1.5790 c         1 ZB6      0.913600
     14 O14         4.4270    3.5710   -1.0440 o         1 ZB6     -0.822300
     15 O15         4.5600    2.1190   -2.7420 o         1 ZB6     -0.822300
     16 H1         -0.5410    0.1970    0.1790 hc        1 ZB6      0.035700
     17 H2         -0.0650   -0.4460   -1.4430 hc        1 ZB6      0.035700
     18 H3          0.0780   -1.5050    0.0250 hc        1 ZB6      0.035700
     19 H4          2.2900   -0.8680   -0.4160 h1        1 ZB6      0.040700
     20 H5          1.1980    1.1000    1.7220 hc        1 ZB6      0.036700
     21 H6          1.5010   -0.6710    1.9510 hc        1 ZB6      0.036700
     22 H7          3.8870   -0.4140    1.5200 hc        1 ZB6      0.020200
     23 H8          3.4150    0.8280    2.7440 hc        1 ZB6      0.020200
     24 H9          3.4190    2.6110    1.0580 hc        1 ZB6      0.056700
     25 H10         4.9480    1.6780    0.8680 hc        1 ZB6      0.056700
     26 H11         4.0170    0.3780   -1.0130 h1        1 ZB6      0.046700
     27 H12         2.2870    2.8560   -3.0080 hc        1 ZB6      0.127700
     28 H13         2.2930    3.9910   -1.6000 hc        1 ZB6      0.127700
     29 H14        -0.1830    4.3950   -1.9120 h1        1 ZB6      0.058200
     30 H15        -0.2060    3.2460   -3.3000 h1        1 ZB6      0.058200
     31 H16        -0.2100    5.7410   -4.1520 hs        1 ZB6      0.165800
@<TRIPOS>BOND
     1    1    2 1   
     2    1   16 1   
     3    1   17 1   
     4    1   18 1   
     5    2    3 1   
     6    2    7 1   
     7    2   19 1   
     8    3    4 1   
     9    3   20 1   
    10    3   21 1   
    11    4    5 1   
    12    4   22 1   
    13    4   23 1   
    14    5    6 1   
    15    5   24 1   
    16    5   25 1   
    17    6    7 1   
    18    6   13 1   
    19    6   26 1   
    20    7    8 1   
    21    8    9 2   
    22    8   10 1   
    23   10   11 1   
    24   10   27 1   
    25   10   28 1   
    26   11   12 1   
    27   11   29 1   
    28   11   30 1   
    29   12   31 1   
    30   13   14 1   
    31   13   15 1   
@<TRIPOS>SUBSTRUCTURE
     1 ZB6         1 TEMP              0 ****  ****    0 ROOT
