@<TRIPOS>MOLECULE
ZBA
   65    68     1     0     0
SMALL
bcc


@<TRIPOS>ATOM
      1 O18        -0.3350    1.1990   -0.1000 o         1 ZBA     -0.548000
      2 C44         0.8580    0.9240    0.0400 c         1 ZBA      0.641100
      3 C45         1.6780    0.9130    1.3000 c3        1 ZBA     -0.088200
      4 C46         1.4360   -0.3310    2.0880 c2        1 ZBA     -0.135400
      5 C48         2.3440   -1.3100    2.1330 c2        1 ZBA     -0.193000
      6 C47         0.1470   -0.3810    2.8180 c3        1 ZBA     -0.067900
      7 O17         1.6050    0.6020   -1.0580 os        1 ZBA     -0.436900
      8 C31         0.9670    0.5390   -2.3510 c3        1 ZBA      0.178300
      9 C30         1.9410    1.1570   -3.3530 c3        1 ZBA     -0.075400
     10 C32         0.6130   -0.8830   -2.6690 c2        1 ZBA     -0.101400
     11 C39        -0.5340   -1.4440   -1.9170 c3        1 ZBA     -0.064900
     12 C33         1.2720   -1.5890   -3.5940 c2        1 ZBA     -0.159200
     13 C34         2.4340   -1.0840   -4.3870 c3        1 ZBA      0.170300
     14 O10         1.9300   -1.0020   -5.7370 os        1 ZBA     -0.405600
     15 C29         3.0550    0.2230   -3.8270 c3        1 ZBA     -0.051000
     16 C38         3.9260   -0.1780   -2.6210 c3        1 ZBA      0.135400
     17 O12         4.4010    1.0190   -1.9840 os        1 ZBA     -0.430900
     18 C40         4.8140    0.9100   -0.6860 c         1 ZBA      0.640100
     19 C41         5.3480    2.1920   -0.1440 c3        1 ZBA     -0.151100
     20 O13         4.7150   -0.1760   -0.1100 o         1 ZBA     -0.551000
     21 C28         3.9090    0.8830   -4.9460 c3        1 ZBA     -0.029000
     22 C37         4.6490    2.1190   -4.5020 c3        1 ZBA     -0.083100
     23 C35         2.9590    1.1440   -6.1160 cx        1 ZBA      0.035800
     24 C25         2.7110   -0.2570   -6.6570 c3        1 ZBA      0.126100
     25 C36         2.0870    2.3210   -6.3440 cx        1 ZBA      0.082400
     26 O11         3.3010    2.1460   -7.0880 os        1 ZBA     -0.385600
     27 C27         4.8850   -0.1920   -5.5430 c3        1 ZBA      0.110100
     28 C26         4.1530   -0.8100   -6.7710 c3        1 ZBA      0.107100
     29 O16         4.2450   -2.2110   -6.8000 oh        1 ZBA     -0.579800
     30 O14         6.0710    0.4200   -6.0540 os        1 ZBA     -0.421900
     31 C42         7.2180    0.3380   -5.3080 c         1 ZBA      0.638100
     32 O15         7.1730   -0.1950   -4.1980 o         1 ZBA     -0.546000
     33 C43         8.3900    0.9380   -6.0040 c3        1 ZBA     -0.150100
     34 H45         2.7670    0.9980    1.0280 hc        1 ZBA      0.080700
     35 H45A        1.3820    1.8130    1.9040 hc        1 ZBA      0.080700
     36 H48         3.2950   -1.2580    1.5800 ha        1 ZBA      0.129500
     37 H48A        2.1880   -2.2230    2.7230 ha        1 ZBA      0.129500
     38 H47        -0.0500   -1.4020    3.2270 hc        1 ZBA      0.047367
     39 H47A        0.1590    0.3440    3.6700 hc        1 ZBA      0.047367
     40 H47B       -0.6930   -0.1000    2.1320 hc        1 ZBA      0.047367
     41 H31         0.0220    1.1580   -2.3270 h1        1 ZBA      0.087700
     42 H30         1.3280    1.4760   -4.2370 hc        1 ZBA      0.068200
     43 H30A        2.4020    2.0650   -2.8830 hc        1 ZBA      0.068200
     44 H39        -1.4880   -0.9950   -2.2940 hc        1 ZBA      0.052367
     45 H39A       -0.5950   -2.5540   -2.0270 hc        1 ZBA      0.052367
     46 H39B       -0.4420   -1.1930   -0.8300 hc        1 ZBA      0.052367
     47 H33         0.9640   -2.6150   -3.8550 ha        1 ZBA      0.139000
     48 H34         3.2390   -1.8790   -4.3810 h1        1 ZBA      0.046700
     49 H38         3.3090   -0.7720   -1.8930 h1        1 ZBA      0.075700
     50 H38A        4.8320   -0.7650   -2.9240 h1        1 ZBA      0.075700
     51 H41         5.2120    3.0250   -0.8750 hc        1 ZBA      0.074033
     52 H41A        6.4380    2.0630    0.0710 hc        1 ZBA      0.074033
     53 H41B        4.8130    2.4350    0.8060 hc        1 ZBA      0.074033
     54 H37         3.9740    2.8140   -3.9500 hc        1 ZBA      0.053700
     55 H37A        5.0600    2.6490   -5.3970 hc        1 ZBA      0.053700
     56 H37B        5.4960    1.8320   -3.8300 hc        1 ZBA      0.053700
     57 H25         2.1410   -0.3010   -7.6180 h1        1 ZBA      0.109700
     58 H36         2.1020    3.1730   -5.6390 h1        1 ZBA      0.082700
     59 H36A        1.1600    2.2220   -6.9380 h1        1 ZBA      0.082700
     60 H27         5.1550   -0.9850   -4.8000 h1        1 ZBA      0.094700
     61 H26         4.6360   -0.4560   -7.7240 h1        1 ZBA      0.110700
     62 HO16        3.5160   -2.5740   -6.2790 ho        1 ZBA      0.411000
     63 H43         8.0640    1.5750   -6.8620 hc        1 ZBA      0.077700
     64 H43A        9.0380    0.1110   -6.3870 hc        1 ZBA      0.077700
     65 H43B        8.9730    1.5530   -5.2760 hc        1 ZBA      0.077700
@<TRIPOS>BOND
     1    1    2 2   
     2    2    3 1   
     3    2    7 1   
     4    3    4 1   
     5    3   34 1   
     6    3   35 1   
     7    4    5 2   
     8    4    6 1   
     9    5   36 1   
    10    5   37 1   
    11    6   38 1   
    12    6   39 1   
    13    6   40 1   
    14    7    8 1   
    15    8    9 1   
    16    8   10 1   
    17    8   41 1   
    18    9   15 1   
    19    9   42 1   
    20    9   43 1   
    21   10   11 1   
    22   10   12 2   
    23   11   44 1   
    24   11   45 1   
    25   11   46 1   
    26   12   13 1   
    27   12   47 1   
    28   13   14 1   
    29   13   15 1   
    30   13   48 1   
    31   14   24 1   
    32   15   16 1   
    33   15   21 1   
    34   16   17 1   
    35   16   49 1   
    36   16   50 1   
    37   17   18 1   
    38   18   19 1   
    39   18   20 2   
    40   19   51 1   
    41   19   52 1   
    42   19   53 1   
    43   21   22 1   
    44   21   23 1   
    45   21   27 1   
    46   22   54 1   
    47   22   55 1   
    48   22   56 1   
    49   23   24 1   
    50   23   25 1   
    51   23   26 1   
    52   24   28 1   
    53   24   57 1   
    54   25   26 1   
    55   25   58 1   
    56   25   59 1   
    57   27   28 1   
    58   27   30 1   
    59   27   60 1   
    60   28   29 1   
    61   28   61 1   
    62   29   62 1   
    63   30   31 1   
    64   31   32 2   
    65   31   33 1   
    66   33   63 1   
    67   33   64 1   
    68   33   65 1   
@<TRIPOS>SUBSTRUCTURE
     1 ZBA         1 TEMP              0 ****  ****    0 ROOT
