@<TRIPOS>MOLECULE
ZBA
   65    68     1     0     0
SMALL
bcc


@<TRIPOS>ATOM
      1 O18         4.3210   -1.2850    1.6460 o         1 ZBA     -0.548000
      2 C44         3.8940   -0.2910    1.0570 c         1 ZBA      0.641100
      3 C45         4.6130    0.9900    0.7330 c3        1 ZBA     -0.088200
      4 C46         5.4920    0.8250   -0.4620 c2        1 ZBA     -0.135400
      5 C48         5.1580    1.3470   -1.6450 c2        1 ZBA     -0.193000
      6 C47         6.7480    0.0720   -0.2280 c3        1 ZBA     -0.067900
      7 O17         2.5940   -0.2660    0.6370 os        1 ZBA     -0.436900
      8 C31         1.7650   -1.4290    0.8450 c3        1 ZBA      0.178300
      9 C30         0.3860   -0.9180    1.2610 c3        1 ZBA     -0.075400
     10 C32         1.7370   -2.2570   -0.4050 c2        1 ZBA     -0.101400
     11 C39         2.9740   -3.0170   -0.7010 c3        1 ZBA     -0.064900
     12 C33         0.6530   -2.3290   -1.1850 c2        1 ZBA     -0.159200
     13 C34        -0.6250   -1.5910   -0.9420 c3        1 ZBA      0.170300
     14 O10        -1.5760   -2.6290   -0.6270 os        1 ZBA     -0.405600
     15 C29        -0.5040   -0.4550    0.1070 c3        1 ZBA     -0.051000
     16 C38         0.1650    0.7380   -0.6010 c3        1 ZBA      0.135400
     17 O12         0.4300    1.7580    0.3760 os        1 ZBA     -0.430900
     18 C40         1.3810    2.6880    0.0620 c         1 ZBA      0.640100
     19 C41         1.5280    3.7360    1.1120 c3        1 ZBA     -0.151100
     20 O13         1.9970    2.5860   -1.0020 o         1 ZBA     -0.551000
     21 C28        -1.9310   -0.0880    0.6060 c3        1 ZBA     -0.029000
     22 C37        -1.9640    1.0740    1.5650 c3        1 ZBA     -0.083100
     23 C35        -2.5230   -1.3690    1.1970 cx        1 ZBA      0.035800
     24 C25        -2.7990   -2.2070   -0.0440 c3        1 ZBA      0.126100
     25 C36        -2.3780   -1.8930    2.5750 cx        1 ZBA      0.082400
     26 O11        -3.5970   -1.2720    2.1460 os        1 ZBA     -0.385600
     27 C27        -2.8550    0.1620   -0.6380 c3        1 ZBA      0.110100
     28 C26        -3.5500   -1.1970   -0.9450 c3        1 ZBA      0.107100
     29 O16        -3.5380   -1.5080   -2.3140 oh        1 ZBA     -0.579800
     30 O14        -3.9020    1.0820   -0.3210 os        1 ZBA     -0.421900
     31 C42        -3.7860    2.3750   -0.7600 c         1 ZBA      0.638100
     32 O15        -2.7590    2.7190   -1.3470 o         1 ZBA     -0.546000
     33 C43        -4.9890    3.1930   -0.4370 c3        1 ZBA     -0.150100
     34 H45         3.8520    1.7990    0.5500 hc        1 ZBA      0.080700
     35 H45A        5.2310    1.2660    1.6290 hc        1 ZBA      0.080700
     36 H48         5.8030    1.2490   -2.5280 ha        1 ZBA      0.129500
     37 H48A        4.2190    1.8990   -1.8020 ha        1 ZBA      0.129500
     38 H47         6.5270   -0.8820    0.3160 hc        1 ZBA      0.047367
     39 H47A        7.2600   -0.1740   -1.1900 hc        1 ZBA      0.047367
     40 H47B        7.4480    0.6770    0.4000 hc        1 ZBA      0.047367
     41 H31         2.1970   -2.0460    1.6870 h1        1 ZBA      0.087700
     42 H30        -0.1180   -1.7640    1.7980 hc        1 ZBA      0.068200
     43 H30A        0.5270   -0.0650    1.9770 hc        1 ZBA      0.068200
     44 H39         3.0690   -3.8760    0.0110 hc        1 ZBA      0.052367
     45 H39A        2.9700   -3.4180   -1.7440 hc        1 ZBA      0.052367
     46 H39B        3.8700   -2.3600   -0.5690 hc        1 ZBA      0.052367
     47 H33         0.6290   -2.9850   -2.0710 ha        1 ZBA      0.139000
     48 H34        -0.9550   -1.1240   -1.9190 h1        1 ZBA      0.046700
     49 H38         1.1320    0.4040   -1.0670 h1        1 ZBA      0.075700
     50 H38A       -0.4960    1.1990   -1.3800 h1        1 ZBA      0.075700
     51 H41         2.6020    3.7980    1.4130 hc        1 ZBA      0.074033
     52 H41A        1.2100    4.7180    0.6840 hc        1 ZBA      0.074033
     53 H41B        0.9010    3.5000    2.0050 hc        1 ZBA      0.074033
     54 H37        -1.7580    2.0260    1.0140 hc        1 ZBA      0.053700
     55 H37A       -2.9760    1.1390    2.0370 hc        1 ZBA      0.053700
     56 H37B       -1.1990    0.9530    2.3680 hc        1 ZBA      0.053700
     57 H25        -3.3700   -3.1510    0.1390 h1        1 ZBA      0.109700
     58 H36        -2.4540   -2.9790    2.7710 h1        1 ZBA      0.082700
     59 H36A       -1.8160   -1.3200    3.3370 h1        1 ZBA      0.082700
     60 H27        -2.2840    0.5270   -1.5300 h1        1 ZBA      0.094700
     61 H26        -4.6370   -1.1450   -0.6570 h1        1 ZBA      0.110700
     62 HO16       -2.7130   -1.9730   -2.5120 ho        1 ZBA      0.411000
     63 H43        -5.6250    2.6840    0.3270 hc        1 ZBA      0.077700
     64 H43A       -4.6610    4.1890   -0.0540 hc        1 ZBA      0.077700
     65 H43B       -5.5830    3.3370   -1.3730 hc        1 ZBA      0.077700
@<TRIPOS>BOND
     1    1    2 2   
     2    2    3 1   
     3    2    7 1   
     4    3    4 1   
     5    3   34 1   
     6    3   35 1   
     7    4    5 2   
     8    4    6 1   
     9    5   36 1   
    10    5   37 1   
    11    6   38 1   
    12    6   39 1   
    13    6   40 1   
    14    7    8 1   
    15    8    9 1   
    16    8   10 1   
    17    8   41 1   
    18    9   15 1   
    19    9   42 1   
    20    9   43 1   
    21   10   11 1   
    22   10   12 2   
    23   11   44 1   
    24   11   45 1   
    25   11   46 1   
    26   12   13 1   
    27   12   47 1   
    28   13   14 1   
    29   13   15 1   
    30   13   48 1   
    31   14   24 1   
    32   15   16 1   
    33   15   21 1   
    34   16   17 1   
    35   16   49 1   
    36   16   50 1   
    37   17   18 1   
    38   18   19 1   
    39   18   20 2   
    40   19   51 1   
    41   19   52 1   
    42   19   53 1   
    43   21   22 1   
    44   21   23 1   
    45   21   27 1   
    46   22   54 1   
    47   22   55 1   
    48   22   56 1   
    49   23   24 1   
    50   23   25 1   
    51   23   26 1   
    52   24   28 1   
    53   24   57 1   
    54   25   26 1   
    55   25   58 1   
    56   25   59 1   
    57   27   28 1   
    58   27   30 1   
    59   27   60 1   
    60   28   29 1   
    61   28   61 1   
    62   29   62 1   
    63   30   31 1   
    64   31   32 2   
    65   31   33 1   
    66   33   63 1   
    67   33   64 1   
    68   33   65 1   
@<TRIPOS>SUBSTRUCTURE
     1 ZBA         1 TEMP              0 ****  ****    0 ROOT
