@<TRIPOS>MOLECULE
ZBC
   27    27     1     0     0
SMALL
bcc


@<TRIPOS>ATOM
      1 P           4.6670    1.2270    0.3780 p5        1 ZBC      1.307900
      2 C5         -2.6300    0.0090   -0.5950 cc        1 ZBC     -0.407900
      3 C4         -3.5770   -0.8460    0.0920 cc        1 ZBC      0.750500
      4 N4         -4.9460   -0.6060   -0.0500 nh        1 ZBC     -0.904800
      5 N3         -3.1770   -1.8440    0.9000 nd        1 ZBC     -0.751100
      6 C2         -1.8060   -2.0320    1.1220 c         1 ZBC      0.815900
      7 O2         -1.3850   -2.9390    1.8700 o         1 ZBC     -0.634500
      8 C6         -1.2710   -0.2070   -0.3650 cd        1 ZBC      0.143600
      9 N1         -0.8370   -1.1780    0.4700 n         1 ZBC     -0.316000
     10 C1G         0.5810   -1.4440    0.7040 c3        1 ZBC      0.074000
     11 C2G         1.5640   -0.4450    0.0880 c3        1 ZBC      0.058100
     12 O2G         1.4330   -0.5190   -1.3260 oh        1 ZBC     -0.679800
     13 C3G         3.0170   -0.7930    0.5310 c3        1 ZBC      0.224400
     14 O3G         3.9040   -0.2080   -0.3250 os        1 ZBC     -0.557200
     15 O1P         3.4000    1.9870    0.6740 o         1 ZBC     -0.924500
     16 O2P         5.3550    0.6340    1.5740 o         1 ZBC     -0.924500
     17 OXT         5.5230    1.7180   -0.7500 o         1 ZBC     -0.924500
     18 H6         -0.4940    0.4140   -0.8770 h4        1 ZBC      0.232000
     19 H41N       -5.2110   -0.1460   -0.8890 hn        1 ZBC      0.408300
     20 H42N       -5.5610   -1.3250    0.2550 hn        1 ZBC      0.408300
     21 H1G1        0.7380   -1.4560    1.8200 h1        1 ZBC      0.068700
     22 H1G2        0.7880   -2.4750    0.3000 h1        1 ZBC      0.068700
     23 H2G         1.3490    0.6150    0.4110 h1        1 ZBC      0.098700
     24 HA          2.3080   -0.2830   -1.6850 ho        1 ZBC      0.460000
     25 H3G1        3.1630   -0.4400    1.5890 h1        1 ZBC     -0.002800
     26 H3G2        3.1230   -1.9180    0.4890 h1        1 ZBC     -0.002800
     27 BR5        -3.1630    1.3650   -1.7500 br        1 ZBC     -0.085700
@<TRIPOS>BOND
     1    1   14 1   
     2    1   15 1   
     3    1   16 1   
     4    1   17 1   
     5    2    3 1   
     6    2    8 2   
     7    2   27 1   
     8    3    4 1   
     9    3    5 2   
    10    4   19 1   
    11    4   20 1   
    12    5    6 1   
    13    6    7 2   
    14    6    9 1   
    15    8    9 1   
    16    8   18 1   
    17    9   10 1   
    18   10   11 1   
    19   10   21 1   
    20   10   22 1   
    21   11   12 1   
    22   11   13 1   
    23   11   23 1   
    24   12   24 1   
    25   13   14 1   
    26   13   25 1   
    27   13   26 1   
@<TRIPOS>SUBSTRUCTURE
     1 ZBC         1 TEMP              0 ****  ****    0 ROOT
