@<TRIPOS>MOLECULE
ZBD
   70    72     1     0     0
SMALL
bcc


@<TRIPOS>ATOM
      1 N1          0.9960    0.0950    0.9710 nh        1 ZBD     -0.654900
      2 C7         -0.1870   -0.0390    0.1710 c3        1 ZBD      0.281100
      3 C8         -0.6980   -1.4460    0.0270 ca        1 ZBD     -0.102300
      4 C10        -2.5170   -3.0340    0.2080 ca        1 ZBD     -0.086000
      5 C13         0.1260   -2.4550   -0.4840 ca        1 ZBD     -0.120000
      6 C15        -2.1980   -5.8980   -1.9750 c3        1 ZBD      0.603900
      7 C24         2.2970    0.1670    0.4190 ca        1 ZBD      0.081600
      8 C26         4.6330    0.5610    1.0760 ca        1 ZBD     -0.111000
      9 C28         4.0390    0.1340   -1.2390 ca        1 ZBD     -0.112000
     10 O31         0.7680   -0.8640    3.3330 o         1 ZBD     -0.678800
     11 S5          1.0670    0.3210    2.6080 s6        1 ZBD      1.604800
     12 O30         0.3130    1.4090    3.0460 o         1 ZBD     -0.678800
     13 C25         3.2930    0.4500    1.4320 ca        1 ZBD      0.079600
     14 N6          2.7090    0.5800    2.7130 nh        1 ZBD     -0.663900
     15 C32         3.4600    0.9330    3.8770 c3        1 ZBD      0.240800
     16 C33         4.0690   -0.2350    4.6600 c3        1 ZBD     -0.112400
     17 C34         3.0380   -1.0960    5.3670 c3        1 ZBD     -0.141400
     18 C2          2.7840   -2.3920    4.6470 c         1 ZBD      0.598100
     19 N4          1.4630   -3.0880    4.9320 n4        1 ZBD     -0.581200
     20 C39         0.9490   -2.7860    6.2870 c3        1 ZBD      0.090100
     21 C37         1.5110   -4.5760    4.6540 c3        1 ZBD      0.133500
     22 C40         0.1160   -5.1200    4.3630 c3        1 ZBD     -0.131100
     23 C35         2.1550   -5.3990    5.7700 c3        1 ZBD     -0.104400
     24 C38         3.6370   -5.1280    5.9590 c3        1 ZBD      0.117400
     25 O36         3.7770   -3.8520    6.5740 oh        1 ZBD     -0.655800
     26 O3          3.5310   -2.9350    3.8430 o         1 ZBD     -0.461100
     27 C27         4.9950    0.4020   -0.2670 ca        1 ZBD     -0.112000
     28 C29         2.6850    0.0120   -0.9080 ca        1 ZBD     -0.114000
     29 C12        -0.3640   -3.7480   -0.6410 ca        1 ZBD     -0.086000
     30 C11        -1.6870   -4.0450   -0.2880 ca        1 ZBD     -0.115300
     31 C9         -2.0210   -1.7400    0.3670 ca        1 ZBD     -0.120000
     32 C14        -2.2080   -5.4420   -0.4480 c3        1 ZBD      0.159100
     33 O17        -3.5310   -5.5030    0.0240 oh        1 ZBD     -0.552800
     34 C16        -1.3510   -6.4770    0.4090 c3        1 ZBD      0.603900
     35 F20        -1.1160   -6.0640    1.6950 f         1 ZBD     -0.219467
     36 F19        -1.9890   -7.6820    0.5450 f         1 ZBD     -0.219467
     37 F18        -0.1140   -6.7690   -0.0960 f         1 ZBD     -0.219467
     38 F21        -2.8870   -7.0710   -2.1530 f         1 ZBD     -0.219467
     39 F22        -2.8010   -5.0010   -2.8100 f         1 ZBD     -0.219467
     40 F23        -0.9550   -6.1170   -2.4970 f         1 ZBD     -0.219467
     41 H1          0.0150    0.3710   -0.8640 h1        1 ZBD      0.081700
     42 H2         -0.9900    0.6090    0.6380 h1        1 ZBD      0.081700
     43 H3         -3.5650   -3.2580    0.4700 ha        1 ZBD      0.164500
     44 H4          1.1650   -2.2260   -0.7680 ha        1 ZBD      0.149000
     45 H5          5.4030    0.7710    1.8330 ha        1 ZBD      0.148000
     46 H6          4.3430    0.0160   -2.2920 ha        1 ZBD      0.155000
     47 H7          4.3070    1.6190    3.5760 h1        1 ZBD      0.074200
     48 H8          2.7760    1.5190    4.5610 h1        1 ZBD      0.074200
     49 H9          4.7110   -0.8600    3.9840 hc        1 ZBD      0.084700
     50 H10         4.7430    0.2160    5.4380 hc        1 ZBD      0.084700
     51 H11         2.0810   -0.5200    5.4900 hc        1 ZBD      0.098700
     52 H12         3.4120   -1.3810    6.3920 hc        1 ZBD      0.098700
     53 H13         0.6040   -1.7180    6.3270 hx        1 ZBD      0.099700
     54 H14         0.0740   -3.4550    6.5070 hx        1 ZBD      0.099700
     55 H15         1.7560   -2.9600    7.0490 hx        1 ZBD      0.099700
     56 H16         2.1400   -4.6920    3.7150 hx        1 ZBD      0.117700
     57 H17         0.2180   -6.1620    3.9660 hc        1 ZBD      0.073700
     58 H18        -0.5130   -5.1550    5.2850 hc        1 ZBD      0.073700
     59 H19        -0.4120   -4.5200    3.5800 hc        1 ZBD      0.073700
     60 H20         1.6150   -5.2470    6.7410 hc        1 ZBD      0.085200
     61 H21         2.0390   -6.4810    5.4830 hc        1 ZBD      0.085200
     62 H22         4.1730   -5.1130    4.9700 h1        1 ZBD      0.059200
     63 H23         4.0830   -5.9240    6.6140 h1        1 ZBD      0.059200
     64 H24         4.6710   -3.8070    6.9340 ho        1 ZBD      0.433000
     65 H25         6.0560    0.4950   -0.5490 ha        1 ZBD      0.154000
     66 H26         1.9440   -0.1990   -1.6940 ha        1 ZBD      0.153000
     67 H27         0.2870   -4.5380   -1.0520 ha        1 ZBD      0.164500
     68 H28        -2.6850   -0.9510    0.7550 ha        1 ZBD      0.149000
     69 H29        -3.8740   -6.3960   -0.1550 ho        1 ZBD      0.448000
     70 H41         0.7950   -2.6820    4.2430 hn        1 ZBD      0.496800
@<TRIPOS>BOND
     1    1    2 1   
     2    1    7 1   
     3    1   11 1   
     4    2    3 1   
     5    2   41 1   
     6    2   42 1   
     7    3    5 ar  
     8    3   31 ar  
     9    4   30 ar  
    10    4   31 ar  
    11    4   43 1   
    12    5   29 ar  
    13    5   44 1   
    14    6   32 1   
    15    6   38 1   
    16    6   39 1   
    17    6   40 1   
    18    7   13 ar  
    19    7   28 ar  
    20    8   13 ar  
    21    8   27 ar  
    22    8   45 1   
    23    9   27 ar  
    24    9   28 ar  
    25    9   46 1   
    26   10   11 2   
    27   11   12 2   
    28   11   14 1   
    29   13   14 1   
    30   14   15 1   
    31   15   16 1   
    32   15   47 1   
    33   15   48 1   
    34   16   17 1   
    35   16   49 1   
    36   16   50 1   
    37   17   18 1   
    38   17   51 1   
    39   17   52 1   
    40   18   19 1   
    41   18   26 2   
    42   19   20 1   
    43   19   21 1   
    44   19   70 1   
    45   20   53 1   
    46   20   54 1   
    47   20   55 1   
    48   21   22 1   
    49   21   23 1   
    50   21   56 1   
    51   22   57 1   
    52   22   58 1   
    53   22   59 1   
    54   23   24 1   
    55   23   60 1   
    56   23   61 1   
    57   24   25 1   
    58   24   62 1   
    59   24   63 1   
    60   25   64 1   
    61   27   65 1   
    62   28   66 1   
    63   29   30 ar  
    64   29   67 1   
    65   30   32 1   
    66   31   68 1   
    67   32   33 1   
    68   32   34 1   
    69   33   69 1   
    70   34   35 1   
    71   34   36 1   
    72   34   37 1   
@<TRIPOS>SUBSTRUCTURE
     1 ZBD         1 TEMP              0 ****  ****    0 ROOT
