@<TRIPOS>MOLECULE
ZBD
   70    72     1     0     0
SMALL
bcc


@<TRIPOS>ATOM
      1 N1          0.8040    0.1150    1.0560 nh        1 ZBD     -0.654900
      2 C7         -0.3540   -0.0840    0.2320 c3        1 ZBD      0.281100
      3 C8         -0.7510   -1.5220    0.0360 ca        1 ZBD     -0.102300
      4 C10        -2.4430   -3.2510    0.1370 ca        1 ZBD     -0.085500
      5 C13         0.1560   -2.4470   -0.4920 ca        1 ZBD     -0.120000
      6 C15        -1.8700   -6.0090   -2.1290 c3        1 ZBD      0.603900
      7 C24         2.1020    0.3060    0.5280 ca        1 ZBD      0.081600
      8 C26         4.3910    0.8590    1.2350 ca        1 ZBD     -0.111000
      9 C28         3.8650    0.4630   -1.1020 ca        1 ZBD     -0.112000
     10 O31         0.6190   -0.9350    3.3820 o         1 ZBD     -0.678800
     11 S5          0.8340    0.2920    2.7000 s6        1 ZBD      1.604800
     12 O30        -0.0090    1.3030    3.1600 o         1 ZBD     -0.678800
     13 C25         3.0590    0.6320    1.5650 ca        1 ZBD      0.079600
     14 N6          2.4490    0.6750    2.8400 nh        1 ZBD     -0.663900
     15 C32         3.1540    1.0480    4.0270 c3        1 ZBD      0.240800
     16 C33         3.8410   -0.0950    4.7830 c3        1 ZBD     -0.112400
     17 C34         2.8710   -1.0550    5.4450 c3        1 ZBD     -0.141400
     18 C2          2.7300   -2.3440    4.6810 c         1 ZBD      0.598100
     19 N4          1.4640   -3.1490    4.9220 nx        1 ZBD     -0.581200
     20 C39         0.9090   -2.9320    6.2770 c3        1 ZBD      0.090100
     21 C37         1.6330   -4.6190    4.5980 c3        1 ZBD      0.133500
     22 C40         0.2880   -5.2600    4.2670 c3        1 ZBD     -0.131100
     23 C35         2.3240   -5.4250    5.6980 c3        1 ZBD     -0.104400
     24 C38         3.7770   -5.0460    5.9200 c3        1 ZBD      0.117400
     25 O36         3.8080   -3.7840    6.5770 oh        1 ZBD     -0.655800
     26 O3          3.5280   -2.8000    3.8730 o         1 ZBD     -0.461100
     27 C27         4.7830    0.7730   -0.1060 ca        1 ZBD     -0.112000
     28 C29         2.5200    0.2250   -0.7970 ca        1 ZBD     -0.114000
     29 C12        -0.2280   -3.7680   -0.6980 ca        1 ZBD     -0.085500
     30 C11        -1.5290   -4.1780   -0.3770 ca        1 ZBD     -0.115300
     31 C9         -2.0520   -1.9290    0.3450 ca        1 ZBD     -0.120000
     32 C14        -1.9360   -5.6060   -0.5890 c3        1 ZBD      0.159100
     33 O17        -3.2580   -5.7850   -0.1410 oh        1 ZBD     -0.552800
     34 C16        -1.0130   -6.5980    0.2490 c3        1 ZBD      0.603900
     35 F20        -0.8300   -6.2100    1.5510 f         1 ZBD     -0.219467
     36 F19        -1.5570   -7.8530    0.3370 f         1 ZBD     -0.219467
     37 F18         0.2490   -6.7770   -0.2440 f         1 ZBD     -0.219467
     38 F21        -2.4620   -7.2260   -2.3550 f         1 ZBD     -0.219467
     39 F22        -2.5290   -5.1350   -2.9460 f         1 ZBD     -0.219467
     40 F23        -0.6060   -6.1140   -2.6370 f         1 ZBD     -0.219467
     41 H1         -0.1700    0.3730   -0.7850 h1        1 ZBD      0.081700
     42 H2         -1.2110    0.4830    0.7060 h1        1 ZBD      0.081700
     43 H3         -3.4740   -3.5650    0.3750 ha        1 ZBD      0.164500
     44 H4          1.1790   -2.1280   -0.7520 ha        1 ZBD      0.149000
     45 H5          5.1310    1.1040    2.0100 ha        1 ZBD      0.148000
     46 H6          4.1920    0.4030   -2.1520 ha        1 ZBD      0.155000
     47 H7          3.9480    1.8070    3.7620 h1        1 ZBD      0.074200
     48 H8          2.4160    1.5560    4.7170 h1        1 ZBD      0.074200
     49 H9          4.5400   -0.6450    4.0980 hc        1 ZBD      0.084700
     50 H10         4.4670    0.3830    5.5850 hc        1 ZBD      0.084700
     51 H11         3.2530   -1.3440    6.4660 hc        1 ZBD      0.098700
     52 H12         1.8710   -0.5600    5.5710 hc        1 ZBD      0.098700
     53 H13         1.7170   -3.0680    7.0460 hx        1 ZBD      0.099700
     54 H14         0.4810   -1.8970    6.3440 hx        1 ZBD      0.099700
     55 H15         0.0870   -3.6740    6.4620 hx        1 ZBD      0.099700
     56 H16         2.2810   -4.6540    3.6660 hx        1 ZBD      0.117700
     57 H17        -0.3490   -5.3740    5.1760 hc        1 ZBD      0.073700
     58 H18         0.4780   -6.2780    3.8390 hc        1 ZBD      0.073700
     59 H19        -0.2740   -4.6780    3.4950 hc        1 ZBD      0.073700
     60 H20         2.2970   -6.5030    5.3750 hc        1 ZBD      0.085200
     61 H21         1.7590   -5.3480    6.6640 hc        1 ZBD      0.085200
     62 H22         4.3240   -4.9570    4.9410 h1        1 ZBD      0.059200
     63 H23         4.2750   -5.8260    6.5560 h1        1 ZBD      0.059200
     64 H24         4.6910   -3.6810    6.9530 ho        1 ZBD      0.433000
     65 H25         5.8370    0.9570   -0.3680 ha        1 ZBD      0.154000
     66 H26         1.8090   -0.0170   -1.6020 ha        1 ZBD      0.153000
     67 H27         0.4890   -4.4910   -1.1230 ha        1 ZBD      0.164500
     68 H28        -2.7810   -1.2070    0.7460 ha        1 ZBD      0.149000
     69 H29        -3.5270   -6.6960   -0.3530 ho        1 ZBD      0.448000
     70 H41         0.7750   -2.7740    4.2350 hn        1 ZBD      0.496800
@<TRIPOS>BOND
     1    1    2 1   
     2    1    7 1   
     3    1   11 1   
     4    2    3 1   
     5    2   41 1   
     6    2   42 1   
     7    3    5 ar  
     8    3   31 ar  
     9    4   30 ar  
    10    4   31 ar  
    11    4   43 1   
    12    5   29 ar  
    13    5   44 1   
    14    6   32 1   
    15    6   38 1   
    16    6   39 1   
    17    6   40 1   
    18    7   13 ar  
    19    7   28 ar  
    20    8   13 ar  
    21    8   27 ar  
    22    8   45 1   
    23    9   27 ar  
    24    9   28 ar  
    25    9   46 1   
    26   10   11 2   
    27   11   12 2   
    28   11   14 1   
    29   13   14 1   
    30   14   15 1   
    31   15   16 1   
    32   15   47 1   
    33   15   48 1   
    34   16   17 1   
    35   16   49 1   
    36   16   50 1   
    37   17   18 1   
    38   17   51 1   
    39   17   52 1   
    40   18   19 1   
    41   18   26 2   
    42   19   20 1   
    43   19   21 1   
    44   19   70 1   
    45   20   53 1   
    46   20   54 1   
    47   20   55 1   
    48   21   22 1   
    49   21   23 1   
    50   21   56 1   
    51   22   57 1   
    52   22   58 1   
    53   22   59 1   
    54   23   24 1   
    55   23   60 1   
    56   23   61 1   
    57   24   25 1   
    58   24   62 1   
    59   24   63 1   
    60   25   64 1   
    61   27   65 1   
    62   28   66 1   
    63   29   30 ar  
    64   29   67 1   
    65   30   32 1   
    66   31   68 1   
    67   32   33 1   
    68   32   34 1   
    69   33   69 1   
    70   34   35 1   
    71   34   36 1   
    72   34   37 1   
@<TRIPOS>SUBSTRUCTURE
     1 ZBD         1 TEMP              0 ****  ****    0 ROOT
