@<TRIPOS>MOLECULE
ZBF
   57    57     1     0     0
SMALL
bcc


@<TRIPOS>ATOM
      1 O7          1.2600    0.6340   -1.0080 o         1 ZBF     -0.643100
      2 C           1.9030   -0.4350   -0.9090 c         1 ZBF      0.671100
      3 N           2.1440   -1.0000    0.3700 n         1 ZBF     -0.181500
      4 C12         2.2420   -0.1190    1.5120 ca        1 ZBF     -0.021400
      5 C19         3.3810   -0.1290    2.3410 ca        1 ZBF     -0.127000
      6 C18         3.4140    0.6720    3.4790 ca        1 ZBF     -0.122000
      7 C17         2.3360    1.4910    3.8050 ca        1 ZBF     -0.101000
      8 C14         1.2000    1.5130    2.9800 ca        1 ZBF      0.037000
      9 C15         0.1050    2.3370    3.3040 cg        1 ZBF     -0.145000
     10 C16        -0.8260    3.0350    3.5880 c1        1 ZBF     -0.108500
     11 C13         1.1490    0.7060    1.8330 ca        1 ZBF     -0.089000
     12 O           3.0740   -1.9600    0.3540 oh        1 ZBF     -0.422100
     13 C1          2.3300   -1.1930   -2.1500 c3        1 ZBF     -0.183400
     14 C2          1.2240   -1.2550   -3.1840 c3        1 ZBF     -0.094400
     15 C3          1.3810   -0.2200   -4.3080 c3        1 ZBF      0.056500
     16 C9          0.3300   -0.5560   -5.3930 c         1 ZBF      0.647100
     17 O6         -0.7530    0.0630   -5.4190 o         1 ZBF     -0.595100
     18 N3          0.6750   -1.5200   -6.3160 n         1 ZBF     -0.501900
     19 C10        -0.3380   -2.1970   -7.0780 c3        1 ZBF     -0.022000
     20 C11        -0.7810   -3.5110   -6.4530 c         1 ZBF      0.597100
     21 O5         -1.7510   -4.2380   -7.0650 oh        1 ZBF     -0.548100
     22 O4         -0.3370   -4.0090   -5.4180 o         1 ZBF     -0.496000
     23 N1          1.1830    1.1820   -3.8140 n4        1 ZBF     -0.656800
     24 C4          1.9210    2.2130   -4.6270 c         1 ZBF      0.595100
     25 O3          2.1580    1.9580   -5.8000 o         1 ZBF     -0.450100
     26 C5          2.2470    3.5000   -3.9100 c3        1 ZBF     -0.125400
     27 C6          3.5880    4.0500   -4.3670 c3        1 ZBF     -0.080400
     28 C7          4.7370    3.5200   -3.5150 c3        1 ZBF     -0.058500
     29 N2          6.0400    4.1680   -3.8640 n4        1 ZBF     -0.831600
     30 C8          4.9020    1.9410   -3.6340 c         1 ZBF      0.951600
     31 O2          6.0650    1.5140   -3.7830 o         1 ZBF     -0.782800
     32 O1          3.8410    1.2730   -3.5310 o         1 ZBF     -0.782800
     33 H1          4.2410   -0.7730    2.0970 ha        1 ZBF      0.154000
     34 H2          4.3030    0.6540    4.1280 ha        1 ZBF      0.148000
     35 H3          2.3690    2.1180    4.7090 ha        1 ZBF      0.152000
     36 H4         -1.6510    3.6510    3.8450 ha        1 ZBF      0.174500
     37 H5          0.2560    0.7330    1.1890 ha        1 ZBF      0.160000
     38 H6          2.6630   -2.7210    0.8170 ho        1 ZBF      0.442000
     39 H7          2.6450   -2.2410   -1.8900 hc        1 ZBF      0.120700
     40 H8          3.2440   -0.6650   -2.5520 hc        1 ZBF      0.120700
     41 H9          1.2380   -2.2720   -3.6690 hc        1 ZBF      0.095200
     42 H10         0.2190   -1.1400   -2.6950 hc        1 ZBF      0.095200
     43 H11         2.4380   -0.2650   -4.7220 hx        1 ZBF      0.155700
     44 H12         1.5060   -2.0460   -6.1460 hn        1 ZBF      0.328500
     45 H13         0.0820   -2.4170   -8.1030 h1        1 ZBF      0.108200
     46 H14        -1.2400   -1.5260   -7.1900 h1        1 ZBF      0.108200
     47 H16         1.5590    1.2270   -2.8440 hn        1 ZBF      0.488300
     48 H17         2.2510    3.3600   -2.7950 hc        1 ZBF      0.101700
     49 H18         1.4350    4.2350   -4.1710 hc        1 ZBF      0.101700
     50 H19         3.7550    3.7860   -5.4480 hc        1 ZBF      0.076200
     51 H20         3.5410    5.1710   -4.2900 hc        1 ZBF      0.076200
     52 H21         4.5380    3.7310   -2.4250 hx        1 ZBF      0.104700
     53 H22         6.0380    4.4740   -4.8380 hn        1 ZBF      0.460133
     54 H23         6.7790    3.4380   -3.7510 hn        1 ZBF      0.460133
     55 H32        -2.0590   -3.7840   -7.8640 ho        1 ZBF      0.436000
     56 H121        0.1770    1.3980   -3.8080 hn        1 ZBF      0.488300
     57 H231        6.2360    4.9610   -3.2560 hn        1 ZBF      0.460133
@<TRIPOS>BOND
     1    1    2 2   
     2    2    3 1   
     3    2   13 1   
     4    3    4 1   
     5    3   12 1   
     6    4    5 ar  
     7    4   11 ar  
     8    5    6 ar  
     9    5   33 1   
    10    6    7 ar  
    11    6   34 1   
    12    7    8 ar  
    13    7   35 1   
    14    8    9 1   
    15    8   11 ar  
    16    9   10 3   
    17   10   36 1   
    18   11   37 1   
    19   12   38 1   
    20   13   14 1   
    21   13   39 1   
    22   13   40 1   
    23   14   15 1   
    24   14   41 1   
    25   14   42 1   
    26   15   16 1   
    27   15   23 1   
    28   15   43 1   
    29   16   17 2   
    30   16   18 1   
    31   18   19 1   
    32   18   44 1   
    33   19   20 1   
    34   19   45 1   
    35   19   46 1   
    36   20   21 1   
    37   20   22 2   
    38   21   55 1   
    39   23   24 1   
    40   23   47 1   
    41   23   56 1   
    42   24   25 2   
    43   24   26 1   
    44   26   27 1   
    45   26   48 1   
    46   26   49 1   
    47   27   28 1   
    48   27   50 1   
    49   27   51 1   
    50   28   29 1   
    51   28   30 1   
    52   28   52 1   
    53   29   53 1   
    54   29   54 1   
    55   29   57 1   
    56   30   31 1   
    57   30   32 1   
@<TRIPOS>SUBSTRUCTURE
     1 ZBF         1 TEMP              0 ****  ****    0 ROOT
