@<TRIPOS>MOLECULE
ZBR
   21    21     1     0     0
SMALL
bcc


@<TRIPOS>ATOM
      1 C1         -1.4070    0.0050   -0.3860 ca        1 ZBR     -0.088300
      2 C2         -0.8120   -1.2060   -0.0180 ca        1 ZBR     -0.089000
      3 C3          0.3810   -1.2130    0.7120 ca        1 ZBR     -0.088300
      4 C4          0.9800   -0.0020    1.0740 ca        1 ZBR     -0.089000
      5 C5          0.3880    1.2130    0.7120 ca        1 ZBR     -0.088300
      6 C6         -0.8050    1.2130   -0.0180 ca        1 ZBR     -0.089000
      7 C7         -2.6580    0.0090   -1.1740 c3        1 ZBR      0.034633
      8 C8          0.9980   -2.4960    1.1140 c3        1 ZBR      0.034633
      9 C9          1.0130    2.4930    1.1130 c3        1 ZBR      0.034633
     10 BR1         2.2100   -3.1920   -0.2210 br        1 ZBR     -0.165067
     11 BR2        -4.2390    0.0140   -0.0610 br        1 ZBR     -0.165067
     12 BR3         2.2290    3.1810   -0.2210 br        1 ZBR     -0.165067
     13 H2         -1.2840   -2.1580   -0.3060 ha        1 ZBR      0.143000
     14 H4          1.9230   -0.0040    1.6430 ha        1 ZBR      0.143000
     15 H6         -1.2710    2.1690   -0.3060 ha        1 ZBR      0.143000
     16 H7         -2.7280    0.9190   -1.8160 h1        1 ZBR      0.082700
     17 H7A        -2.7340   -0.9000   -1.8160 h1        1 ZBR      0.082700
     18 H8          1.5980   -2.3810    2.0470 h1        1 ZBR      0.082700
     19 H8A         0.2230   -3.2840    1.2700 h1        1 ZBR      0.082700
     20 H9          0.2430    3.2850    1.2700 h1        1 ZBR      0.082700
     21 H9A         1.6130    2.3740    2.0470 h1        1 ZBR      0.082700
@<TRIPOS>BOND
     1    1    2 ar  
     2    1    6 ar  
     3    1    7 1   
     4    2    3 ar  
     5    2   13 1   
     6    3    4 ar  
     7    3    8 1   
     8    4    5 ar  
     9    4   14 1   
    10    5    6 ar  
    11    5    9 1   
    12    6   15 1   
    13    7   11 1   
    14    7   16 1   
    15    7   17 1   
    16    8   10 1   
    17    8   18 1   
    18    8   19 1   
    19    9   12 1   
    20    9   20 1   
    21    9   21 1   
@<TRIPOS>SUBSTRUCTURE
     1 ZBR         1 TEMP              0 ****  ****    0 ROOT
