@<TRIPOS>MOLECULE
ZBT
   22    22     1     0     0
SMALL
bcc


@<TRIPOS>ATOM
      1 S1          1.2890   -0.7910   -0.9090 ss        1 ZBT     -0.304300
      2 C2          0.1530    0.0820    0.1080 c2        1 ZBT      0.459200
      3 N3          0.6290    1.0670    0.8010 n2        1 ZBT     -0.575900
      4 C4          2.0500    1.2680    0.6030 c3        1 ZBT      0.089800
      5 C5          2.6430    0.2520   -0.3910 c3        1 ZBT     -0.040300
      6 C6         -1.2720   -0.3840    0.0910 c3        1 ZBT     -0.087000
      7 C7         -2.1890    0.7450   -0.3650 c3        1 ZBT     -0.073400
      8 C8         -3.5450    0.2370   -0.7830 c3        1 ZBT     -0.094100
      9 C9         -1.6650   -0.9080    1.4580 c3        1 ZBT     -0.088100
     10 H4          2.2050    2.3180    0.2280 h1        1 ZBT      0.076700
     11 H5          3.4320   -0.3690    0.0900 h1        1 ZBT      0.078700
     12 H6         -1.3430   -1.2280   -0.6540 hc        1 ZBT      0.064700
     13 H7         -2.2990    1.4900    0.4660 hc        1 ZBT      0.051700
     14 H7A        -1.7120    1.2780   -1.2300 hc        1 ZBT      0.051700
     15 H8         -4.1760    1.0870   -1.1400 hc        1 ZBT      0.035033
     16 H8A        -3.4530   -0.5050   -1.6130 hc        1 ZBT      0.035033
     17 H8B        -4.0690   -0.2550    0.0720 hc        1 ZBT      0.035033
     18 H9         -2.7010   -1.3240    1.4200 hc        1 ZBT      0.044033
     19 H9A        -0.9680   -1.7190    1.7800 hc        1 ZBT      0.044033
     20 H9B        -1.6370   -0.0910    2.2180 hc        1 ZBT      0.044033
     21 H12         2.5580    1.1800    1.6020 h1        1 ZBT      0.076700
     22 H13         3.0820    0.7630   -1.2770 h1        1 ZBT      0.078700
@<TRIPOS>BOND
     1    1    2 1   
     2    1    5 1   
     3    2    3 2   
     4    2    6 1   
     5    3    4 1   
     6    4    5 1   
     7    4   10 1   
     8    4   21 1   
     9    5   11 1   
    10    5   22 1   
    11    6    7 1   
    12    6    9 1   
    13    6   12 1   
    14    7    8 1   
    15    7   13 1   
    16    7   14 1   
    17    8   15 1   
    18    8   16 1   
    19    8   17 1   
    20    9   18 1   
    21    9   19 1   
    22    9   20 1   
@<TRIPOS>SUBSTRUCTURE
     1 ZBT         1 TEMP              0 ****  ****    0 ROOT
