@<TRIPOS>MOLECULE
ZBT
   22    22     1     0     0
SMALL
bcc


@<TRIPOS>ATOM
      1 S1          0.2220   -0.4940   -0.0470 ss        1 ZBT     -0.304300
      2 C2          1.8650    0.1070    0.1120 c2        1 ZBT      0.459200
      3 N3          2.2520    0.4420    1.3020 n2        1 ZBT     -0.575900
      4 C4          1.2260    0.2520    2.3070 c3        1 ZBT      0.089800
      5 C5         -0.0770   -0.3040    1.7030 c3        1 ZBT     -0.040300
      6 C6          2.6850    0.1860   -1.1410 c3        1 ZBT     -0.087000
      7 C7          3.9380   -0.6720   -1.0050 c3        1 ZBT     -0.073400
      8 C8          4.5780   -0.9520   -2.3400 c3        1 ZBT     -0.094100
      9 C9          3.0260    1.6300   -1.4520 c3        1 ZBT     -0.088100
     10 H4          1.0340    1.2440    2.8030 h1        1 ZBT      0.076700
     11 H5         -0.3400   -1.2900    2.1470 h1        1 ZBT      0.078700
     12 H6          2.0570   -0.2270   -1.9830 hc        1 ZBT      0.064700
     13 H7          4.6690   -0.1530   -0.3310 hc        1 ZBT      0.051700
     14 H7A         3.6650   -1.6440   -0.5150 hc        1 ZBT      0.051700
     15 H8          3.8620   -1.4710   -3.0230 hc        1 ZBT      0.035033
     16 H8A         4.9090   -0.0060   -2.8320 hc        1 ZBT      0.035033
     17 H8B         5.4720   -1.6080   -2.2030 hc        1 ZBT      0.035033
     18 H9          3.5690    1.6890   -2.4260 hc        1 ZBT      0.044033
     19 H9A         3.6750    2.0630   -0.6540 hc        1 ZBT      0.044033
     20 H9B         2.0950    2.2430   -1.5270 hc        1 ZBT      0.044033
     21 H12         1.6260   -0.4530    3.0870 h1        1 ZBT      0.076700
     22 H13        -0.9280    0.3970    1.8640 h1        1 ZBT      0.078700
@<TRIPOS>BOND
     1    1    2 1   
     2    1    5 1   
     3    2    3 2   
     4    2    6 1   
     5    3    4 1   
     6    4    5 1   
     7    4   10 1   
     8    4   21 1   
     9    5   11 1   
    10    5   22 1   
    11    6    7 1   
    12    6    9 1   
    13    6   12 1   
    14    7    8 1   
    15    7   13 1   
    16    7   14 1   
    17    8   15 1   
    18    8   16 1   
    19    8   17 1   
    20    9   18 1   
    21    9   19 1   
    22    9   20 1   
@<TRIPOS>SUBSTRUCTURE
     1 ZBT         1 TEMP              0 ****  ****    0 ROOT
