@<TRIPOS>MOLECULE
ZBT
   22    22     1     0     0
SMALL
bcc


@<TRIPOS>ATOM
      1 S1          0.2040   -0.4200   -0.0670 ss        1 ZBT     -0.304300
      2 C2          1.8670    0.1160    0.1110 c2        1 ZBT      0.459200
      3 N3          2.2670    0.3900    1.3120 n2        1 ZBT     -0.575900
      4 C4          1.2370    0.1980    2.3120 c3        1 ZBT      0.089800
      5 C5         -0.0860   -0.2870    1.6910 c3        1 ZBT     -0.040300
      6 C6          2.6870    0.2140   -1.1410 c3        1 ZBT     -0.087000
      7 C7          3.9100   -0.6910   -1.0410 c3        1 ZBT     -0.073400
      8 C8          4.5370   -0.9430   -2.3880 c3        1 ZBT     -0.094100
      9 C9          3.0770    1.6560   -1.3980 c3        1 ZBT     -0.088100
     10 H4          1.0820    1.1760    2.8460 h1        1 ZBT      0.076700
     11 H5         -0.3830   -1.2800    2.0970 h1        1 ZBT      0.078700
     12 H6          2.0430   -0.1450   -1.9960 hc        1 ZBT      0.064700
     13 H7          3.6040   -1.6720   -0.5880 hc        1 ZBT      0.051700
     14 H7A         4.6590   -0.2240   -0.3500 hc        1 ZBT      0.051700
     15 H8          5.4090   -1.6330   -2.2790 hc        1 ZBT      0.035033
     16 H8A         3.8030   -1.4100   -3.0880 hc        1 ZBT      0.035033
     17 H8B         4.9000    0.0100   -2.8450 hc        1 ZBT      0.035033
     18 H9          3.7410    2.0360   -0.5860 hc        1 ZBT      0.044033
     19 H9A         3.6210    1.7330   -2.3710 hc        1 ZBT      0.044033
     20 H9B         2.1680    2.3030   -1.4470 hc        1 ZBT      0.044033
     21 H12         1.6140   -0.5500    3.0630 h1        1 ZBT      0.076700
     22 H13        -0.9110    0.4360    1.8810 h1        1 ZBT      0.078700
@<TRIPOS>BOND
     1    1    2 1   
     2    1    5 1   
     3    2    3 2   
     4    2    6 1   
     5    3    4 1   
     6    4    5 1   
     7    4   10 1   
     8    4   21 1   
     9    5   11 1   
    10    5   22 1   
    11    6    7 1   
    12    6    9 1   
    13    6   12 1   
    14    7    8 1   
    15    7   13 1   
    16    7   14 1   
    17    8   15 1   
    18    8   16 1   
    19    8   17 1   
    20    9   18 1   
    21    9   19 1   
    22    9   20 1   
@<TRIPOS>SUBSTRUCTURE
     1 ZBT         1 TEMP              0 ****  ****    0 ROOT
