@<TRIPOS>MOLECULE
ZBU
   26    25     1     0     0
SMALL
bcc


@<TRIPOS>ATOM
      1 O1P        -2.5030   -3.6550    2.9240 o         1 ZBU     -0.923833
      2 P          -2.7110   -3.6430    1.4280 p5        1 ZBU      1.307900
      3 O2P        -1.9120   -4.7570    0.8000 o         1 ZBU     -0.923833
      4 O3G        -2.2360   -2.2640    0.8440 os        1 ZBU     -0.554200
      5 C3G        -0.8950   -1.8940    1.0140 c3        1 ZBU      0.225400
      6 C2G        -0.6480   -0.5740    0.3240 c3        1 ZBU      0.057100
      7 O2G        -1.4510    0.4160    0.9070 oh        1 ZBU     -0.680800
      8 C1G         0.8190   -0.1910    0.4740 c3        1 ZBU      0.087000
      9 N1          1.0940    0.9920   -0.3160 n         1 ZBU     -0.325000
     10 C2          1.2000    2.2960    0.3360 c         1 ZBU      0.753100
     11 O2          0.9850    2.3970    1.5230 o         1 ZBU     -0.620100
     12 N3          1.5880    3.4820   -0.4430 n         1 ZBU     -0.594500
     13 C6          1.3610    0.8700   -1.7080 c2        1 ZBU      0.078500
     14 C5          1.7780    2.0500   -2.4850 c1        1 ZBU     -0.362900
     15 BR5         2.3390    1.8470   -4.3040 br        1 ZBU      0.073000
     16 C4          1.8840    3.3590   -1.8250 c2        1 ZBU      0.708300
     17 O4          2.2300    4.3400   -2.4660 o         1 ZBU     -0.650300
     18 O3P        -4.1750   -3.8410    1.1230 o         1 ZBU     -0.923833
     19 H3G1       -0.3130   -2.5820    0.6230 h1        1 ZBU     -0.003300
     20 H3G2       -0.7000   -1.8040    1.9680 h1        1 ZBU     -0.003300
     21 H2G        -0.8670   -0.6550   -0.6210 h1        1 ZBU      0.105700
     22 HA         -2.2310    0.4610    0.4730 ho        1 ZBU      0.462000
     23 H1G1        1.3820   -0.9300    0.1610 h1        1 ZBU      0.065700
     24 H1G2        1.0130   -0.0090    1.4140 h1        1 ZBU      0.065700
     25 H6          1.3170   -0.0080   -2.1380 h4        1 ZBU      0.240000
     26 H3          1.6540    4.2990   -0.0310 hn        1 ZBU      0.333500
@<TRIPOS>BOND
     1    1    2 1   
     2    2    3 1   
     3    2    4 1   
     4    2   18 1   
     5    4    5 1   
     6    5    6 1   
     7    5   19 1   
     8    5   20 1   
     9    6    7 1   
    10    6    8 1   
    11    6   21 1   
    12    7   22 1   
    13    8    9 1   
    14    8   23 1   
    15    8   24 1   
    16    9   10 1   
    17    9   13 1   
    18   10   11 2   
    19   10   12 1   
    20   12   16 1   
    21   12   26 1   
    22   13   14 2   
    23   13   25 1   
    24   14   16 2   
    25   16   17 1   
@<TRIPOS>SUBSTRUCTURE
     1 ZBU         1 TEMP              0 ****  ****    0 ROOT
