@<TRIPOS>MOLECULE
ZBU
   26    26     1     0     0
SMALL
bcc


@<TRIPOS>ATOM
      1 O1P         4.0190    2.6470    0.4640 o         1 ZBU     -0.919500
      2 P           3.2640    1.4440    0.9270 p5        1 ZBU      1.335900
      3 O2P         1.7570    1.5850    1.0900 o         1 ZBU     -0.919500
      4 O3G         3.2660    0.4010   -0.4610 os        1 ZBU     -0.562200
      5 C3G         3.1730   -0.9400   -0.2140 c3        1 ZBU      0.194400
      6 C2G         1.7280   -1.4630   -0.4540 c3        1 ZBU      0.068100
      7 O2G         1.7290   -2.8470   -0.7800 oh        1 ZBU     -0.628800
      8 C1G         0.8810   -1.1950    0.8030 c3        1 ZBU      0.011000
      9 N1         -0.5040   -0.8250    0.5420 n         1 ZBU     -0.309000
     10 C2         -1.5140   -1.8150    0.5520 c         1 ZBU      0.786500
     11 O2         -1.3170   -3.0020    0.9090 o         1 ZBU     -0.678500
     12 N3         -2.8160   -1.4360    0.1770 n         1 ZBU     -0.599500
     13 C6         -0.8100    0.4770    0.2330 cc        1 ZBU      0.130600
     14 C5         -2.0930    0.8590   -0.1170 cd        1 ZBU     -0.337500
     15 BR5        -2.4560    2.6400   -0.5100 br        1 ZBU     -0.068700
     16 C4         -3.1680   -0.1200   -0.1800 c         1 ZBU      0.735700
     17 O4         -4.3600    0.0700   -0.5070 o         1 ZBU     -0.690500
     18 O3P         3.8740    0.5660    1.9810 o         1 ZBU     -0.919500
     19 H3G1        3.8330   -1.5020   -0.9390 h1        1 ZBU      0.008700
     20 H3G2        3.4900   -1.1890    0.8400 h1        1 ZBU      0.008700
     21 H2G         1.3030   -0.9590   -1.3640 h1        1 ZBU      0.073700
     22 HA          2.2450   -3.2880   -0.0960 ho        1 ZBU      0.382000
     23 H1G1        0.8810   -2.1050    1.4620 h1        1 ZBU      0.125700
     24 H1G2        1.3660   -0.2970    1.3470 h1        1 ZBU      0.125700
     25 H6          0.0780    1.2040    0.3240 h4        1 ZBU      0.325000
     26 H3         -3.5110   -2.1470    0.1670 hn        1 ZBU      0.322500
@<TRIPOS>BOND
     1    1    2 1   
     2    2    3 1   
     3    2    4 1   
     4    2   18 1   
     5    4    5 1   
     6    5    6 1   
     7    5   19 1   
     8    5   20 1   
     9    6    7 1   
    10    6    8 1   
    11    6   21 1   
    12    7   22 1   
    13    8    9 1   
    14    8   23 1   
    15    8   24 1   
    16    9   10 1   
    17    9   13 1   
    18   10   11 2   
    19   10   12 1   
    20   12   16 1   
    21   12   26 1   
    22   13   14 2   
    23   13   25 1   
    24   14   15 1   
    25   14   16 1   
    26   16   17 2   
@<TRIPOS>SUBSTRUCTURE
     1 ZBU         1 TEMP              0 ****  ****    0 ROOT
