@<TRIPOS>MOLECULE
ZBZ
   25    25     1     0     0
SMALL
bcc


@<TRIPOS>ATOM
      1 C           4.0740    0.3120    0.3910 c         1 ZBZ      0.894600
      2 N           2.3420    1.2940   -1.2020 n3        1 ZBZ     -0.887800
      3 O           4.9380    0.6620   -0.4590 o         1 ZBZ     -0.831300
      4 SG          0.0310    0.0040    0.8210 ss        1 ZBZ     -0.256700
      5 CA          2.5770    0.7190    0.1150 c3        1 ZBZ      0.015500
      6 CB          1.7020   -0.4820    0.4170 c3        1 ZBZ      0.020700
      7 CAE        -5.0710    0.4060    0.1850 ca        1 ZBZ     -0.122000
      8 CAF        -4.7450   -0.8550   -0.3160 ca        1 ZBZ     -0.150000
      9 CAG        -4.0600    1.3120    0.5030 ca        1 ZBZ     -0.150000
     10 CAH        -3.4100   -1.2100   -0.4970 ca        1 ZBZ     -0.085000
     11 CAI        -2.7220    0.9610    0.3280 ca        1 ZBZ     -0.085000
     12 CAM        -0.9770   -0.7080   -0.3560 c         1 ZBZ      0.568300
     13 CAN        -2.3920   -0.3060   -0.1680 ca        1 ZBZ     -0.145600
     14 OXT         4.3150   -0.3130    1.4590 o         1 ZBZ     -0.831300
     15 H           3.0900    1.9450   -1.3770 hn        1 ZBZ      0.336300
     16 H2          2.4320    0.5680   -1.8910 hn        1 ZBZ      0.336300
     17 HA          2.3420    1.5300    0.8660 h1        1 ZBZ      0.053700
     18 HB          2.1060   -0.9850    1.3350 h1        1 ZBZ      0.095700
     19 HBA         1.6880   -1.2160   -0.4240 h1        1 ZBZ      0.095700
     20 HAG        -4.3160    2.3080    0.8920 ha        1 ZBZ      0.125500
     21 HAH        -3.1400   -2.1970   -0.9050 ha        1 ZBZ      0.154500
     22 HAI        -1.9190    1.6750    0.5760 ha        1 ZBZ      0.154500
     23 HAE        -6.1250    0.6860    0.3260 ha        1 ZBZ      0.120000
     24 OAC        -0.6470   -1.4990   -1.2530 o         1 ZBZ     -0.555100
     25 HAF        -5.5420   -1.5680   -0.5720 ha        1 ZBZ      0.125500
@<TRIPOS>BOND
     1    1    3 1   
     2    1    5 1   
     3    1   14 1   
     4    2    5 1   
     5    2   15 1   
     6    2   16 1   
     7    4    6 1   
     8    4   12 1   
     9    5    6 1   
    10    5   17 1   
    11    6   18 1   
    12    6   19 1   
    13    7    8 ar  
    14    7    9 ar  
    15    7   23 1   
    16    8   10 ar  
    17    8   25 1   
    18    9   11 ar  
    19    9   20 1   
    20   10   13 ar  
    21   10   21 1   
    22   11   13 ar  
    23   11   22 1   
    24   12   13 1   
    25   12   24 2   
@<TRIPOS>SUBSTRUCTURE
     1 ZBZ         1 TEMP              0 ****  ****    0 ROOT
