@<TRIPOS>MOLECULE
ZCL
   22    22     1     0     0
SMALL
bcc


@<TRIPOS>ATOM
      1 N          -2.3820    1.4650   -0.9510 n3        1 ZCL     -0.889800
      2 O          -5.0050    0.7410   -0.4290 o         1 ZCL     -0.837800
      3 CE2         1.4640   -1.9210    0.0720 ca        1 ZCL     -0.126000
      4 CE1         1.8280    0.4690    0.1860 ca        1 ZCL      0.018400
      5 CLE1        2.8570    1.8250    0.1080 cl        1 ZCL     -0.108400
      6 CD2         0.1090   -1.7210    0.3210 ca        1 ZCL     -0.129000
      7 CD1         0.4660    0.6650    0.4310 ca        1 ZCL     -0.106000
      8 CB         -1.8490   -0.2310    0.7930 c3        1 ZCL     -0.039100
      9 C          -4.1680   -0.1650   -0.1580 c         1 ZCL      0.888600
     10 CZ          2.3320   -0.8260    0.0090 ca        1 ZCL     -0.003600
     11 CG         -0.4030   -0.4300    0.5080 ca        1 ZCL     -0.021300
     12 CA         -2.6570    0.1200   -0.4630 c3        1 ZCL      0.020500
     13 H          -2.9880    1.6240   -1.7390 hn        1 ZCL      0.332800
     14 H2         -2.6690    2.1200   -0.2440 hn        1 ZCL      0.332800
     15 HE2         1.8530   -2.9380   -0.0750 ha        1 ZCL      0.135000
     16 HD2        -0.5740   -2.5840    0.3640 ha        1 ZCL      0.148000
     17 HD1         0.0620    1.6830    0.5440 ha        1 ZCL      0.162000
     18 HB3        -2.2960   -1.1770    1.2100 hc        1 ZCL      0.064200
     19 HB2        -1.9730    0.5720    1.5660 hc        1 ZCL      0.064200
     20 HA         -2.3600   -0.5960   -1.2830 h1        1 ZCL      0.045700
     21 OXT        -4.4580   -1.2950    0.3230 o         1 ZCL     -0.837800
     22 CLZ         3.9880   -1.0990   -0.2840 cl        1 ZCL     -0.114400
@<TRIPOS>BOND
     1    1   12 1   
     2    1   13 1   
     3    1   14 1   
     4    2    9 1   
     5    3    6 ar  
     6    3   10 ar  
     7    3   15 1   
     8    4    5 1   
     9    4    7 ar  
    10    4   10 ar  
    11    6   11 ar  
    12    6   16 1   
    13    7   11 ar  
    14    7   17 1   
    15    8   11 1   
    16    8   12 1   
    17    8   18 1   
    18    8   19 1   
    19    9   12 1   
    20    9   21 1   
    21   10   22 1   
    22   12   20 1   
@<TRIPOS>SUBSTRUCTURE
     1 ZCL         1 TEMP              0 ****  ****    0 ROOT
