@<TRIPOS>MOLECULE
ZCY
   27    27     1     0     0
SMALL
bcc


@<TRIPOS>ATOM
      1 O2          3.1530   -1.6610   -1.9950 o         1 ZCY     -0.648500
      2 C2          3.3420   -0.7470   -1.1610 c         1 ZCY      0.811900
      3 N3          4.6350   -0.2770   -0.8770 nc        1 ZCY     -0.748100
      4 C4          4.7730    0.7160    0.0190 cd        1 ZCY      0.709500
      5 N4          6.0470    1.2650    0.2530 nh        1 ZCY     -0.892800
      6 C5          3.6480    1.2790    0.7270 cd        1 ZCY     -0.488600
      7 C6          2.3860    0.7840    0.4400 cc        1 ZCY      0.110600
      8 N1          2.1950   -0.1960   -0.4820 n         1 ZCY     -0.324000
      9 C1G         0.8770   -0.7510   -0.7750 c3        1 ZCY      0.078000
     10 C2G        -0.3040   -0.0700   -0.0770 c3        1 ZCY      0.060100
     11 O2G        -0.1590   -0.2770    1.3230 oh        1 ZCY     -0.678800
     12 C3G        -1.6480   -0.6650   -0.5930 c3        1 ZCY      0.222400
     13 O3G        -2.6390   -0.3950    0.3060 os        1 ZCY     -0.558200
     14 P          -3.6900    0.9260   -0.2240 p5        1 ZCY      1.308900
     15 O2P        -2.6200    1.9780   -0.3690 o         1 ZCY     -0.925500
     16 O1P        -4.2280    0.3730   -1.5120 o         1 ZCY     -0.925500
     17 OXT        -4.6380    1.0600    0.9290 o         1 ZCY     -0.925500
     18 H4N1        6.8180    0.7190   -0.0630 hn        1 ZCY      0.389800
     19 H4N2        6.1570    1.6150    1.1780 hn        1 ZCY      0.389800
     20 H5          3.7720    2.0840    1.4560 ha        1 ZCY      0.142000
     21 H6          1.4860    1.1700    0.9730 h4        1 ZCY      0.217000
     22 H1G1        0.7230   -0.6800   -1.8890 h1        1 ZCY      0.064700
     23 H1G2        0.9090   -1.8400   -0.4870 h1        1 ZCY      0.064700
     24 H2G        -1.0630   -0.2840    1.6840 ho        1 ZCY      0.457000
     25 H3G1       -1.8700   -0.2240   -1.6030 h1        1 ZCY     -0.002800
     26 H3G2       -1.5090   -1.7830   -0.6890 h1        1 ZCY     -0.002800
     27 H2         -0.3250    1.0420   -0.2720 h1        1 ZCY      0.095700
@<TRIPOS>BOND
     1    1    2 2   
     2    2    3 1   
     3    2    8 1   
     4    3    4 2   
     5    4    5 1   
     6    4    6 1   
     7    5   18 1   
     8    5   19 1   
     9    6    7 2   
    10    6   20 1   
    11    7    8 1   
    12    7   21 1   
    13    8    9 1   
    14    9   10 1   
    15    9   22 1   
    16    9   23 1   
    17   10   11 1   
    18   10   12 1   
    19   10   27 1   
    20   11   24 1   
    21   12   13 1   
    22   12   25 1   
    23   12   26 1   
    24   13   14 1   
    25   14   15 1   
    26   14   16 1   
    27   14   17 1   
@<TRIPOS>SUBSTRUCTURE
     1 ZCY         1 TEMP              0 ****  ****    0 ROOT
