@<TRIPOS>MOLECULE
ZD6
   54    57     1     0     0
SMALL
bcc


@<TRIPOS>ATOM
      1 CAK        -7.5270   -1.5350   -0.5010 c3        1 ZD6     -0.075400
      2 CAM        -8.9600   -1.0090   -0.5510 c3        1 ZD6      0.170300
      3 NBD        -9.3230   -0.2110    0.6130 n3        1 ZD6     -0.733600
      4 CAB       -10.6870    0.2640    0.5470 c3        1 ZD6      0.158100
      5 CAN        -8.3760    0.8640    0.8810 c3        1 ZD6      0.170300
      6 CAL        -6.9300    0.3850    0.9660 c3        1 ZD6     -0.075400
      7 CBC        -6.5450   -0.3960   -0.2790 c3        1 ZD6     -0.068700
      8 CAO        -5.1310   -0.9550   -0.1610 c3        1 ZD6      0.126400
      9 OAT        -4.2510    0.1640   -0.3460 os        1 ZD6     -0.299900
     10 CAY        -2.9060   -0.1050   -0.2640 ca        1 ZD6      0.165100
     11 CAI        -2.3590   -1.3630   -0.0340 ca        1 ZD6     -0.247000
     12 CAX        -2.0530    1.0230   -0.4370 ca        1 ZD6      0.067100
     13 OAS        -2.7050    2.2190   -0.6640 os        1 ZD6     -0.305900
     14 CAA        -1.8730    3.3690   -0.7790 c3        1 ZD6      0.107700
     15 CAJ        -0.6740    0.8670   -0.3760 ca        1 ZD6     -0.101000
     16 C5         -0.1050   -0.3940   -0.1430 ca        1 ZD6     -0.194900
     17 C4         -0.9550   -1.5160    0.0280 ca        1 ZD6      0.166600
     18 N3         -0.3890   -2.7770    0.2570 na        1 ZD6     -0.733600
     19 C2          0.9930   -2.8840    0.2980 cc        1 ZD6      0.666100
     20 N1          1.8510   -1.9130    0.1480 nd        1 ZD6     -0.755000
     21 C6          1.3730   -0.5840   -0.0660 cd        1 ZD6      0.724900
     22 NAR         2.1440    0.4680   -0.1750 ne        1 ZD6     -0.613100
     23 CAW         3.5470    0.4200   -0.1400 ca        1 ZD6      0.153400
     24 CAF         4.3160   -0.4270   -0.9660 ca        1 ZD6     -0.120000
     25 CAE         5.7030   -0.3520   -0.9960 ca        1 ZD6     -0.112000
     26 CAU         6.3770    0.5690   -0.1920 ca        1 ZD6     -0.018900
     27 BR          8.2470    0.6650   -0.2320 br        1 ZD6     -0.088100
     28 CAH         5.6570    1.4180    0.6450 ca        1 ZD6     -0.140000
     29 CAV         4.2540    1.3530    0.6790 ca        1 ZD6      0.125900
     30 FAC         3.5930    2.1920    1.5130 f         1 ZD6     -0.130900
     31 HAK1       -7.3070   -2.0530   -1.4690 hc        1 ZD6      0.051700
     32 HAK2       -7.4270   -2.2860    0.3250 hc        1 ZD6      0.051700
     33 HAM1       -9.0910   -0.4240   -1.5100 h1        1 ZD6      0.031950
     34 HAM2       -9.6650   -1.8870   -0.5900 h1        1 ZD6      0.031950
     35 HAB1      -11.3720   -0.6170    0.4330 h1        1 ZD6      0.031700
     36 HAB2      -10.9330    0.7900    1.5060 h1        1 ZD6      0.031700
     37 HAB3      -10.8730    0.9730   -0.3070 h1        1 ZD6      0.031700
     38 HAN1       -8.4390    1.6750    0.0960 h1        1 ZD6      0.031950
     39 HAN2       -8.6620    1.3250    1.8690 h1        1 ZD6      0.031950
     40 HAL1       -6.7960   -0.2590    1.8740 hc        1 ZD6      0.051700
     41 HAL2       -6.2570    1.2750    1.0720 hc        1 ZD6      0.051700
     42 HBC        -6.5780    0.2990   -1.1650 hc        1 ZD6      0.071700
     43 HAO1       -4.9360   -1.7160   -0.9610 h1        1 ZD6      0.040700
     44 HAO2       -4.9570   -1.4080    0.8500 h1        1 ZD6      0.040700
     45 HAI        -3.0110   -2.2380    0.1000 ha        1 ZD6      0.144000
     46 HAA1       -2.6070    4.2020   -0.9240 h1        1 ZD6      0.048367
     47 HAA2       -1.2790    3.5240    0.1550 h1        1 ZD6      0.048367
     48 HAA3       -1.1970    3.2800   -1.6640 h1        1 ZD6      0.048367
     49 HAJ        -0.0140    1.7410   -0.5070 ha        1 ZD6      0.176000
     50 H3         -0.9760   -3.5630    0.3970 hn        1 ZD6      0.454800
     51 H2          1.3900   -3.9080    0.4750 h5        1 ZD6      0.052800
     52 HAF         3.8080   -1.1630   -1.6090 ha        1 ZD6      0.149000
     53 HAE         6.2640   -1.0300   -1.6590 ha        1 ZD6      0.147000
     54 HAH         6.1670    2.1500    1.2910 ha        1 ZD6      0.159000
@<TRIPOS>BOND
     1    1    2 1   
     2    1    7 1   
     3    1   31 1   
     4    1   32 1   
     5    2    3 1   
     6    2   33 1   
     7    2   34 1   
     8    3    4 1   
     9    3    5 1   
    10    4   35 1   
    11    4   36 1   
    12    4   37 1   
    13    5    6 1   
    14    5   38 1   
    15    5   39 1   
    16    6    7 1   
    17    6   40 1   
    18    6   41 1   
    19    7    8 1   
    20    7   42 1   
    21    8    9 1   
    22    8   43 1   
    23    8   44 1   
    24    9   10 1   
    25   10   11 ar  
    26   10   12 ar  
    27   11   17 ar  
    28   11   45 1   
    29   12   13 1   
    30   12   15 ar  
    31   13   14 1   
    32   14   46 1   
    33   14   47 1   
    34   14   48 1   
    35   15   16 ar  
    36   15   49 1   
    37   16   17 ar  
    38   16   21 1   
    39   17   18 1   
    40   18   19 1   
    41   18   50 1   
    42   19   20 2   
    43   19   51 1   
    44   20   21 1   
    45   21   22 2   
    46   22   23 1   
    47   23   24 ar  
    48   23   29 ar  
    49   24   25 ar  
    50   24   52 1   
    51   25   26 ar  
    52   25   53 1   
    53   26   27 1   
    54   26   28 ar  
    55   28   29 ar  
    56   28   54 1   
    57   29   30 1   
@<TRIPOS>SUBSTRUCTURE
     1 ZD6         1 TEMP              0 ****  ****    0 ROOT
