@<TRIPOS>MOLECULE
ZD6
   54    57     1     0     0
SMALL
bcc


@<TRIPOS>ATOM
      1 CAK         0.3570   -0.1380   -0.0720 c3        1 ZD6     -0.075400
      2 CAM         1.8460   -0.4640    0.0130 c3        1 ZD6      0.170300
      3 NBD         2.3400   -0.5530    1.3810 n3        1 ZD6     -0.733600
      4 CAB         3.7540   -0.8500    1.4340 c3        1 ZD6      0.158100
      5 CAN         1.5540   -1.4580    2.2100 c3        1 ZD6      0.170300
      6 CAL         0.0580   -1.1570    2.1780 c3        1 ZD6     -0.075400
      7 CBC        -0.4570   -1.1240    0.7490 c3        1 ZD6     -0.068700
      8 CAO        -1.9300   -0.7340    0.7070 c3        1 ZD6      0.126400
      9 OAT        -2.6550   -1.8900    1.1550 os        1 ZD6     -0.299900
     10 CAY        -4.0210   -1.7600    1.2150 ca        1 ZD6      0.165100
     11 CAI        -4.7290   -0.6170    0.8600 ca        1 ZD6     -0.247000
     12 CAX        -4.7180   -2.9150    1.6790 ca        1 ZD6      0.067100
     13 OAS        -3.9140   -3.9920    1.9960 os        1 ZD6     -0.305900
     14 CAA        -4.5850   -5.1350    2.5180 c3        1 ZD6      0.107700
     15 CAJ        -6.1030   -2.8970    1.7770 ca        1 ZD6     -0.101000
     16 C5         -6.8320   -1.7520    1.4250 ca        1 ZD6     -0.194900
     17 C4         -6.1390   -0.6040    0.9640 ca        1 ZD6      0.166600
     18 N3         -6.8650    0.5390    0.6080 na        1 ZD6     -0.733600
     19 C2         -8.2470    0.5040    0.7130 cc        1 ZD6      0.666100
     20 N1         -8.9680   -0.5030    1.1220 nd        1 ZD6     -0.755000
     21 C6         -8.3200   -1.7080    1.5310 cd        1 ZD6      0.724900
     22 NAR        -8.9440   -2.7550    2.0070 ne        1 ZD6     -0.613100
     23 CAW       -10.3380   -2.8470    2.1370 ca        1 ZD6      0.153400
     24 CAF       -11.2350   -2.5980    1.0770 ca        1 ZD6     -0.120000
     25 CAE       -12.5990   -2.8250    1.2070 ca        1 ZD6     -0.112000
     26 CAU       -13.1230   -3.3040    2.4100 ca        1 ZD6     -0.018900
     27 Br        -14.9620   -3.6070    2.5840 br        1 ZD6     -0.088100
     28 CAH       -12.2740   -3.5560    3.4850 ca        1 ZD6     -0.140000
     29 CAV       -10.8920   -3.3330    3.3620 ca        1 ZD6      0.125900
     30 FAC       -10.1030   -3.5830    4.4340 f         1 ZD6     -0.130900
     31 HAK1        0.0460   -0.1810   -1.1480 hc        1 ZD6      0.051700
     32 HAK2        0.1730    0.9040    0.2990 hc        1 ZD6      0.051700
     33 HAM1        2.0340   -1.4220   -0.5580 h1        1 ZD6      0.031950
     34 HAM2        2.4240    0.3550   -0.5010 h1        1 ZD6      0.031950
     35 HAB1        4.0150   -1.8590    1.0110 h1        1 ZD6      0.031700
     36 HAB2        4.3100   -0.0670    0.8550 h1        1 ZD6      0.031700
     37 HAB3        4.0900   -0.8150    2.5030 h1        1 ZD6      0.031700
     38 HAN1        1.7080   -2.5360    1.9060 h1        1 ZD6      0.031950
     39 HAN2        1.9220   -1.3480    3.2690 h1        1 ZD6      0.031950
     40 HAL1       -0.4850   -1.9500    2.7530 hc        1 ZD6      0.051700
     41 HAL2       -0.1410   -0.1720    2.6750 hc        1 ZD6      0.051700
     42 HBC        -0.3500   -2.1540    0.3040 hc        1 ZD6      0.071700
     43 HAO1       -2.2450   -0.4830   -0.3400 h1        1 ZD6      0.040700
     44 HAO2       -2.1420    0.1310    1.3880 h1        1 ZD6      0.040700
     45 HAI        -4.1990    0.2770    0.5010 ha        1 ZD6      0.144000
     46 HAA1       -3.7480   -5.8490    2.7260 h1        1 ZD6      0.048367
     47 HAA2       -5.1300   -4.8800    3.4590 h1        1 ZD6      0.048367
     48 HAA3       -5.2870   -5.5600    1.7610 h1        1 ZD6      0.048367
     49 HAJ        -6.6410   -3.7900    2.1390 ha        1 ZD6      0.176000
     50 H3         -6.3870    1.3520    0.3030 hn        1 ZD6      0.454800
     51 H2         -8.7750    1.4360    0.4110 h5        1 ZD6      0.052800
     52 HAF       -10.8470   -2.2180    0.1170 ha        1 ZD6      0.149000
     53 HAE       -13.2630   -2.6210    0.3520 ha        1 ZD6      0.147000
     54 HAH       -12.6630   -3.9300    4.4450 ha        1 ZD6      0.159000
@<TRIPOS>BOND
     1    1    2 1   
     2    1    7 1   
     3    1   31 1   
     4    1   32 1   
     5    2    3 1   
     6    2   33 1   
     7    2   34 1   
     8    3    4 1   
     9    3    5 1   
    10    4   35 1   
    11    4   36 1   
    12    4   37 1   
    13    5    6 1   
    14    5   38 1   
    15    5   39 1   
    16    6    7 1   
    17    6   40 1   
    18    6   41 1   
    19    7    8 1   
    20    7   42 1   
    21    8    9 1   
    22    8   43 1   
    23    8   44 1   
    24    9   10 1   
    25   10   11 ar  
    26   10   12 ar  
    27   11   17 ar  
    28   11   45 1   
    29   12   13 1   
    30   12   15 ar  
    31   13   14 1   
    32   14   46 1   
    33   14   47 1   
    34   14   48 1   
    35   15   16 ar  
    36   15   49 1   
    37   16   17 ar  
    38   16   21 1   
    39   17   18 1   
    40   18   19 1   
    41   18   50 1   
    42   19   20 2   
    43   19   51 1   
    44   20   21 1   
    45   21   22 2   
    46   22   23 1   
    47   23   24 ar  
    48   23   29 ar  
    49   24   25 ar  
    50   24   52 1   
    51   25   26 ar  
    52   25   53 1   
    53   26   27 1   
    54   26   28 ar  
    55   28   29 ar  
    56   28   54 1   
    57   29   30 1   
@<TRIPOS>SUBSTRUCTURE
     1 ZD6         1 TEMP              0 ****  ****    0 ROOT
