@<TRIPOS>MOLECULE
ZD6
   54    57     1     0     0
SMALL
bcc


@<TRIPOS>ATOM
      1 CAK         0.3570   -0.1270   -0.0590 c3        1 ZD6     -0.075400
      2 CAM         1.8460   -0.4560    0.0200 c3        1 ZD6      0.170300
      3 NBD         2.3420   -0.5600    1.3860 n3        1 ZD6     -0.733600
      4 CAB         3.7550   -0.8590    1.4340 c3        1 ZD6      0.158100
      5 CAN         1.5560   -1.4720    2.2070 c3        1 ZD6      0.170300
      6 CAL         0.0600   -1.1680    2.1810 c3        1 ZD6     -0.075400
      7 CBC        -0.4570   -1.1200    0.7530 c3        1 ZD6     -0.068700
      8 CAO        -1.9300   -0.7280    0.7170 c3        1 ZD6      0.126400
      9 OAT        -2.6550   -1.8880    1.1540 os        1 ZD6     -0.299900
     10 CAY        -4.0220   -1.7580    1.2170 ca        1 ZD6      0.165100
     11 CAI        -4.7280   -0.6100    0.8750 ca        1 ZD6     -0.247000
     12 CAX        -4.7190   -2.9160    1.6680 ca        1 ZD6      0.067100
     13 OAS        -3.9160   -3.9980    1.9730 os        1 ZD6     -0.305900
     14 CAA        -4.5880   -5.1450    2.4840 c3        1 ZD6      0.107700
     15 CAJ        -6.1040   -2.8990    1.7670 ca        1 ZD6     -0.101000
     16 C5         -6.8320   -1.7480    1.4290 ca        1 ZD6     -0.194900
     17 C4         -6.1380   -0.5960    0.9800 ca        1 ZD6      0.166600
     18 N3         -6.8630    0.5520    0.6370 na        1 ZD6     -0.733600
     19 C2         -8.2450    0.5170    0.7430 cc        1 ZD6      0.666100
     20 N1         -8.9670   -0.4940    1.1410 nd        1 ZD6     -0.755000
     21 C6         -8.3200   -1.7040    1.5360 cd        1 ZD6      0.724900
     22 NAR        -8.9440   -2.7560    2.0000 ne        1 ZD6     -0.613100
     23 CAW       -10.3390   -2.8480    2.1300 ca        1 ZD6      0.153400
     24 CAF       -11.2360   -2.5860    1.0720 ca        1 ZD6     -0.120000
     25 CAE       -12.6010   -2.8130    1.2010 ca        1 ZD6     -0.112000
     26 CAU       -13.1240   -3.3060    2.3980 ca        1 ZD6     -0.018900
     27 BR        -14.9640   -3.6090    2.5690 br        1 ZD6     -0.088100
     28 CAH       -12.2750   -3.5710    3.4700 ca        1 ZD6     -0.140000
     29 CAV       -10.8930   -3.3480    3.3480 ca        1 ZD6      0.125900
     30 FAC       -10.1030   -3.6110    4.4170 f         1 ZD6     -0.130900
     31 HAK1        0.1750    0.9110    0.3230 hc        1 ZD6      0.051700
     32 HAK2        0.0440   -0.1590   -1.1350 hc        1 ZD6      0.051700
     33 HAM1        2.4240    0.3680   -0.4860 h1        1 ZD6      0.031950
     34 HAM2        2.0310   -1.4080   -0.5600 h1        1 ZD6      0.031950
     35 HAB1        4.0930   -0.8350    2.5030 h1        1 ZD6      0.031700
     36 HAB2        4.0140   -1.8640    1.0000 h1        1 ZD6      0.031700
     37 HAB3        4.3110   -0.0710    0.8620 h1        1 ZD6      0.031700
     38 HAN1        1.7080   -2.5470    1.8920 h1        1 ZD6      0.031950
     39 HAN2        1.9250   -1.3730    3.2670 h1        1 ZD6      0.031950
     40 HAL1       -0.4830   -1.9670    2.7490 hc        1 ZD6      0.051700
     41 HAL2       -0.1370   -0.1880    2.6890 hc        1 ZD6      0.051700
     42 HBC        -0.3520   -2.1450    0.2980 hc        1 ZD6      0.071700
     43 HAO1       -2.2460   -0.4660   -0.3270 h1        1 ZD6      0.040700
     44 HAO2       -2.1390    0.1300    1.4080 h1        1 ZD6      0.040700
     45 HAI        -4.1980    0.2880    0.5260 ha        1 ZD6      0.144000
     46 HAA1       -3.7520   -5.8620    2.6830 h1        1 ZD6      0.048367
     47 HAA2       -5.1320   -4.8990    3.4280 h1        1 ZD6      0.048367
     48 HAA3       -5.2910   -5.5620    1.7220 h1        1 ZD6      0.048367
     49 HAJ        -6.6430   -3.7940    2.1190 ha        1 ZD6      0.176000
     50 H3         -6.3850    1.3670    0.3410 hn        1 ZD6      0.454800
     51 H2         -8.7730    1.4520    0.4520 h5        1 ZD6      0.052800
     52 HAF       -10.8490   -2.1950    0.1170 ha        1 ZD6      0.149000
     53 HAE       -13.2650   -2.5980    0.3490 ha        1 ZD6      0.147000
     54 HAH       -12.6640   -3.9560    4.4250 ha        1 ZD6      0.159000
@<TRIPOS>BOND
     1    1    2 1   
     2    1    7 1   
     3    1   31 1   
     4    1   32 1   
     5    2    3 1   
     6    2   33 1   
     7    2   34 1   
     8    3    4 1   
     9    3    5 1   
    10    4   35 1   
    11    4   36 1   
    12    4   37 1   
    13    5    6 1   
    14    5   38 1   
    15    5   39 1   
    16    6    7 1   
    17    6   40 1   
    18    6   41 1   
    19    7    8 1   
    20    7   42 1   
    21    8    9 1   
    22    8   43 1   
    23    8   44 1   
    24    9   10 1   
    25   10   11 ar  
    26   10   12 ar  
    27   11   17 ar  
    28   11   45 1   
    29   12   13 1   
    30   12   15 ar  
    31   13   14 1   
    32   14   46 1   
    33   14   47 1   
    34   14   48 1   
    35   15   16 ar  
    36   15   49 1   
    37   16   17 ar  
    38   16   21 1   
    39   17   18 1   
    40   18   19 1   
    41   18   50 1   
    42   19   20 2   
    43   19   51 1   
    44   20   21 1   
    45   21   22 2   
    46   22   23 1   
    47   23   24 ar  
    48   23   29 ar  
    49   24   25 ar  
    50   24   52 1   
    51   25   26 ar  
    52   25   53 1   
    53   26   27 1   
    54   26   28 ar  
    55   28   29 ar  
    56   28   54 1   
    57   29   30 1   
@<TRIPOS>SUBSTRUCTURE
     1 ZD6         1 TEMP              0 ****  ****    0 ROOT
