@<TRIPOS>MOLECULE
ZD6
   54    50     1     0     0
SMALL
bcc


@<TRIPOS>ATOM
      1 CAK         4.0780   -1.7690   -0.9700 c3        1 ZD6     -0.153000
      2 CAM         5.5630   -2.0750   -1.1310 c3        1 ZD6     -0.066000
      3 NBD         6.2080   -1.2310   -2.1740 n3        1 ZD6     -0.259000
      4 CAB         7.6440   -1.4690   -2.1750 c3        1 ZD6     -0.118000
      5 CAN         5.9510    0.2120   -1.9860 c3        1 ZD6     -0.066000
      6 CAL         4.4710    0.5250   -1.8300 c3        1 ZD6     -0.153000
      7 CBC         3.8160   -0.3170   -0.7750 c3        1 ZD6     -0.114000
      8 CAO         2.2840   -0.0770   -0.8210 c3        1 ZD6     -0.011000
      9 OAT         1.8340    0.4660    0.4630 os        1 ZD6     -0.216000
     10 CAY         0.4130    0.5290    0.6000 c2        1 ZD6      0.116000
     11 CAI        -0.1770    1.6550    0.0040 c2        1 ZD6     -0.197000
     12 CAX        -0.3740   -0.3820    1.2980 c1        1 ZD6     -0.008000
     13 OAS         0.3810   -1.4630    1.7200 o         1 ZD6     -0.219000
     14 CAA         0.1030   -1.8750    3.0600 c3        1 ZD6     -0.079000
     15 CAJ        -1.7500   -0.1770    1.4050 c2        1 ZD6     -0.096000
     16 C5         -2.3530    0.9690    0.7990 c1        1 ZD6     -0.107000
     17 C4         -1.5830    1.8640    0.1140 c1        1 ZD6      0.077000
     18 N3         -2.1620    2.9440   -0.4710 n2        1 ZD6     -0.294000
     19 C2         -3.5140    3.1320   -0.3740 c1        1 ZD6      0.099000
     20 N1         -4.2930    2.2250    0.3190 n1        1 ZD6     -0.250000
     21 C6         -3.7310    1.1650    0.8950 c1        1 ZD6      0.133000
     22 NAR        -4.4950    0.2150    1.4070 n1        1 ZD6     -0.186000
     23 CAW        -5.8810    0.2660    1.2400 c1        1 ZD6      0.014000
     24 CAF        -6.6690    1.0140    2.1320 c2        1 ZD6     -0.119000
     25 CAE        -8.0530    1.0320    1.9900 c1        1 ZD6     -0.112000
     26 CAU        -8.6590    0.3060    0.9600 c1        1 ZD6     -0.159000
     27 BR        -10.6010    0.2890    0.7930 br        1 ZD6      0.052000
     28 CAH        -7.8680   -0.4420    0.0680 c1        1 ZD6     -0.140000
     29 CAV        -6.4860   -0.4590    0.2110 c1        1 ZD6      0.092000
     30 FAC        -5.7320   -1.1710   -0.6420 f         1 ZD6     -0.097000
     31 HAK1        3.5990   -2.0740   -1.7800 hc        1 ZD6      0.090250
     32 HAK2        3.7350   -2.2600   -0.1950 hc        1 ZD6      0.090250
     33 HAM1        5.6630   -2.9780   -1.3680 h1        1 ZD6      0.069500
     34 HAM2        6.0250   -1.9160   -0.2520 h1        1 ZD6      0.069500
     35 HAB1        8.0190   -1.2410   -1.2820 h1        1 ZD6      0.070667
     36 HAB2        7.8230   -2.4310   -2.3750 h1        1 ZD6      0.070667
     37 HAB3        8.0860   -0.8830   -2.8890 h1        1 ZD6      0.070667
     38 HAN1        6.4140    0.5080   -1.2030 h1        1 ZD6      0.069500
     39 HAN2        6.3010    0.7030   -2.7720 h1        1 ZD6      0.069500
     40 HAL1        4.3730    1.4640   -1.5910 hc        1 ZD6      0.090250
     41 HAL2        4.0410    0.3740   -2.6500 hc        1 ZD6      0.090250
     42 HBC         4.1540   -0.0470    0.1020 hc        1 ZD6      0.105000
     43 HAO1        1.8380   -0.9060   -0.9920 h1        1 ZD6      0.096000
     44 HAO2        2.0780    0.5500   -1.5260 h1        1 ZD6      0.096000
     45 HAI         0.3830    2.3210   -0.4460 ha        1 ZD6      0.155000
     46 HAA1        0.3100   -1.1200    3.6930 h1        1 ZD6      0.089000
     47 HAA2        0.6490   -2.6350    3.2790 h1        1 ZD6      0.089000
     48 HAA3       -0.8360   -2.1160    3.1380 h1        1 ZD6      0.089000
     49 HAJ        -2.2990   -0.8130    1.8920 ha        1 ZD6      0.175000
     50 H3         -1.6490    3.5460   -0.9310 hn        1 ZD6      0.252000
     51 H2         -3.9340    3.9170   -0.8000 ha        1 ZD6      0.183000
     52 HAF        -6.2460    1.5190    2.8490 ha        1 ZD6      0.150000
     53 HAE        -8.6080    1.5590    2.6180 ha        1 ZD6      0.147000
     54 HAH        -8.2870   -0.9460   -0.6470 ha        1 ZD6      0.159000
@<TRIPOS>BOND
     1    1    2 1   
     2    1    7 1   
     3    1   31 1   
     4    1   32 1   
     5    2    3 1   
     6    2   33 1   
     7    2   34 1   
     8    3    4 1   
     9    3    5 1   
    10    4   35 1   
    11    4   36 1   
    12    4   37 1   
    13    5    6 1   
    14    5   38 1   
    15    5   39 1   
    16    6    7 1   
    17    6   40 1   
    18    6   41 1   
    19    7    8 1   
    20    7   42 1   
    21    8    9 1   
    22    8   43 1   
    23    8   44 1   
    24    9   10 1   
    25   10   11 1   
    26   10   12 1   
    27   11   17 1   
    28   11   45 1   
    29   12   15 1   
    30   13   14 1   
    31   14   46 1   
    32   14   47 1   
    33   14   48 1   
    34   15   16 1   
    35   15   49 1   
    36   16   21 1   
    37   17   18 1   
    38   18   50 1   
    39   19   20 1   
    40   19   51 1   
    41   21   22 1   
    42   23   24 1   
    43   23   29 1   
    44   24   25 1   
    45   24   52 1   
    46   25   53 1   
    47   26   27 1   
    48   26   28 1   
    49   28   54 1   
    50   29   30 1   
@<TRIPOS>SUBSTRUCTURE
     1 ZD6         1 TEMP              0 ****  ****    0 ROOT
