@<TRIPOS>MOLECULE
ZD7
   59    63     1     0     0
SMALL
bcc


@<TRIPOS>ATOM
      1 C4          0.1910   -0.0510   -0.0210 ca        1 ZD7      0.441600
      2 C3          2.1080    0.0390    1.2800 ca        1 ZD7      0.451600
      3 C2          3.6150    0.0030    1.3360 c3        1 ZD7     -0.134700
      4 C1          4.2020    1.3890    1.2380 c3        1 ZD7     -0.090100
      5 O1         -0.9320    0.4780    5.8380 o         1 ZD7     -0.631500
      6 N1          1.5390   -0.0480    0.0550 nb        1 ZD7     -0.685000
      7 C10         2.0230    0.2580    3.7970 c3        1 ZD7     -0.030100
      8 C11         1.1680    1.0100    4.7910 c3        1 ZD7     -0.146400
      9 C12        -0.2640    0.5320    4.7890 c         1 ZD7      0.705500
     10 C13        -2.2260   -0.2630    3.5520 c3        1 ZD7      0.132300
     11 C14        -2.3890   -1.7540    3.6370 ca        1 ZD7     -0.105300
     12 C15        -2.7730   -2.4980    2.5180 ca        1 ZD7     -0.109500
     13 C16        -2.9470   -3.8770    2.6190 ca        1 ZD7     -0.111000
     14 C17        -2.1770   -2.4020    4.8590 ca        1 ZD7     -0.109500
     15 C18        -2.3430   -3.7800    4.9590 ca        1 ZD7     -0.111000
     16 C19        -2.7260   -4.5290    3.8390 cp        1 ZD7     -0.044000
     17 N2         -0.8510    0.2010    3.5580 n         1 ZD7     -0.371000
     18 C20        -2.9250   -5.9760    3.9380 cp        1 ZD7      0.017000
     19 C21        -4.1660   -6.5160    3.5640 ca        1 ZD7     -0.125000
     20 C22        -4.4090   -7.8820    3.6660 ca        1 ZD7     -0.107000
     21 C23        -3.4140   -8.7370    4.1420 ca        1 ZD7     -0.132000
     22 C24        -2.1740   -8.2220    4.5060 ca        1 ZD7     -0.109000
     23 C25        -1.9230   -6.8460    4.4030 ca        1 ZD7     -0.136500
     24 C26        -0.5970   -6.3560    4.7550 cc        1 ZD7      0.450000
     25 N3          0.0450   -6.5860    5.9940 na        1 ZD7     -0.186400
     26 N4          1.2560   -6.0160    5.9450 nc        1 ZD7     -0.195800
     27 C5         -0.4550   -0.1460   -1.3780 c3        1 ZD7     -0.128700
     28 N5          1.3840   -5.4750    4.7870 nd        1 ZD7     -0.053000
     29 C6         -0.2330    1.1040   -2.1930 c3        1 ZD7     -0.089100
     30 N6          0.3090   -5.6400    4.0180 nd        1 ZD7     -0.349000
     31 C7         -0.6410    0.0190    1.1120 ca        1 ZD7     -0.291300
     32 C8         -0.0610    0.1160    2.3940 ca        1 ZD7      0.120600
     33 C9          1.3590    0.1460    2.4740 ca        1 ZD7     -0.240600
     34 H1          3.9360   -0.4940    2.2890 hc        1 ZD7      0.060200
     35 H2          4.0140   -0.6270    0.4940 hc        1 ZD7      0.060200
     36 H3          5.3160    1.3340    1.3020 hc        1 ZD7      0.038367
     37 H4          3.8330    2.0420    2.0650 hc        1 ZD7      0.038367
     38 H5          3.9250    1.8640    0.2660 hc        1 ZD7      0.038367
     39 H6          3.0050    0.7960    3.7040 hc        1 ZD7      0.066200
     40 H7          2.2420   -0.7760    4.1830 hc        1 ZD7      0.066200
     41 H8          1.1610    2.1070    4.5530 hc        1 ZD7      0.081200
     42 H9          1.5770    0.8850    5.8290 hc        1 ZD7      0.081200
     43 H10        -2.7410    0.1280    2.6290 h1        1 ZD7      0.073700
     44 H11        -2.7420    0.2000    4.4470 h1        1 ZD7      0.073700
     45 H12        -2.9330   -1.9970    1.5510 ha        1 ZD7      0.145000
     46 H13        -3.2440   -4.4600    1.7340 ha        1 ZD7      0.134000
     47 H14        -1.8730   -1.8100    5.7390 ha        1 ZD7      0.145000
     48 H15        -2.1730   -4.2830    5.9230 ha        1 ZD7      0.134000
     49 H16        -4.9510   -5.8410    3.1890 ha        1 ZD7      0.146000
     50 H17        -5.3890   -8.2890    3.3710 ha        1 ZD7      0.140000
     51 H18        -3.6050   -9.8180    4.2230 ha        1 ZD7      0.141000
     52 H19        -1.3810   -8.8980    4.8610 ha        1 ZD7      0.138000
     53 H20        -0.2940   -7.0680    6.7920 hn        1 ZD7      0.333700
     54 H21        -1.5560   -0.3220   -1.2480 hc        1 ZD7      0.052700
     55 H22        -0.0370   -1.0330   -1.9270 hc        1 ZD7      0.052700
     56 H23        -0.6350    2.0000   -1.6620 hc        1 ZD7      0.039700
     57 H24        -0.7530    1.0120   -3.1770 hc        1 ZD7      0.039700
     58 H25         0.8560    1.2650   -2.3810 hc        1 ZD7      0.039700
     59 H26        -1.7300   -0.0110    0.9690 ha        1 ZD7      0.143000
@<TRIPOS>BOND
     1    1    6 ar  
     2    1   27 1   
     3    1   31 ar  
     4    2    3 1   
     5    2    6 ar  
     6    2   33 ar  
     7    3    4 1   
     8    3   34 1   
     9    3   35 1   
    10    4   36 1   
    11    4   37 1   
    12    4   38 1   
    13    5    9 2   
    14    7    8 1   
    15    7   33 1   
    16    7   39 1   
    17    7   40 1   
    18    8    9 1   
    19    8   41 1   
    20    8   42 1   
    21    9   17 1   
    22   10   11 1   
    23   10   17 1   
    24   10   43 1   
    25   10   44 1   
    26   11   12 ar  
    27   11   14 ar  
    28   12   13 ar  
    29   12   45 1   
    30   13   16 ar  
    31   13   46 1   
    32   14   15 ar  
    33   14   47 1   
    34   15   16 ar  
    35   15   48 1   
    36   16   18 1   
    37   17   32 1   
    38   18   19 ar  
    39   18   23 ar  
    40   19   20 ar  
    41   19   49 1   
    42   20   21 ar  
    43   20   50 1   
    44   21   22 ar  
    45   21   51 1   
    46   22   23 ar  
    47   22   52 1   
    48   23   24 1   
    49   24   25 1   
    50   24   30 2   
    51   25   26 1   
    52   25   53 1   
    53   26   28 2   
    54   27   29 1   
    55   27   54 1   
    56   27   55 1   
    57   28   30 1   
    58   29   56 1   
    59   29   57 1   
    60   29   58 1   
    61   31   32 ar  
    62   31   59 1   
    63   32   33 ar  
@<TRIPOS>SUBSTRUCTURE
     1 ZD7         1 TEMP              0 ****  ****    0 ROOT
