@<TRIPOS>MOLECULE
ZD7
   59    63     1     0     0
SMALL
bcc


@<TRIPOS>ATOM
      1 C4          0.1760   -0.0430   -0.0180 ca        1 ZD7      0.441600
      2 C3          2.1020    0.0400    1.2700 ca        1 ZD7      0.451600
      3 C2          3.6080    0.0020    1.3170 c3        1 ZD7     -0.134700
      4 C1          4.1970    1.3870    1.2200 c3        1 ZD7     -0.090100
      5 O1         -0.9080    0.4690    5.8510 o         1 ZD7     -0.631500
      6 N1          1.5250   -0.0420    0.0490 nb        1 ZD7     -0.685000
      7 C10         2.0330    0.2510    3.7880 c3        1 ZD7     -0.030100
      8 C11         1.1860    1.0010    4.7910 c3        1 ZD7     -0.146400
      9 C12        -0.2460    0.5250    4.7970 c         1 ZD7      0.705500
     10 C13        -2.2180   -0.2630    3.5700 c3        1 ZD7      0.132300
     11 C14        -2.3830   -1.7540    3.6510 ca        1 ZD7     -0.105300
     12 C15        -2.7760   -2.4930    2.5330 ca        1 ZD7     -0.109500
     13 C16        -2.9510   -3.8720    2.6300 ca        1 ZD7     -0.111000
     14 C17        -2.1630   -2.4060    4.8700 ca        1 ZD7     -0.109500
     15 C18        -2.3300   -3.7840    4.9670 ca        1 ZD7     -0.111000
     16 C19        -2.7230   -4.5290    3.8460 cp        1 ZD7     -0.044000
     17 N2         -0.8420    0.1990    3.5690 n         1 ZD7     -0.371000
     18 C20        -2.9230   -5.9760    3.9420 cp        1 ZD7      0.017000
     19 C21        -4.1680   -6.5130    3.5750 ca        1 ZD7     -0.125000
     20 C22        -4.4130   -7.8790    3.6750 ca        1 ZD7     -0.107000
     21 C23        -3.4150   -8.7370    4.1400 ca        1 ZD7     -0.132000
     22 C24        -2.1720   -8.2250    4.4970 ca        1 ZD7     -0.109000
     23 C25        -1.9190   -6.8490    4.3960 ca        1 ZD7     -0.136500
     24 C26        -0.5900   -6.3620    4.7400 cc        1 ZD7      0.450000
     25 N3          0.0610   -6.5980    5.9730 na        1 ZD7     -0.186400
     26 N4          1.2720   -6.0290    5.9180 nc        1 ZD7     -0.195800
     27 C5         -0.4790   -0.1330   -1.3710 c3        1 ZD7     -0.128700
     28 N5          1.3920   -5.4840    4.7610 nd        1 ZD7     -0.053000
     29 C6         -0.2610    1.1190   -2.1830 c3        1 ZD7     -0.089100
     30 N6          0.3120   -5.6440    3.9990 nd        1 ZD7     -0.349000
     31 C7         -0.6490    0.0240    1.1210 ca        1 ZD7     -0.291300
     32 C8         -0.0600    0.1160    2.3990 ca        1 ZD7      0.120600
     33 C9          1.3600    0.1440    2.4700 ca        1 ZD7     -0.240600
     34 H1          3.9350   -0.4990    2.2660 hc        1 ZD7      0.060200
     35 H2          4.0010   -0.6250    0.4700 hc        1 ZD7      0.060200
     36 H3          3.8340    2.0380    2.0510 hc        1 ZD7      0.038367
     37 H4          5.3110    1.3310    1.2760 hc        1 ZD7      0.038367
     38 H5          3.9140    1.8660    0.2510 hc        1 ZD7      0.038367
     39 H6          2.2530   -0.7840    4.1700 hc        1 ZD7      0.066200
     40 H7          3.0160    0.7870    3.6910 hc        1 ZD7      0.066200
     41 H8          1.1790    2.0990    4.5560 hc        1 ZD7      0.081200
     42 H9          1.6020    0.8720    5.8250 hc        1 ZD7      0.081200
     43 H10        -2.7270    0.1980    4.4700 h1        1 ZD7      0.073700
     44 H11        -2.7380    0.1320    2.6520 h1        1 ZD7      0.073700
     45 H12        -2.9410   -1.9890    1.5690 ha        1 ZD7      0.145000
     46 H13        -3.2550   -4.4520    1.7450 ha        1 ZD7      0.134000
     47 H14        -1.8520   -1.8170    5.7500 ha        1 ZD7      0.145000
     48 H15        -2.1550   -4.2910    5.9270 ha        1 ZD7      0.134000
     49 H16        -4.9550   -5.8350    3.2080 ha        1 ZD7      0.146000
     50 H17        -5.3950   -8.2830    3.3850 ha        1 ZD7      0.140000
     51 H18        -3.6080   -9.8170    4.2180 ha        1 ZD7      0.141000
     52 H19        -1.3780   -8.9040    4.8430 ha        1 ZD7      0.138000
     53 H20        -0.2730   -7.0820    6.7730 hn        1 ZD7      0.333700
     54 H21        -1.5790   -0.3080   -1.2340 hc        1 ZD7      0.052700
     55 H22        -0.0670   -1.0190   -1.9250 hc        1 ZD7      0.052700
     56 H23        -0.6580    2.0140   -1.6470 hc        1 ZD7      0.039700
     57 H24        -0.7880    1.0310   -3.1640 hc        1 ZD7      0.039700
     58 H25         0.8270    1.2800   -2.3780 hc        1 ZD7      0.039700
     59 H26        -1.7380   -0.0040    0.9850 ha        1 ZD7      0.143000
@<TRIPOS>BOND
     1    1    6 ar  
     2    1   27 1   
     3    1   31 ar  
     4    2    3 1   
     5    2    6 ar  
     6    2   33 ar  
     7    3    4 1   
     8    3   34 1   
     9    3   35 1   
    10    4   36 1   
    11    4   37 1   
    12    4   38 1   
    13    5    9 2   
    14    7    8 1   
    15    7   33 1   
    16    7   39 1   
    17    7   40 1   
    18    8    9 1   
    19    8   41 1   
    20    8   42 1   
    21    9   17 1   
    22   10   11 1   
    23   10   17 1   
    24   10   43 1   
    25   10   44 1   
    26   11   12 ar  
    27   11   14 ar  
    28   12   13 ar  
    29   12   45 1   
    30   13   16 ar  
    31   13   46 1   
    32   14   15 ar  
    33   14   47 1   
    34   15   16 ar  
    35   15   48 1   
    36   16   18 1   
    37   17   32 1   
    38   18   19 ar  
    39   18   23 ar  
    40   19   20 ar  
    41   19   49 1   
    42   20   21 ar  
    43   20   50 1   
    44   21   22 ar  
    45   21   51 1   
    46   22   23 ar  
    47   22   52 1   
    48   23   24 1   
    49   24   25 1   
    50   24   30 2   
    51   25   26 1   
    52   25   53 1   
    53   26   28 2   
    54   27   29 1   
    55   27   54 1   
    56   27   55 1   
    57   28   30 1   
    58   29   56 1   
    59   29   57 1   
    60   29   58 1   
    61   31   32 ar  
    62   31   59 1   
    63   32   33 ar  
@<TRIPOS>SUBSTRUCTURE
     1 ZD7         1 TEMP              0 ****  ****    0 ROOT
