@<TRIPOS>MOLECULE
ZD9
   33    34     1     0     0
SMALL
bcc


@<TRIPOS>ATOM
      1 C1         -2.4270   -1.5660   -0.0560 c         1 ZD9      0.710100
      2 N2         -3.7470   -1.1370    0.1650 n         1 ZD9     -0.500400
      3 C3         -4.0500    0.2250    0.2990 cc        1 ZD9      0.497900
      4 N4         -3.1550    1.1960    0.2340 nd        1 ZD9     -0.626100
      5 C5         -1.8150    0.8500    0.0180 ca        1 ZD9      0.195400
      6 C6         -1.4090   -0.5030   -0.1290 ca        1 ZD9     -0.199600
      7 O7         -2.2050   -2.7840   -0.1750 o         1 ZD9     -0.620500
      8 C8         -0.0640   -0.8240   -0.3400 ca        1 ZD9     -0.030000
      9 C9          0.8940    0.1820   -0.4160 ca        1 ZD9     -0.131300
     10 C10         0.5090    1.5320   -0.2680 ca        1 ZD9     -0.030300
     11 C11        -0.8270    1.8590   -0.0560 ca        1 ZD9     -0.130000
     12 C12         2.3230   -0.1940   -0.6740 c3        1 ZD9      0.220100
     13 N13         3.0680   -0.4220    0.5640 n3        1 ZD9     -0.595800
     14 C14         4.4160   -0.4370    0.4300 c1        1 ZD9     -0.052200
     15 C15         5.6100   -0.5440    0.3450 c1        1 ZD9     -0.170100
     16 C16         7.0230   -0.6860    0.2560 c3        1 ZD9      0.001000
     17 C38         1.5150    2.6190   -0.3490 c3        1 ZD9     -0.063800
     18 C39        -5.5050    0.5600    0.5330 c3        1 ZD9     -0.144400
     19 HN2        -4.4720   -1.8150    0.2240 hn        1 ZD9      0.335500
     20 H8          0.2230   -1.8850   -0.4420 ha        1 ZD9      0.166000
     21 H11        -1.1230    2.9140    0.0570 ha        1 ZD9      0.154000
     22 H12         2.3620   -1.1610   -1.2540 h1        1 ZD9      0.054200
     23 H12A        2.8030    0.6020   -1.3160 h1        1 ZD9      0.054200
     24 HN13        2.7810    0.2010    1.3000 hn        1 ZD9      0.393800
     25 H16         7.4350   -1.1040    1.2110 hc        1 ZD9      0.050033
     26 H16A        7.2930   -1.3840   -0.5800 hc        1 ZD9      0.050033
     27 H16B        7.5130    0.3040    0.0620 hc        1 ZD9      0.050033
     28 H38         1.9090    2.7000   -1.3940 hc        1 ZD9      0.051367
     29 H38A        1.0710    3.6050   -0.0660 hc        1 ZD9      0.051367
     30 H38B        2.3750    2.4130    0.3350 hc        1 ZD9      0.051367
     31 H39        -5.8570    0.0730    1.4750 hc        1 ZD9      0.069367
     32 H39A       -5.6490    1.6650    0.6260 hc        1 ZD9      0.069367
     33 H39B       -6.1190    0.1910   -0.3250 hc        1 ZD9      0.069367
@<TRIPOS>BOND
     1    1    2 1   
     2    1    6 1   
     3    1    7 2   
     4    2    3 1   
     5    2   19 1   
     6    3    4 2   
     7    3   18 1   
     8    4    5 1   
     9    5    6 ar  
    10    5   11 ar  
    11    6    8 ar  
    12    8    9 ar  
    13    8   20 1   
    14    9   10 ar  
    15    9   12 1   
    16   10   11 ar  
    17   10   17 1   
    18   11   21 1   
    19   12   13 1   
    20   12   22 1   
    21   12   23 1   
    22   13   14 1   
    23   13   24 1   
    24   14   15 3   
    25   15   16 1   
    26   16   25 1   
    27   16   26 1   
    28   16   27 1   
    29   17   28 1   
    30   17   29 1   
    31   17   30 1   
    32   18   31 1   
    33   18   32 1   
    34   18   33 1   
@<TRIPOS>SUBSTRUCTURE
     1 ZD9         1 TEMP              0 ****  ****    0 ROOT
