@<TRIPOS>MOLECULE
ZD9
   34    35     1     0     0
SMALL
bcc


@<TRIPOS>ATOM
      1 C1         -0.2060    0.1490    0.0920 c         1 ZD9      0.708100
      2 N2          1.1900    0.0110    0.0020 ns        1 ZD9     -0.485400
      3 C3          1.9740   -0.1590    1.1450 cc        1 ZD9      0.542900
      4 N4          1.4880   -0.2030    2.3820 nd        1 ZD9     -0.637100
      5 C5          0.1140   -0.0850    2.5580 ca        1 ZD9      0.254400
      6 C6         -0.7690    0.0860    1.4550 ca        1 ZD9     -0.219600
      7 O7         -0.8780    0.3190   -0.9380 o         1 ZD9     -0.599500
      8 C8         -2.1470    0.1840    1.6520 ca        1 ZD9     -0.010000
      9 C9         -2.6770    0.1330    2.9390 ca        1 ZD9     -0.245300
     10 C10        -1.8170   -0.0290    4.0540 ca        1 ZD9     -0.009300
     11 C11        -0.4480   -0.1370    3.8630 ca        1 ZD9     -0.125000
     12 C12        -4.1500    0.1970    3.1050 c3        1 ZD9      0.197100
     13 N13        -4.5880    1.6490    3.2240 ny        1 ZD9     -0.506600
     14 C14        -5.9620    1.7880    3.3380 c1        1 ZD9     -0.283200
     15 C15        -7.1510    1.9120    3.4330 c1        1 ZD9      0.133900
     16 C16        -8.5620    2.0650    3.5460 c3        1 ZD9     -0.070000
     17 C38        -2.3650   -0.1100    5.4310 c3        1 ZD9     -0.072800
     18 C39         3.4620   -0.2980    0.9250 c3        1 ZD9     -0.155400
     19 HN2         1.6180    0.0330   -0.8990 hn        1 ZD9      0.353500
     20 H8         -2.7990    0.2900    0.7660 ha        1 ZD9      0.161000
     21 H11         0.2230   -0.2720    4.7290 ha        1 ZD9      0.176000
     22 H12        -4.6870   -0.2380    2.2130 hx        1 ZD9      0.113200
     23 H12A       -4.4960   -0.3350    4.0370 hx        1 ZD9      0.113200
     24 HN13       -4.2650    2.1630    2.3880 hn        1 ZD9      0.463800
     25 H16        -8.8150    2.7160    4.4260 hc        1 ZD9      0.103700
     26 H16A       -8.9790    2.5420    2.6170 hc        1 ZD9      0.103700
     27 H16B       -9.0540    1.0650    3.6870 hc        1 ZD9      0.103700
     28 H38        -1.5480   -0.0520    6.1940 hc        1 ZD9      0.057700
     29 H38A       -3.0810    0.7260    5.6300 hc        1 ZD9      0.057700
     30 H38B       -2.9010   -1.0830    5.5740 hc        1 ZD9      0.057700
     31 H39         3.8540    0.6110    0.4050 hc        1 ZD9      0.084700
     32 H39A        4.0020   -0.4140    1.8990 hc        1 ZD9      0.084700
     33 H39B        3.6650   -1.2000    0.2950 hc        1 ZD9      0.084700
     34 H132       -4.1370    2.0670    4.0540 hn        1 ZD9      0.463800
@<TRIPOS>BOND
     1    1    2 1   
     2    1    6 1   
     3    1    7 2   
     4    2    3 1   
     5    2   19 1   
     6    3    4 2   
     7    3   18 1   
     8    4    5 1   
     9    5    6 ar  
    10    5   11 ar  
    11    6    8 ar  
    12    8    9 ar  
    13    8   20 1   
    14    9   10 ar  
    15    9   12 1   
    16   10   11 ar  
    17   10   17 1   
    18   11   21 1   
    19   12   13 1   
    20   12   22 1   
    21   12   23 1   
    22   13   14 1   
    23   13   24 1   
    24   13   34 1   
    25   14   15 3   
    26   15   16 1   
    27   16   25 1   
    28   16   26 1   
    29   16   27 1   
    30   17   28 1   
    31   17   29 1   
    32   17   30 1   
    33   18   31 1   
    34   18   32 1   
    35   18   33 1   
@<TRIPOS>SUBSTRUCTURE
     1 ZD9         1 TEMP              0 ****  ****    0 ROOT
