@<TRIPOS>MOLECULE
ZD9
   34    35     1     0     0
SMALL
bcc


@<TRIPOS>ATOM
      1 C1         -0.2110    0.1780    0.0850 c         1 ZD9      0.708100
      2 N2          1.1840    0.0390   -0.0100 n         1 ZD9     -0.485400
      3 C3          1.9700   -0.1470    1.1290 cc        1 ZD9      0.542900
      4 N4          1.4870   -0.2060    2.3670 nd        1 ZD9     -0.637100
      5 C5          0.1130   -0.0880    2.5460 ca        1 ZD9      0.254400
      6 C6         -0.7720    0.0990    1.4480 ca        1 ZD9     -0.219600
      7 O7         -0.8850    0.3620   -0.9420 o         1 ZD9     -0.599500
      8 C8         -2.1490    0.1970    1.6480 ca        1 ZD9     -0.010000
      9 C9         -2.6770    0.1300    2.9360 ca        1 ZD9     -0.245300
     10 C10        -1.8150   -0.0470    4.0460 ca        1 ZD9     -0.009300
     11 C11        -0.4470   -0.1550    3.8520 ca        1 ZD9     -0.125000
     12 C12        -4.1490    0.1940    3.1050 c3        1 ZD9      0.197100
     13 N13        -4.5850    1.6460    3.2430 n4        1 ZD9     -0.506600
     14 C14        -5.9580    1.7860    3.3620 c1        1 ZD9     -0.283200
     15 C15        -7.1470    1.9110    3.4600 c1        1 ZD9      0.133900
     16 C16        -8.5570    2.0650    3.5780 c3        1 ZD9     -0.070000
     17 C38        -2.3610   -0.1440    5.4230 c3        1 ZD9     -0.072800
     18 C39         3.4580   -0.2860    0.9040 c3        1 ZD9     -0.155400
     19 HN2         1.6110    0.0720   -0.9120 hn        1 ZD9      0.353500
     20 H8         -2.8030    0.3150    0.7650 ha        1 ZD9      0.161000
     21 H11         0.2260   -0.3020    4.7150 ha        1 ZD9      0.176000
     22 H12        -4.6890   -0.2280    2.2090 hx        1 ZD9      0.113200
     23 H12A       -4.4950   -0.3490    4.0310 hx        1 ZD9      0.113200
     24 HN13       -4.2630    2.1700    2.4130 hn        1 ZD9      0.463800
     25 H16        -8.8150    2.5900    4.5380 hc        1 ZD9      0.103700
     26 H16A       -8.9570    2.6710    2.7200 hc        1 ZD9      0.103700
     27 H16B       -9.0620    1.0610    3.5730 hc        1 ZD9      0.103700
     28 H38        -1.5430   -0.0980    6.1860 hc        1 ZD9      0.057700
     29 H38A       -3.0750    0.6900    5.6350 hc        1 ZD9      0.057700
     30 H38B       -2.8990   -1.1180    5.5560 hc        1 ZD9      0.057700
     31 H39         3.8500    0.6290    0.3950 hc        1 ZD9      0.084700
     32 H39A        3.9990   -0.4150    1.8750 hc        1 ZD9      0.084700
     33 H39B        3.6580   -1.1810    0.2630 hc        1 ZD9      0.084700
     34 H132       -4.1310    2.0530    4.0780 hn        1 ZD9      0.463800
@<TRIPOS>BOND
     1    1    2 1   
     2    1    6 1   
     3    1    7 2   
     4    2    3 1   
     5    2   19 1   
     6    3    4 2   
     7    3   18 1   
     8    4    5 1   
     9    5    6 ar  
    10    5   11 ar  
    11    6    8 ar  
    12    8    9 ar  
    13    8   20 1   
    14    9   10 ar  
    15    9   12 1   
    16   10   11 ar  
    17   10   17 1   
    18   11   21 1   
    19   12   13 1   
    20   12   22 1   
    21   12   23 1   
    22   13   14 1   
    23   13   24 1   
    24   13   34 1   
    25   14   15 3   
    26   15   16 1   
    27   16   25 1   
    28   16   26 1   
    29   16   27 1   
    30   17   28 1   
    31   17   29 1   
    32   17   30 1   
    33   18   31 1   
    34   18   32 1   
    35   18   33 1   
@<TRIPOS>SUBSTRUCTURE
     1 ZD9         1 TEMP              0 ****  ****    0 ROOT
