@<TRIPOS>MOLECULE
ZDA
   41    43     1     0     0
SMALL
bcc


@<TRIPOS>ATOM
      1 C2'         0.0000    0.0000    0.0000 c3        1 ZDA     -0.100400
      2 C5'         0.6480    0.3650    3.4620 c3        1 ZDA     -0.000100
      3 C4'         0.9630    0.8850    2.0580 c3        1 ZDA      0.138100
      4 O4'         1.8870    0.0000    1.4040 os        1 ZDA     -0.457600
      5 C1'         1.5500    0.0000    0.0000 c3        1 ZDA      0.155800
      6 N9          2.0650   -1.2060   -0.6540 na        1 ZDA      0.224000
      7 C8          2.4330   -2.3640   -0.0360 cc        1 ZDA      0.139700
      8 N7          2.8450   -3.2280   -0.9190 nd        1 ZDA     -0.576100
      9 C5          2.7670   -2.6790   -2.1550 ca        1 ZDA     -0.238200
     10 C6          3.0670   -3.1260   -3.4540 ca        1 ZDA      0.412200
     11 N6          3.5610   -4.3990   -3.6690 nv        1 ZDA     -0.561500
     12 N1          2.8620   -2.2950   -4.4710 nb        1 ZDA     -0.720000
     13 C2          2.3890   -1.0770   -4.2760 ca        1 ZDA      0.534900
     14 N3          2.0950   -0.6180   -3.0780 nb        1 ZDA     -0.705000
     15 C4          2.2600   -1.3780   -2.0010 ca        1 ZDA      0.290800
     16 C3'        -0.3240    0.9130    1.2090 c3        1 ZDA      0.264100
     17 O3'        -0.6050    2.2430    0.7700 os        1 ZDA     -0.480200
     18 PA         -1.9990    2.9890    1.0720 p5        1 ZDA      0.934800
     19 O1A        -2.2570    2.9830    2.5290 o         1 ZDA     -0.700000
     20 O2A        -3.1950    2.2220    0.3130 o         1 ZDA     -0.700000
     21 O3A        -1.9190    4.5090    0.5470 os        1 ZDA     -0.484800
     22 PB         -2.7450    5.8520    0.8780 p5        1 ZDA      0.988800
     23 O2B        -2.2010    6.4910    2.2520 o         1 ZDA     -0.698000
     24 O1B        -4.1810    5.5250    1.0210 o         1 ZDA     -0.698000
     25 O3B        -2.5510    6.9090   -0.3200 os        1 ZDA     -0.486800
     26 PG         -3.3120    8.2600   -0.7530 p5        1 ZDA      0.830900
     27 O2G        -2.8000    9.4820    0.1620 o         1 ZDA     -0.652833
     28 O3G        -2.9990    8.5810   -2.2990 o         1 ZDA     -0.652833
     29 O1G        -4.7700    8.0840   -0.5710 o         1 ZDA     -0.652833
     30 H1         -0.3840   -1.0000    0.1600 hc        1 ZDA      0.035200
     31 H2         -0.3840    0.4280   -0.9180 hc        1 ZDA      0.035200
     32 H3          0.1380   -0.5880    3.3880 hc        1 ZDA     -0.002633
     33 H4          0.0120    1.0760    3.9760 hc        1 ZDA     -0.002633
     34 H5          1.5700    0.2390    4.0160 hc        1 ZDA     -0.002633
     35 H6          1.3860    1.8800    2.1140 h1        1 ZDA      0.040700
     36 H7          1.9290    0.8940   -0.4810 h2        1 ZDA      0.053700
     37 H8          2.3900   -2.5390    1.0330 h5        1 ZDA      0.021800
     38 H9          3.7710   -4.7040   -4.5990 hn        1 ZDA      0.242800
     39 H10         3.7130   -5.0150   -2.8950 hn        1 ZDA      0.242800
     40 H11         2.2370   -0.4330   -5.1340 h5        1 ZDA     -0.028900
     41 H12        -1.1560    0.5090    1.7730 h1        1 ZDA      0.018700
@<TRIPOS>BOND
     1    1    5 1   
     2    1   16 1   
     3    1   30 1   
     4    1   31 1   
     5    2    3 1   
     6    2   32 1   
     7    2   33 1   
     8    2   34 1   
     9    3    4 1   
    10    3   16 1   
    11    3   35 1   
    12    4    5 1   
    13    5    6 1   
    14    5   36 1   
    15    6    7 1   
    16    6   15 1   
    17    7    8 2   
    18    7   37 1   
    19    8    9 1   
    20    9   10 ar  
    21    9   15 ar  
    22   10   11 1   
    23   10   12 ar  
    24   11   38 1   
    25   11   39 1   
    26   12   13 ar  
    27   13   14 ar  
    28   13   40 1   
    29   14   15 ar  
    30   16   17 1   
    31   16   41 1   
    32   17   18 1   
    33   18   19 1   
    34   18   20 1   
    35   18   21 1   
    36   21   22 1   
    37   22   23 1   
    38   22   24 1   
    39   22   25 1   
    40   25   26 1   
    41   26   27 1   
    42   26   28 1   
    43   26   29 1   
@<TRIPOS>SUBSTRUCTURE
     1 ZDA         1 TEMP              0 ****  ****    0 ROOT
