@<TRIPOS>MOLECULE
ZDM
   72    73     1     0     0
SMALL
bcc


@<TRIPOS>ATOM
      1 C1         -0.1980   -2.4090    0.6080 c3        1 ZDM      0.086100
      2 O1         -4.4030    0.3350    1.3470 os        1 ZDM     -0.424600
      3 C2         -1.6690   -2.2560    0.1900 c3        1 ZDM      0.121100
      4 O2         -6.2640    2.8950   -0.4520 oh        1 ZDM     -0.595800
      5 C3         -2.0490   -0.7640    0.1610 c3        1 ZDM      0.125100
      6 O3         -5.5960   -1.8040   -1.4140 oh        1 ZDM     -0.592800
      7 C4         -1.0570   -0.0020   -0.7390 c3        1 ZDM      0.108100
      8 O4         -7.3710    0.5210   -1.5360 oh        1 ZDM     -0.607800
      9 C5         -5.7050   -0.8360   -0.3910 c3        1 ZDM      0.094100
     10 O5          0.2770   -0.1780   -0.2600 os        1 ZDM     -0.444600
     11 C6          0.6960   -1.5370   -0.2920 c3        1 ZDM      0.307900
     12 C7         -6.0620    0.5310   -0.9930 c3        1 ZDM      0.074100
     13 O7         -3.3340   -0.5940   -0.4360 os        1 ZDM     -0.458600
     14 C8         -6.0450    1.6100    0.1020 c3        1 ZDM      0.125100
     15 C9         -4.6530    1.6130    0.7520 c3        1 ZDM      0.136100
     16 C10        -4.4250   -0.7580    0.4610 c3        1 ZDM      0.298900
     17 C11        -4.5540    2.6370    1.8820 c3        1 ZDM      0.136400
     18 O16         1.9690   -1.4940    0.3100 os        1 ZDM     -0.423600
     19 C18         2.9540   -0.8120   -0.4780 c3        1 ZDM      0.136400
     20 C19         4.2510   -0.8860    0.3070 c3        1 ZDM     -0.084400
     21 C22         5.3610   -0.1880   -0.4480 c3        1 ZDM     -0.078400
     22 C25         6.6640   -0.2520    0.3210 c3        1 ZDM     -0.078400
     23 C28         7.7770    0.4460   -0.4300 c3        1 ZDM     -0.079400
     24 C31         9.0800    0.3830    0.3380 c3        1 ZDM     -0.079400
     25 C34        10.1940    1.0810   -0.4120 c3        1 ZDM     -0.079400
     26 O49         0.1250   -3.7790    0.4490 oh        1 ZDM     -0.604800
     27 O55        -2.5040   -2.8950    1.1400 oh        1 ZDM     -0.603800
     28 C57        -1.3090    1.5100   -0.7160 c3        1 ZDM      0.137400
     29 O61        -0.2740    2.2050   -1.3760 oh        1 ZDM     -0.595800
     30 C20        11.4980    1.0190    0.3540 c3        1 ZDM     -0.080400
     31 C21        12.6100    1.7120   -0.3890 c3        1 ZDM     -0.093100
     32 H1         -0.0670   -2.1010    1.6830 h1        1 ZDM      0.079700
     33 H2         -1.8310   -2.7180   -0.8240 h1        1 ZDM      0.060700
     34 HO2        -7.0660    2.8280   -0.9890 ho        1 ZDM      0.426000
     35 H3         -2.0470   -0.3440    1.2050 h1        1 ZDM      0.097700
     36 HO3        -4.7690   -1.6360   -1.8870 ho        1 ZDM      0.420000
     37 H4         -1.1280   -0.3890   -1.7930 h1        1 ZDM      0.058700
     38 HO4        -7.4360   -0.2690   -2.0900 ho        1 ZDM      0.424000
     39 H6          0.7360   -1.9180   -1.3490 h2        1 ZDM      0.053700
     40 H101       -3.1130    3.5940    2.7360 ho        1 ZDM      0.404000
     41 H7         -5.3240    0.7950   -1.8020 h1        1 ZDM      0.062700
     42 H8         -6.8400    1.3870    0.8670 h1        1 ZDM      0.058700
     43 H9         -3.8660    1.8240   -0.0250 h1        1 ZDM      0.081700
     44 H10        -4.3000   -1.6690    1.1150 h2        1 ZDM      0.124700
     45 H11        -4.9280    2.1970    2.8440 h1        1 ZDM      0.048700
     46 H16        -5.1570    3.5440    1.6080 h1        1 ZDM      0.048700
     47 H18         3.0500   -1.3240   -1.4730 h1        1 ZDM      0.039200
     48 H18A        2.6320    0.2500   -0.6360 h1        1 ZDM      0.039200
     49 H19         4.1040   -0.4090    1.3110 hc        1 ZDM      0.054700
     50 H19A        4.5190   -1.9600    0.4850 hc        1 ZDM      0.054700
     51 H22         5.4940   -0.6670   -1.4540 hc        1 ZDM      0.042200
     52 H20         5.0810    0.8840   -0.6250 hc        1 ZDM      0.042200
     53 H25         6.5300    0.2270    1.3270 hc        1 ZDM      0.041700
     54 H221        6.9440   -1.3230    0.4990 hc        1 ZDM      0.041700
     55 H28         7.9100   -0.0320   -1.4360 hc        1 ZDM      0.040200
     56 H28A        7.4970    1.5180   -0.6080 hc        1 ZDM      0.040200
     57 H31         8.9470    0.8610    1.3440 hc        1 ZDM      0.039700
     58 H26         9.3610   -0.6890    0.5160 hc        1 ZDM      0.039700
     59 H34        10.3270    0.6030   -1.4190 hc        1 ZDM      0.039700
     60 H34A        9.9140    2.1530   -0.5900 hc        1 ZDM      0.039700
     61 HO49        1.0450   -3.8780    0.7290 ho        1 ZDM      0.425000
     62 HO55       -2.2090   -3.8150    1.1920 ho        1 ZDM      0.425000
     63 H57        -2.2370    1.7340   -1.3070 h1        1 ZDM      0.069700
     64 H57A       -1.4270    1.8730    0.3400 h1        1 ZDM      0.069700
     65 HO61        0.5420    2.0280   -0.8900 ho        1 ZDM      0.411000
     66 H341       11.3630    1.4960    1.3610 hc        1 ZDM      0.038700
     67 H35        11.7760   -0.0540    0.5320 hc        1 ZDM      0.038700
     68 H36        12.7770    1.2350   -1.3850 hc        1 ZDM      0.032700
     69 H37        12.3630    2.7890   -0.5540 hc        1 ZDM      0.032700
     70 H38        13.5620    1.6550    0.1930 hc        1 ZDM      0.032700
     71 H5         -6.5510   -1.2000    0.2600 h1        1 ZDM      0.100700
     72 O6         -3.1810    2.9790    1.9970 oh        1 ZDM     -0.603800
@<TRIPOS>BOND
     1    1    3 1   
     2    1   11 1   
     3    1   26 1   
     4    1   32 1   
     5    2   15 1   
     6    2   16 1   
     7    3    5 1   
     8    3   27 1   
     9    3   33 1   
    10    4   14 1   
    11    4   34 1   
    12    5    7 1   
    13    5   13 1   
    14    5   35 1   
    15    6    9 1   
    16    6   36 1   
    17    7   10 1   
    18    7   28 1   
    19    7   37 1   
    20    8   12 1   
    21    8   38 1   
    22    9   12 1   
    23    9   16 1   
    24    9   71 1   
    25   10   11 1   
    26   11   18 1   
    27   11   39 1   
    28   12   14 1   
    29   12   41 1   
    30   13   16 1   
    31   14   15 1   
    32   14   42 1   
    33   15   17 1   
    34   15   43 1   
    35   16   44 1   
    36   17   45 1   
    37   17   46 1   
    38   17   72 1   
    39   18   19 1   
    40   19   20 1   
    41   19   47 1   
    42   19   48 1   
    43   20   21 1   
    44   20   49 1   
    45   20   50 1   
    46   21   22 1   
    47   21   51 1   
    48   21   52 1   
    49   22   23 1   
    50   22   53 1   
    51   22   54 1   
    52   23   24 1   
    53   23   55 1   
    54   23   56 1   
    55   24   25 1   
    56   24   57 1   
    57   24   58 1   
    58   25   30 1   
    59   25   59 1   
    60   25   60 1   
    61   26   61 1   
    62   27   62 1   
    63   28   29 1   
    64   28   63 1   
    65   28   64 1   
    66   29   65 1   
    67   30   31 1   
    68   30   66 1   
    69   30   67 1   
    70   31   68 1   
    71   31   69 1   
    72   31   70 1   
    73   40   72 1   
@<TRIPOS>SUBSTRUCTURE
     1 ZDM         1 TEMP              0 ****  ****    0 ROOT
