@<TRIPOS>MOLECULE
ZDP
   28    27     1     0     0
SMALL
bcc


@<TRIPOS>ATOM
      1 OAE         4.0620    1.4240   -0.7660 o         1 ZDP     -0.859300
      2 CAP         3.9700    0.4210   -0.0040 c         1 ZDP      0.889600
      3 OAG         4.8400    0.1310    0.8720 o         1 ZDP     -0.859300
      4 CAS         2.7390   -0.5240   -0.1810 c3        1 ZDP      0.030500
      5 NAB         2.8640   -1.7940    0.5260 n3        1 ZDP     -0.898800
      6 CAK         1.4680    0.2610    0.1620 c3        1 ZDP     -0.070400
      7 CAJ         0.1990   -0.4580   -0.2510 c3        1 ZDP     -0.076400
      8 CAM        -1.0380    0.3270    0.1350 c3        1 ZDP     -0.062400
      9 CAT        -2.3710   -0.3140   -0.2980 c3        1 ZDP      0.037200
     10 NAC        -2.4600   -0.4730   -1.7570 n3        1 ZDP     -0.887800
     11 CAQ        -3.5220    0.6020    0.2770 c         1 ZDP      0.889600
     12 OAH        -4.3680    1.0850   -0.5350 o         1 ZDP     -0.855300
     13 OAF        -3.5670    0.7970    1.5230 o         1 ZDP     -0.855300
     14 CAN        -2.5340   -1.6730    0.3920 c3        1 ZDP     -0.056100
     15 HAS         2.6970   -0.7870   -1.2790 h1        1 ZDP      0.041700
     16 HAB1        3.8360   -1.9210    0.7620 hn        1 ZDP      0.326800
     17 HAB2        2.3640   -1.7380    1.3960 hn        1 ZDP      0.326800
     18 HAK1        1.4380    0.4760    1.2620 hc        1 ZDP      0.039200
     19 HAK2        1.5360    1.2480   -0.3690 hc        1 ZDP      0.039200
     20 HAJ1        0.2180   -0.6270   -1.3590 hc        1 ZDP      0.033200
     21 HAJ2        0.1620   -1.4680    0.2340 hc        1 ZDP      0.033200
     22 HAM1       -1.0800    0.4460    1.2500 hc        1 ZDP      0.039700
     23 HAM2       -0.9740    1.3580   -0.3030 hc        1 ZDP      0.039700
     24 HAC1       -3.4380   -0.4600   -1.9980 hn        1 ZDP      0.328800
     25 HAC2       -2.0490    0.3390   -2.1820 hn        1 ZDP      0.328800
     26 HAN1       -2.4510   -1.5200    1.4950 hc        1 ZDP      0.018033
     27 HAN2       -3.5400   -2.1030    0.1690 hc        1 ZDP      0.018033
     28 HAN3       -1.7550   -2.3980    0.0580 hc        1 ZDP      0.018033
@<TRIPOS>BOND
     1    1    2 1   
     2    2    3 1   
     3    2    4 1   
     4    4    5 1   
     5    4    6 1   
     6    4   15 1   
     7    5   16 1   
     8    5   17 1   
     9    6    7 1   
    10    6   18 1   
    11    6   19 1   
    12    7    8 1   
    13    7   20 1   
    14    7   21 1   
    15    8    9 1   
    16    8   22 1   
    17    8   23 1   
    18    9   10 1   
    19    9   11 1   
    20    9   14 1   
    21   10   24 1   
    22   10   25 1   
    23   11   12 1   
    24   11   13 1   
    25   14   26 1   
    26   14   27 1   
    27   14   28 1   
@<TRIPOS>SUBSTRUCTURE
     1 ZDP         1 TEMP              0 ****  ****    0 ROOT
