@<TRIPOS>MOLECULE
ZDP
   28    27     1     0     0
SMALL
bcc


@<TRIPOS>ATOM
      1 OAE        -0.4790    2.1670   -3.9120 o         1 ZDP     -0.859800
      2 CAP        -1.2850    2.1040   -2.9480 c         1 ZDP      0.887600
      3 OAG        -2.5200    1.9920   -3.1660 o         1 ZDP     -0.859800
      4 CAS        -0.7710    2.1620   -1.5280 c3        1 ZDP      0.029500
      5 NAB        -1.3430    3.2810   -0.8620 n3        1 ZDP     -0.896800
      6 CAK        -1.1550    0.8930   -0.8010 c3        1 ZDP     -0.067400
      7 CAJ         0.0720    0.2920   -0.1530 c3        1 ZDP     -0.076400
      8 CAM        -0.3240   -0.9380    0.6330 c3        1 ZDP     -0.055400
      9 CAT         0.9140   -1.5840    1.2170 c3        1 ZDP      0.035200
     10 NAC         1.6810   -0.6030    1.9040 n3        1 ZDP     -0.887800
     11 CAQ         1.7430   -2.1830    0.1030 c         1 ZDP      0.893600
     12 OAH         1.2420   -3.0540   -0.6560 o         1 ZDP     -0.852300
     13 OAF         2.9340   -1.8110   -0.0650 o         1 ZDP     -0.852300
     14 CAN         0.5060   -2.6730    2.1850 c3        1 ZDP     -0.061100
     15 HAS         0.2020    2.2500   -1.5370 h1        1 ZDP      0.044700
     16 HAB1       -0.6880    3.7330   -0.4080 hn        1 ZDP      0.325800
     17 HAB2       -1.7280    3.8390   -1.4780 hn        1 ZDP      0.325800
     18 HAK1       -1.8190    1.1000   -0.1130 hc        1 ZDP      0.038200
     19 HAK2       -1.5340    0.2540   -1.4380 hc        1 ZDP      0.038200
     20 HAJ1        0.7180    0.0430   -0.8440 hc        1 ZDP      0.038200
     21 HAJ2        0.4770    0.9480    0.4500 hc        1 ZDP      0.038200
     22 HAM1       -0.9300   -0.6820    1.3570 hc        1 ZDP      0.033200
     23 HAM2       -0.7740   -1.5730    0.0410 hc        1 ZDP      0.033200
     24 HAC1        2.4290   -0.9940    2.2590 hn        1 ZDP      0.331300
     25 HAC2        1.1780   -0.2390    2.5780 hn        1 ZDP      0.331300
     26 HAN1        0.0380   -2.2740    2.9480 hc        1 ZDP      0.015367
     27 HAN2        1.3040   -3.1450    2.5010 hc        1 ZDP      0.015367
     28 HAN3       -0.0900   -3.3060    1.7310 hc        1 ZDP      0.015367
@<TRIPOS>BOND
     1    1    2 1   
     2    2    3 1   
     3    2    4 1   
     4    4    5 1   
     5    4    6 1   
     6    4   15 1   
     7    5   16 1   
     8    5   17 1   
     9    6    7 1   
    10    6   18 1   
    11    6   19 1   
    12    7    8 1   
    13    7   20 1   
    14    7   21 1   
    15    8    9 1   
    16    8   22 1   
    17    8   23 1   
    18    9   10 1   
    19    9   11 1   
    20    9   14 1   
    21   10   24 1   
    22   10   25 1   
    23   11   12 1   
    24   11   13 1   
    25   14   26 1   
    26   14   27 1   
    27   14   28 1   
@<TRIPOS>SUBSTRUCTURE
     1 ZDP         1 TEMP              0 ****  ****    0 ROOT
