@<TRIPOS>MOLECULE
ZDR
   28    27     1     0     0
SMALL
bcc


@<TRIPOS>ATOM
      1 CAN         2.5130    0.1420   -1.8570 c3        1 ZDR     -0.056100
      2 CAT         2.4180    0.2910   -0.3350 c3        1 ZDR      0.036200
      3 NAC         2.5570    1.7040    0.0470 n3        1 ZDR     -0.884800
      4 CAQ         3.5730   -0.6040    0.2650 c         1 ZDR      0.889600
      5 OAF         4.4370   -0.0490    1.0100 o         1 ZDR     -0.854300
      6 OAH         3.6010   -1.8290   -0.0360 o         1 ZDR     -0.854300
      7 CAM         1.0900   -0.3160    0.1580 c3        1 ZDR     -0.061400
      8 CAJ        -0.1560    0.4000   -0.3230 c3        1 ZDR     -0.075400
      9 CAK        -1.4150   -0.2360    0.2330 c3        1 ZDR     -0.073400
     10 CAS        -2.6980    0.4540   -0.2440 c3        1 ZDR      0.030500
     11 NAB        -2.8210    1.8480    0.1640 n3        1 ZDR     -0.899800
     12 CAP        -3.9150   -0.4330    0.1750 c         1 ZDR      0.891600
     13 OAE        -4.0620   -1.5460   -0.4030 o         1 ZDR     -0.858800
     14 OAG        -4.7160    0.0080    1.0540 o         1 ZDR     -0.858800
     15 HAN1        3.5020    0.5100   -2.2230 hc        1 ZDR      0.018700
     16 HAN2        2.4210   -0.9410   -2.1100 hc        1 ZDR      0.018700
     17 HAN3        1.7070    0.7140   -2.3740 hc        1 ZDR      0.018700
     18 HAC1        2.2120    1.8040    0.9850 hn        1 ZDR      0.327800
     19 HAC2        3.5430    1.9060    0.0830 hn        1 ZDR      0.327800
     20 HAM1        1.0720   -1.3850   -0.1820 hc        1 ZDR      0.039200
     21 HAM2        1.0970   -0.3290    1.2800 hc        1 ZDR      0.039200
     22 HAJ1       -0.1130    1.4790   -0.0240 hc        1 ZDR      0.032700
     23 HAJ2       -0.1970    0.3730   -1.4440 hc        1 ZDR      0.032700
     24 HAK1       -1.4740   -1.3080   -0.0920 hc        1 ZDR      0.038700
     25 HAK2       -1.3760   -0.2290    1.3540 hc        1 ZDR      0.038700
     26 HAS        -2.6840    0.4640   -1.3740 h1        1 ZDR      0.040700
     27 HAB1       -3.7670    2.0000    0.4750 hn        1 ZDR      0.327300
     28 HAB2       -2.2280    2.0160    0.9570 hn        1 ZDR      0.327300
@<TRIPOS>BOND
     1    1    2 1   
     2    1   15 1   
     3    1   16 1   
     4    1   17 1   
     5    2    3 1   
     6    2    4 1   
     7    2    7 1   
     8    3   18 1   
     9    3   19 1   
    10    4    5 1   
    11    4    6 1   
    12    7    8 1   
    13    7   20 1   
    14    7   21 1   
    15    8    9 1   
    16    8   22 1   
    17    8   23 1   
    18    9   10 1   
    19    9   24 1   
    20    9   25 1   
    21   10   11 1   
    22   10   12 1   
    23   10   26 1   
    24   11   27 1   
    25   11   28 1   
    26   12   13 1   
    27   12   14 1   
@<TRIPOS>SUBSTRUCTURE
     1 ZDR         1 TEMP              0 ****  ****    0 ROOT
