@<TRIPOS>MOLECULE
ZDU
   42    43     1     0     0
SMALL
bcc


@<TRIPOS>ATOM
      1 P          -3.6800    0.6180    4.3620 p5        1 ZDU      1.438800
      2 OP1        -4.1060    1.0640    5.7050 o         1 ZDU     -0.848500
      3 OP2        -4.7040   -0.6190    4.0460 oh        1 ZDU     -0.785400
      4 O5'        -2.2880   -0.2480    4.5140 os        1 ZDU     -0.585200
      5 N1          1.2510   -2.2200    0.5480 n         1 ZDU     -0.318400
      6 C6          0.3060   -2.8130   -0.2480 c1        1 ZDU     -0.078900
      7 C2          2.4820   -2.8620    0.8560 c         1 ZDU      0.719100
      8 O2          3.4070   -2.3330    1.5320 o         1 ZDU     -0.707100
      9 N3          2.6980   -4.1430    0.3250 n         1 ZDU     -0.595500
     10 C4          1.7530   -4.8040   -0.4970 c         1 ZDU      0.677300
     11 O4          2.0810   -5.9530   -0.8960 o         1 ZDU     -0.727100
     12 C5          0.5400   -4.0740   -0.7830 ce        1 ZDU     -0.507500
     13 C5A        -0.4560   -4.7040   -1.6770 c3        1 ZDU      0.059800
     14 C5B        -1.8700   -4.5160   -1.1610 c3        1 ZDU     -0.115400
     15 C5G        -2.8930   -5.0710   -2.1500 c3        1 ZDU      0.138800
     16 N5D        -4.2840   -4.9220   -1.7820 n3        1 ZDU     -0.912800
     17 C2'         0.0780    0.0080    0.3810 c3        1 ZDU     -0.104400
     18 C5'        -1.8400   -0.9420    3.3870 c3        1 ZDU      0.192400
     19 C4'        -0.6820   -0.2040    2.6950 c3        1 ZDU      0.087100
     20 O4'         0.3920   -1.1300    2.4930 os        1 ZDU     -0.434600
     21 C1'         0.9920   -0.9390    1.1880 c3        1 ZDU      0.331500
     22 C3'        -1.0590    0.3980    1.3250 c3        1 ZDU      0.139100
     23 O3'        -1.1350    1.8110    1.3810 oh        1 ZDU     -0.646800
     24 OP3        -3.5250    1.4600    3.1550 o         1 ZDU     -0.848500
     25 H6         -5.1320   -0.9290    4.8350 ho        1 ZDU      0.422000
     26 HN3         3.5490   -4.5960    0.5580 hn        1 ZDU      0.301500
     27 H5A1       -0.3830   -4.2560   -2.7070 hc        1 ZDU      0.008200
     28 H5A2       -0.2350   -5.8010   -1.7830 hc        1 ZDU      0.008200
     29 H5B1       -1.9760   -5.0340   -0.1730 hc        1 ZDU      0.054700
     30 H5B2       -2.0450   -3.4220   -0.9820 hc        1 ZDU      0.054700
     31 H5G1       -2.7480   -4.5660   -3.1470 h1        1 ZDU      0.032700
     32 H5G2       -2.6970   -6.1710   -2.3000 h1        1 ZDU      0.032700
     33 H5D1       -4.4450   -5.3470   -0.8880 hn        1 ZDU      0.334300
     34 H5D2       -4.5080   -3.9470   -1.6930 hn        1 ZDU      0.334300
     35 H2'        -0.3320   -0.4940   -0.5300 hc        1 ZDU      0.068700
     36 H2''        0.6590    0.9100    0.0700 hc        1 ZDU      0.068700
     37 H5'        -1.4640   -1.9450    3.7360 h1        1 ZDU      0.037700
     38 H5''       -2.6950   -1.0950    2.6730 h1        1 ZDU      0.037700
     39 H4'        -0.2910    0.6040    3.3730 h1        1 ZDU      0.059700
     40 H1'         1.9950   -0.4540    1.3940 h2        1 ZDU      0.060700
     41 H3'        -2.0400   -0.0150    0.9660 h1        1 ZDU      0.055700
     42 HO3'       -1.9330    2.0210    1.8960 ho        1 ZDU      0.458000
@<TRIPOS>BOND
     1    1    2 1   
     2    1    3 1   
     3    1    4 1   
     4    1   24 1   
     5    3   25 1   
     6    4   18 1   
     7    5    6 2   
     8    5    7 1   
     9    5   21 1   
    10    6   12 2   
    11    7    8 2   
    12    7    9 1   
    13    9   10 1   
    14    9   26 1   
    15   10   11 2   
    16   10   12 1   
    17   12   13 1   
    18   13   14 1   
    19   13   27 1   
    20   13   28 1   
    21   14   15 1   
    22   14   29 1   
    23   14   30 1   
    24   15   16 1   
    25   15   31 1   
    26   15   32 1   
    27   16   33 1   
    28   16   34 1   
    29   17   21 1   
    30   17   22 1   
    31   17   35 1   
    32   17   36 1   
    33   18   19 1   
    34   18   37 1   
    35   18   38 1   
    36   19   20 1   
    37   19   22 1   
    38   19   39 1   
    39   20   21 1   
    40   21   40 1   
    41   22   23 1   
    42   22   41 1   
    43   23   42 1   
@<TRIPOS>SUBSTRUCTURE
     1 ZDU         1 TEMP              0 ****  ****    0 ROOT
