@<TRIPOS>MOLECULE
ZDU
   42    42     1     0     0
SMALL
bcc


@<TRIPOS>ATOM
      1 P          -4.7970    0.0700    5.1930 p4        1 ZDU      1.707200
      2 OP1        -5.8110   -1.0270    5.4240 o         1 ZDU     -0.927000
      3 OP2        -4.1970    0.4880    6.5140 os        1 ZDU     -1.243000
      4 O5'        -3.6450   -0.4660    4.2310 os        1 ZDU     -0.569200
      5 N1         -0.1950   -0.2610   -0.0470 n         1 ZDU     -0.368000
      6 C6          0.9220   -0.5610   -0.8690 cc        1 ZDU      0.068600
      7 C2         -1.4330    0.2420   -0.6470 c         1 ZDU      0.795500
      8 O2         -2.3900    0.5100    0.0630 o         1 ZDU     -0.708500
      9 N3         -1.5250    0.4260   -2.0940 n         1 ZDU     -0.596500
     10 C4         -0.4510    0.0230   -2.9290 c         1 ZDU      0.718700
     11 O4         -0.5690    0.0710   -4.1300 o         1 ZDU     -0.684500
     12 C5          0.7960   -0.4860   -2.3290 cd        1 ZDU     -0.301400
     13 C5A         1.8880   -1.0990   -3.2290 c3        1 ZDU      0.011800
     14 C5B         2.5570    0.0040   -4.0340 c3        1 ZDU     -0.159400
     15 C5G         3.7730   -0.5690   -4.7760 c3        1 ZDU      0.173800
     16 N5D         4.3570    0.4570   -5.6140 n3        1 ZDU     -0.921800
     17 C2'         0.4540    0.5640    1.9200 c3        1 ZDU     -0.116400
     18 C5'        -2.7470    0.4690    3.6650 c3        1 ZDU      0.226400
     19 C4'        -1.4730   -0.2750    3.1700 c3        1 ZDU      0.064100
     20 O4'        -1.5860   -0.5720    1.9580 os        1 ZDU     -0.438600
     21 C1'        -0.1210   -0.4680    1.3380 c3        1 ZDU      0.302500
     22 C3'        -0.2150    0.6770    3.2470 c3        1 ZDU      0.102100
     23 O3'         0.6220    0.2680    4.2310 oh        1 ZDU     -0.655800
     24 OP3        -5.4740    1.2500    4.5550 o         1 ZDU     -0.975800
     25 H6          1.7450   -0.8960   -0.4680 h4        1 ZDU      0.294000
     26 HN3        -2.3070    0.7440   -2.4700 hn        1 ZDU      0.322500
     27 H5A1        2.5610   -1.5510   -2.6660 hc        1 ZDU      0.038200
     28 H5A2        1.4830   -1.7470   -3.8380 hc        1 ZDU      0.038200
     29 H5B1        1.9240    0.3650   -4.6800 hc        1 ZDU      0.087200
     30 H5B2        2.8480    0.7130   -3.4340 hc        1 ZDU      0.087200
     31 H5G1        3.4880   -1.3300   -5.3380 h1        1 ZDU      0.014200
     32 H5G2        4.4380   -0.8760   -4.1250 h1        1 ZDU      0.014200
     33 H5D1        5.1990    0.6370   -5.3290 hn        1 ZDU      0.363300
     34 H5D2        4.3850    0.1610   -6.4910 hn        1 ZDU      0.363300
     35 H2'         1.4110    0.3990    2.0340 hc        1 ZDU      0.053200
     36 H2''        0.3070    1.3790    1.3920 hc        1 ZDU      0.053200
     37 H5'        -3.1760    0.9170    2.9130 h1        1 ZDU     -0.003300
     38 H5''       -2.4940    1.1400    4.3500 h1        1 ZDU     -0.003300
     39 H4'        -1.3220   -1.0770    3.7010 h1        1 ZDU      0.049700
     40 H1'         0.3800   -1.2800    1.5280 h2        1 ZDU      0.086700
     41 H3'        -0.4980    1.5970    3.4050 h1        1 ZDU      0.154700
     42 HO3'        0.8870    0.9690    4.7040 ho        1 ZDU      0.480000
@<TRIPOS>BOND
     1    1    2 1   
     2    1    4 1   
     3    1   24 2   
     4    4   18 1   
     5    5    6 1   
     6    5    7 1   
     7    5   21 1   
     8    6   12 2   
     9    6   25 1   
    10    7    8 2   
    11    7    9 1   
    12    9   10 1   
    13    9   26 1   
    14   10   11 2   
    15   10   12 1   
    16   12   13 1   
    17   13   14 1   
    18   13   27 1   
    19   13   28 1   
    20   14   15 1   
    21   14   29 1   
    22   14   30 1   
    23   15   16 1   
    24   15   31 1   
    25   15   32 1   
    26   16   33 1   
    27   16   34 1   
    28   17   21 1   
    29   17   22 1   
    30   17   35 1   
    31   17   36 1   
    32   18   19 1   
    33   18   37 1   
    34   18   38 1   
    35   19   20 1   
    36   19   22 1   
    37   19   39 1   
    38   20   21 1   
    39   21   40 1   
    40   22   23 1   
    41   22   41 1   
    42   23   42 1   
@<TRIPOS>SUBSTRUCTURE
     1 ZDU         1 TEMP              0 ****  ****    0 ROOT
