@<TRIPOS>MOLECULE
ZDV
   17    17     1     0     0
SMALL
bcc


@<TRIPOS>ATOM
      1 C1         -0.6250    1.3080   -0.1210 ca        1 ZDV     -0.124000
      2 C2         -0.8340   -0.0250    0.2510 ca        1 ZDV     -0.068300
      3 C3         -2.2220   -0.5360    0.5100 c3        1 ZDV      0.202100
      4 N9         -3.1720   -0.1890   -0.5230 n3        1 ZDV     -0.916800
      5 C18         0.2550   -0.8830    0.4180 ca        1 ZDV     -0.164000
      6 C19         1.5580   -0.3960    0.2120 ca        1 ZDV      0.120900
      7 F7          2.6180   -1.2250    0.3750 f         1 ZDV     -0.142900
      8 C20         1.7680    0.9440   -0.1640 ca        1 ZDV     -0.164000
      9 C21         0.6690    1.7820   -0.3270 ca        1 ZDV     -0.110000
     10 H1         -1.4870    1.9800   -0.2500 ha        1 ZDV      0.153000
     11 H3         -2.1680   -1.6530    0.6860 h1        1 ZDV      0.036700
     12 H3A        -2.5920   -0.0710    1.4710 h1        1 ZDV      0.036700
     13 HN9        -2.8110   -0.3950   -1.4330 hn        1 ZDV      0.353800
     14 H18         0.1100   -1.9330    0.7090 ha        1 ZDV      0.147000
     15 H20         2.7920    1.3120   -0.3230 ha        1 ZDV      0.148000
     16 H21         0.8270    2.8310   -0.6210 ha        1 ZDV      0.138000
     17 H2         -4.0280   -0.6880   -0.3850 hn        1 ZDV      0.353800
@<TRIPOS>BOND
     1    1    2 ar  
     2    1    9 ar  
     3    1   10 1   
     4    2    3 1   
     5    2    5 ar  
     6    3    4 1   
     7    3   11 1   
     8    3   12 1   
     9    4   13 1   
    10    4   17 1   
    11    5    6 ar  
    12    5   14 1   
    13    6    7 1   
    14    6    8 ar  
    15    8    9 ar  
    16    8   15 1   
    17    9   16 1   
@<TRIPOS>SUBSTRUCTURE
     1 ZDV         1 TEMP              0 ****  ****    0 ROOT
