@<TRIPOS>MOLECULE
ZDV
   18    18     1     0     0
SMALL
bcc


@<TRIPOS>ATOM
      1 C1         -0.0560   -0.0550    0.0020 ca        1 ZDV     -0.108000
      2 C2          1.3390    0.0260   -0.0190 ca        1 ZDV     -0.170300
      3 C3          2.0710    0.0050   -1.3170 c3        1 ZDV      0.172100
      4 N9          2.4930    1.3890   -1.7180 n4        1 ZDV     -0.844600
      5 C18         2.0670    0.0860    1.1740 ca        1 ZDV     -0.157000
      6 C19         1.3790    0.0670    2.4000 ca        1 ZDV      0.151900
      7 F7          2.0730    0.1280    3.5560 f         1 ZDV     -0.107900
      8 C20        -0.0290   -0.0160    2.4230 ca        1 ZDV     -0.111000
      9 C21        -0.7310   -0.0790    1.2240 ca        1 ZDV     -0.091000
     10 H1         -0.6280   -0.1200   -0.9370 ha        1 ZDV      0.148000
     11 H3          3.0060   -0.6240   -1.2380 hx        1 ZDV      0.116700
     12 H3A         1.4210   -0.4070   -2.1430 hx        1 ZDV      0.116700
     13 HN9         3.0750    1.8000   -0.9800 hn        1 ZDV      0.459800
     14 H18         3.1670    0.1210    1.1730 ha        1 ZDV      0.153000
     15 H20        -0.5560   -0.0370    3.3920 ha        1 ZDV      0.181000
     16 H21        -1.8320   -0.1530    1.2390 ha        1 ZDV      0.170000
     17 H2          1.6670    1.9830   -1.8450 hn        1 ZDV      0.459800
     18 H93         3.0240    1.3590   -2.5920 hn        1 ZDV      0.459800
@<TRIPOS>BOND
     1    1    2 ar  
     2    1    9 ar  
     3    1   10 1   
     4    2    3 1   
     5    2    5 ar  
     6    3    4 1   
     7    3   11 1   
     8    3   12 1   
     9    4   13 1   
    10    4   17 1   
    11    4   18 1   
    12    5    6 ar  
    13    5   14 1   
    14    6    7 1   
    15    6    8 ar  
    16    8    9 ar  
    17    8   15 1   
    18    9   16 1   
@<TRIPOS>SUBSTRUCTURE
     1 ZDV         1 TEMP              0 ****  ****    0 ROOT
