@<TRIPOS>MOLECULE
ZDV
   18    18     1     0     0
SMALL
bcc


@<TRIPOS>ATOM
      1 C1         -0.0570   -0.0420   -0.0070 ca        1 ZDV     -0.108000
      2 C2          1.3380    0.0260   -0.0200 ca        1 ZDV     -0.170300
      3 C3          2.0770    0.0030   -1.3130 c3        1 ZDV      0.172100
      4 N9          2.5130    1.3850   -1.7070 nz        1 ZDV     -0.844600
      5 C18         2.0600    0.0740    1.1780 ca        1 ZDV     -0.157000
      6 C19         1.3650    0.0580    2.4000 ca        1 ZDV      0.151900
      7 F7          2.0520    0.1070    3.5600 f         1 ZDV     -0.107900
      8 C20        -0.0450   -0.0120    2.4140 ca        1 ZDV     -0.111000
      9 C21        -0.7400   -0.0640    1.2110 ca        1 ZDV     -0.091000
     10 H1         -0.6250   -0.0980   -0.9500 ha        1 ZDV      0.148000
     11 H3          3.0060   -0.6340   -1.2320 hx        1 ZDV      0.116700
     12 H3A         1.4290   -0.4010   -2.1440 hx        1 ZDV      0.116700
     13 HN9         3.0950    1.7880   -0.9650 hn        1 ZDV      0.459800
     14 H18         3.1600    0.0990    1.1840 ha        1 ZDV      0.153000
     15 H20        -0.5780   -0.0320    3.3800 ha        1 ZDV      0.181000
     16 H21        -1.8410   -0.1280    1.2190 ha        1 ZDV      0.170000
     17 H2          1.6930    1.9870   -1.8370 hn        1 ZDV      0.459800
     18 H93         3.0500    1.3530   -2.5790 hn        1 ZDV      0.459800
@<TRIPOS>BOND
     1    1    2 ar  
     2    1    9 ar  
     3    1   10 1   
     4    2    3 1   
     5    2    5 ar  
     6    3    4 1   
     7    3   11 1   
     8    3   12 1   
     9    4   13 1   
    10    4   17 1   
    11    4   18 1   
    12    5    6 ar  
    13    5   14 1   
    14    6    7 1   
    15    6    8 ar  
    16    8    9 ar  
    17    8   15 1   
    18    9   16 1   
@<TRIPOS>SUBSTRUCTURE
     1 ZDV         1 TEMP              0 ****  ****    0 ROOT
