@<TRIPOS>MOLECULE
ZE8
   28    29     1     0     0
SMALL
bcc


@<TRIPOS>ATOM
      1 N1         -0.0280    0.1300   -0.2490 n         1 ZE8     -0.384000
      2 C2          1.4030    0.0200   -0.3930 c         1 ZE8      0.810900
      3 O2          1.9150    0.2720   -1.5010 o         1 ZE8     -0.614500
      4 N3          2.1990   -0.3410    0.7290 nc        1 ZE8     -0.618100
      5 C4          1.6010   -0.6040    1.8630 cd        1 ZE8      0.543500
      6 C5          0.1740   -0.5520    2.0490 cd        1 ZE8     -0.398600
      7 C6         -0.5950   -0.2090    0.9640 cc        1 ZE8      0.053600
      8 C1'        -0.9210    0.3730   -1.3790 c3        1 ZE8      0.273500
      9 C2'        -0.4830    1.5080   -2.3560 c3        1 ZE8      0.078100
     10 O2'        -1.4300    2.5570   -2.3030 oh        1 ZE8     -0.593800
     11 C3'        -0.5350    0.8710   -3.7630 c3        1 ZE8      0.135100
     12 O3'        -1.6070    1.3330   -4.5590 oh        1 ZE8     -0.587800
     13 C4'        -0.7580   -0.6320   -3.5240 c3        1 ZE8      0.098100
     14 O4'        -1.0950   -0.8270   -2.1410 os        1 ZE8     -0.425600
     15 C5'         0.4820   -1.4600   -3.8580 c3        1 ZE8      0.109400
     16 O5'         0.2270   -2.8380   -3.6900 oh        1 ZE8     -0.593800
     17 H1          2.2520   -0.8890    2.7140 h4        1 ZE8      0.042800
     18 H2         -0.2720   -0.7920    3.0190 ha        1 ZE8      0.164000
     19 H3         -1.7000   -0.1800    1.0260 h4        1 ZE8      0.161000
     20 H4         -1.9470    0.6200   -0.9630 h2        1 ZE8      0.089700
     21 H5          0.5510    1.8870   -2.1400 h1        1 ZE8      0.096700
     22 H6         -1.1430    3.1630   -1.6090 ho        1 ZE8      0.416000
     23 H7          0.4330    1.0620   -4.3010 h1        1 ZE8      0.069700
     24 H8         -1.6880    2.2860   -4.4230 ho        1 ZE8      0.425000
     25 H9         -1.6520   -1.0070   -4.0980 h1        1 ZE8      0.105700
     26 H10         0.7370   -1.3420   -4.9450 h1        1 ZE8      0.068200
     27 H11         1.3490   -1.1390   -3.2190 h1        1 ZE8      0.068200
     28 H12        -0.0420   -2.9650   -2.7710 ho        1 ZE8      0.408000
@<TRIPOS>BOND
     1    1    2 1   
     2    1    7 1   
     3    1    8 1   
     4    2    3 2   
     5    2    4 1   
     6    4    5 2   
     7    5    6 1   
     8    5   17 1   
     9    6    7 2   
    10    6   18 1   
    11    7   19 1   
    12    8    9 1   
    13    8   14 1   
    14    8   20 1   
    15    9   10 1   
    16    9   11 1   
    17    9   21 1   
    18   10   22 1   
    19   11   12 1   
    20   11   13 1   
    21   11   23 1   
    22   12   24 1   
    23   13   14 1   
    24   13   15 1   
    25   13   25 1   
    26   15   16 1   
    27   15   26 1   
    28   15   27 1   
    29   16   28 1   
@<TRIPOS>SUBSTRUCTURE
     1 ZE8         1 TEMP              0 ****  ****    0 ROOT
