@<TRIPOS>MOLECULE
ZE8
   28    29     1     0     0
SMALL
bcc


@<TRIPOS>ATOM
      1 N1         -0.0300    0.1200   -0.2380 n         1 ZE8     -0.382000
      2 C2          1.3990    0.0790   -0.4260 c         1 ZE8      0.811900
      3 O2          1.8640    0.3910   -1.5400 o         1 ZE8     -0.618500
      4 N3          2.2420   -0.2960    0.6560 nc        1 ZE8     -0.619100
      5 C4          1.6880   -0.6250    1.7960 cd        1 ZE8      0.544500
      6 C5          0.2680   -0.6310    2.0260 cd        1 ZE8     -0.399600
      7 C6         -0.5470   -0.2710    0.9820 cc        1 ZE8      0.058600
      8 C1'        -0.9630    0.4270   -1.3170 c3        1 ZE8      0.299500
      9 C2'        -0.5320    1.5960   -2.2490 c3        1 ZE8      0.088100
     10 O2'        -1.6270    2.4970   -2.2640 oh        1 ZE8     -0.605800
     11 C3'        -0.3210    0.9550   -3.6400 c3        1 ZE8      0.096100
     12 O3'        -1.0870    1.6170   -4.6210 oh        1 ZE8     -0.587800
     13 C4'        -0.7100   -0.5230   -3.4810 c3        1 ZE8      0.068100
     14 O4'        -1.1840   -0.7260   -2.1400 os        1 ZE8     -0.429600
     15 C5'         0.4610   -1.4680   -3.7480 c3        1 ZE8      0.114400
     16 O5'         0.0540   -2.8160   -3.6440 oh        1 ZE8     -0.594800
     17 H1          2.3750   -0.9160    2.6150 h4        1 ZE8      0.041800
     18 H2         -0.1390   -0.9220    3.0000 ha        1 ZE8      0.164000
     19 H3         -1.6500   -0.2710    1.0800 h4        1 ZE8      0.162000
     20 H4         -1.9730    0.6580   -0.8550 h2        1 ZE8      0.102700
     21 H5          0.3950    2.1210   -1.8990 h1        1 ZE8      0.094700
     22 H6         -1.3980    3.1960   -2.8930 ho        1 ZE8      0.427000
     23 H7          0.7470    1.0680   -3.9740 h1        1 ZE8      0.117700
     24 H8         -2.0200    1.5130   -4.3860 ho        1 ZE8      0.413000
     25 H9         -1.5810   -0.7960   -4.1410 h1        1 ZE8      0.086700
     26 H10         0.8110   -1.3490   -4.8080 h1        1 ZE8      0.069200
     27 H11         1.3040   -1.2530   -3.0370 h1        1 ZE8      0.069200
     28 H12        -0.2910   -2.9380   -2.7500 ho        1 ZE8      0.408000
@<TRIPOS>BOND
     1    1    2 1   
     2    1    7 1   
     3    1    8 1   
     4    2    3 2   
     5    2    4 1   
     6    4    5 2   
     7    5    6 1   
     8    5   17 1   
     9    6    7 2   
    10    6   18 1   
    11    7   19 1   
    12    8    9 1   
    13    8   14 1   
    14    8   20 1   
    15    9   10 1   
    16    9   11 1   
    17    9   21 1   
    18   10   22 1   
    19   11   12 1   
    20   11   13 1   
    21   11   23 1   
    22   12   24 1   
    23   13   14 1   
    24   13   15 1   
    25   13   25 1   
    26   15   16 1   
    27   15   26 1   
    28   15   27 1   
    29   16   28 1   
@<TRIPOS>SUBSTRUCTURE
     1 ZE8         1 TEMP              0 ****  ****    0 ROOT
