@<TRIPOS>MOLECULE
ZEA
   29    30     1     0     0
SMALL
bcc


@<TRIPOS>ATOM
      1 O16         4.8560    1.8320    0.0090 oh        1 ZEA     -0.601800
      2 C14         5.1360    0.4540    0.2030 c3        1 ZEA      0.171600
      3 C13         3.8610   -0.3240    0.2490 c2        1 ZEA     -0.126400
      4 C15         4.0320   -1.7800    0.4650 c3        1 ZEA     -0.065900
      5 C12         2.6590    0.2550    0.1060 c2        1 ZEA     -0.168200
      6 C11         1.3960   -0.5430    0.1510 c3        1 ZEA      0.253000
      7 N10         0.2020    0.2510    0.0220 nh        1 ZEA     -0.860900
      8 C6         -1.0550   -0.2980    0.0410 ca        1 ZEA      0.766200
      9 C5         -2.2050    0.5570   -0.0840 ca        1 ZEA     -0.234200
     10 N9         -2.3540    1.9430   -0.2300 nc        1 ZEA     -0.540100
     11 C4         -3.5150   -0.0840   -0.0620 ca        1 ZEA      0.454800
     12 N7         -4.4380    0.9590   -0.1990 na        1 ZEA     -0.379000
     13 C8         -3.6790    2.1470   -0.2940 cd        1 ZEA      0.395700
     14 N3         -3.7020   -1.4330    0.0690 nb        1 ZEA     -0.738000
     15 C2         -2.5340   -2.1060    0.1760 ca        1 ZEA      0.687900
     16 N1         -1.2520   -1.6530    0.1730 nb        1 ZEA     -0.798000
     17 H16         5.7100    2.2800   -0.0140 ho        1 ZEA      0.403000
     18 H141        5.7760    0.0740   -0.6420 h1        1 ZEA      0.031700
     19 H142        5.6950    0.3140    1.1710 h1        1 ZEA      0.031700
     20 H151        5.1110   -2.0640    0.5230 hc        1 ZEA      0.046367
     21 H152        3.5330   -2.0910    1.4180 hc        1 ZEA      0.046367
     22 H153        3.5600   -2.3540   -0.3730 hc        1 ZEA      0.046367
     23 H12         2.5840    1.3440   -0.0520 ha        1 ZEA      0.152000
     24 H111        1.4180   -1.3130   -0.6800 h1        1 ZEA      0.062200
     25 H112        1.3560   -1.1160    1.1270 h1        1 ZEA      0.062200
     26 H10         0.2810    1.2380   -0.0670 hn        1 ZEA      0.460800
     27 H7         -5.4180    0.8710   -0.2220 hn        1 ZEA      0.317700
     28 H8         -4.1640    3.1230   -0.4090 h5        1 ZEA      0.072800
     29 H2         -2.6320   -3.2090    0.2860 h5        1 ZEA      0.050100
@<TRIPOS>BOND
     1    1    2 1   
     2    1   17 1   
     3    2    3 1   
     4    2   18 1   
     5    2   19 1   
     6    3    4 1   
     7    3    5 2   
     8    4   20 1   
     9    4   21 1   
    10    4   22 1   
    11    5    6 1   
    12    5   23 1   
    13    6    7 1   
    14    6   24 1   
    15    6   25 1   
    16    7    8 1   
    17    7   26 1   
    18    8    9 ar  
    19    8   16 ar  
    20    9   10 1   
    21    9   11 ar  
    22   10   13 2   
    23   11   12 1   
    24   11   14 ar  
    25   12   13 1   
    26   12   27 1   
    27   13   28 1   
    28   14   15 ar  
    29   15   16 ar  
    30   15   29 1   
@<TRIPOS>SUBSTRUCTURE
     1 ZEA         1 TEMP              0 ****  ****    0 ROOT
