@<TRIPOS>MOLECULE
ZEA
   30    31     1     0     0
SMALL
bcc


@<TRIPOS>ATOM
      1 O16         0.2890    0.3650   -0.1770 oh        1 ZEA     -0.607800
      2 C14         1.5220   -0.2980    0.0480 c3        1 ZEA      0.149600
      3 C13         1.9070   -0.1590    1.4900 c2        1 ZEA     -0.004400
      4 C15         3.2530   -0.6840    1.8200 c3        1 ZEA     -0.098900
      5 C12         1.0600    0.3770    2.3860 c2        1 ZEA     -0.287200
      6 C11         1.3450    0.4980    3.8360 c3        1 ZEA      0.171000
      7 N10         1.4250    1.9540    4.2300 n4        1 ZEA     -0.748700
      8 C6          1.6360    2.1210    5.6800 ca        1 ZEA      0.543200
      9 C5          0.5800    2.6000    6.4810 ca        1 ZEA     -0.141200
     10 N9         -0.7390    2.9950    6.2320 nc        1 ZEA     -0.576100
     11 C4          0.8830    2.7430    7.9240 ca        1 ZEA      0.452800
     12 N7         -0.3010    3.2290    8.4890 na        1 ZEA     -0.360000
     13 C8         -1.2250    3.3580    7.4350 cd        1 ZEA      0.498700
     14 N3          2.0890    2.4360    8.4640 nb        1 ZEA     -0.620000
     15 C2          2.9940    1.9870    7.5590 ca        1 ZEA      0.671900
     16 N1          2.8450    1.8110    6.2130 nb        1 ZEA     -0.687000
     17 H16         0.0200    0.1520   -1.0800 ho        1 ZEA      0.427000
     18 H141        1.4330   -1.3920   -0.2030 h1        1 ZEA      0.060700
     19 H142        2.3220    0.1630   -0.5970 h1        1 ZEA      0.060700
     20 H151        3.8460    0.0660    2.4000 hc        1 ZEA      0.066033
     21 H152        3.1630   -1.6150    2.4360 hc        1 ZEA      0.066033
     22 H153        3.8290   -0.9380    0.8950 hc        1 ZEA      0.066033
     23 H12         0.0560    0.7090    2.0630 ha        1 ZEA      0.174000
     24 H111        2.3200    0.0120    4.1260 hx        1 ZEA      0.111200
     25 H112        0.5100    0.0350    4.4390 hx        1 ZEA      0.111200
     26 H10         2.1980    2.3950    3.7150 hn        1 ZEA      0.471300
     27 H7         -0.4450    3.4400    9.4470 hn        1 ZEA      0.351700
     28 H8         -2.2500    3.7280    7.6110 h5        1 ZEA      0.109800
     29 H2          4.0010    1.7260    7.9630 h5        1 ZEA      0.098100
     30 H102        0.5470    2.4240    3.9670 hn        1 ZEA      0.471300
@<TRIPOS>BOND
     1    1    2 1   
     2    1   17 1   
     3    2    3 1   
     4    2   18 1   
     5    2   19 1   
     6    3    4 1   
     7    3    5 2   
     8    4   20 1   
     9    4   21 1   
    10    4   22 1   
    11    5    6 1   
    12    5   23 1   
    13    6    7 1   
    14    6   24 1   
    15    6   25 1   
    16    7    8 1   
    17    7   26 1   
    18    7   30 1   
    19    8    9 ar  
    20    8   16 ar  
    21    9   10 1   
    22    9   11 ar  
    23   10   13 2   
    24   11   12 1   
    25   11   14 ar  
    26   12   13 1   
    27   12   27 1   
    28   13   28 1   
    29   14   15 ar  
    30   15   16 ar  
    31   15   29 1   
@<TRIPOS>SUBSTRUCTURE
     1 ZEA         1 TEMP              0 ****  ****    0 ROOT
