@<TRIPOS>MOLECULE
ZEA
   29    30     1     0     0
SMALL
bcc


@<TRIPOS>ATOM
      1 O16         0.2830    0.3790   -0.2020 oh        1 ZEA     -0.601800
      2 C14         1.5260   -0.2890   -0.0470 c3        1 ZEA      0.171600
      3 C13         2.0260   -0.1190    1.3510 c2        1 ZEA     -0.126400
      4 C15         3.3360   -0.7570    1.6210 c3        1 ZEA     -0.065900
      5 C12         1.3400    0.5590    2.2840 c2        1 ZEA     -0.168200
      6 C11         1.8560    0.7120    3.6780 c3        1 ZEA      0.253000
      7 N10         1.0210    1.5280    4.5200 nu        1 ZEA     -0.860900
      8 C6          1.3250    1.7870    5.8320 ca        1 ZEA      0.766200
      9 C5          0.4540    2.6250    6.6110 ca        1 ZEA     -0.234200
     10 N9         -0.7370    3.3020    6.3140 nc        1 ZEA     -0.540100
     11 C4          0.8240    2.8590    8.0030 ca        1 ZEA      0.454800
     12 N7         -0.1770    3.6900    8.5160 na        1 ZEA     -0.379000
     13 C8         -1.0820    3.9180    7.4560 cd        1 ZEA      0.395700
     14 N3          1.9400    2.3310    8.5930 nb        1 ZEA     -0.738000
     15 C2          2.6620    1.5680    7.7410 ca        1 ZEA      0.687900
     16 N1          2.4460    1.2620    6.4330 nb        1 ZEA     -0.798000
     17 H16         0.0100    0.2340   -1.1150 ho        1 ZEA      0.403000
     18 H141        2.2780    0.1390   -0.7680 h1        1 ZEA      0.031700
     19 H142        1.3970   -1.3860   -0.2680 h1        1 ZEA      0.031700
     20 H151        3.7120   -1.3180    0.7310 hc        1 ZEA      0.046367
     21 H152        4.0950    0.0190    1.8950 hc        1 ZEA      0.046367
     22 H153        3.2500   -1.4720    2.4790 hc        1 ZEA      0.046367
     23 H12         0.3680    1.0170    2.0320 ha        1 ZEA      0.152000
     24 H111        1.9580   -0.3150    4.1450 h1        1 ZEA      0.062200
     25 H112        2.8960    1.1590    3.6410 h1        1 ZEA      0.062200
     26 H10         0.2050    1.9470    4.1360 hn        1 ZEA      0.460800
     27 H7         -0.2300    4.0390    9.4360 hn        1 ZEA      0.317700
     28 H8         -1.9700    4.5460    7.5930 h5        1 ZEA      0.072800
     29 H2          3.5810    1.1160    8.1730 h5        1 ZEA      0.050100
@<TRIPOS>BOND
     1    1    2 1   
     2    1   17 1   
     3    2    3 1   
     4    2   18 1   
     5    2   19 1   
     6    3    4 1   
     7    3    5 2   
     8    4   20 1   
     9    4   21 1   
    10    4   22 1   
    11    5    6 1   
    12    5   23 1   
    13    6    7 1   
    14    6   24 1   
    15    6   25 1   
    16    7    8 1   
    17    7   26 1   
    18    8    9 ar  
    19    8   16 ar  
    20    9   10 1   
    21    9   11 ar  
    22   10   13 2   
    23   11   12 1   
    24   11   14 ar  
    25   12   13 1   
    26   12   27 1   
    27   13   28 1   
    28   14   15 ar  
    29   15   16 ar  
    30   15   29 1   
@<TRIPOS>SUBSTRUCTURE
     1 ZEA         1 TEMP              0 ****  ****    0 ROOT
