@<TRIPOS>MOLECULE
ZEB
   31    32     1     0     0
SMALL
bcc


@<TRIPOS>ATOM
      1 N1         -0.1130    0.3390   -0.1790 n         1 ZEB     -0.387000
      2 C2          1.3070    0.2700   -0.2300 c         1 ZEB      0.799500
      3 O2          1.9330    0.4230   -1.3060 o         1 ZEB     -0.674500
      4 N3          2.0300    0.1520    0.9670 n         1 ZEB     -0.558900
      5 C4          1.4150   -0.3290    2.1950 c3        1 ZEB      0.335700
      6 O4          1.8920   -1.6300    2.5480 oh        1 ZEB     -0.603800
      7 C5         -0.0810   -0.4320    2.1120 c2        1 ZEB     -0.258200
      8 C6         -0.7480   -0.1250    0.9830 c2        1 ZEB      0.006600
      9 C1'        -0.9130    0.4180   -1.3930 c3        1 ZEB      0.281500
     10 C2'        -0.4580    1.4910   -2.4300 c3        1 ZEB      0.080100
     11 O2'        -1.4310    2.5130   -2.5140 oh        1 ZEB     -0.596800
     12 C3'        -0.4100    0.7490   -3.7840 c3        1 ZEB      0.136100
     13 O3'        -1.4670    1.0870   -4.6590 oh        1 ZEB     -0.588800
     14 C4'        -0.5650   -0.7420   -3.4370 c3        1 ZEB      0.099100
     15 O4'        -0.9670   -0.8500   -2.0620 os        1 ZEB     -0.432600
     16 C5'         0.7370   -1.5160   -3.6370 c3        1 ZEB      0.109400
     17 O5'         0.5580   -2.8880   -3.3530 oh        1 ZEB     -0.595800
     18 HN3         2.9930   -0.0760    0.8360 hn        1 ZEB      0.321500
     19 H4          1.7060    0.4060    3.0100 h2        1 ZEB      0.056700
     20 HO4         2.7740   -1.5300    2.9260 ho        1 ZEB      0.404000
     21 H5         -0.5850   -0.7950    3.0150 ha        1 ZEB      0.165000
     22 H6         -1.8510   -0.1970    0.9190 h4        1 ZEB      0.160000
     23 H1'        -1.9790    0.6400   -1.0750 h2        1 ZEB      0.090700
     24 H2'         0.5510    1.9210   -2.1880 h1        1 ZEB      0.094700
     25 HO2        -1.2720    3.1130   -1.7750 ho        1 ZEB      0.417000
     26 H3'         0.5700    0.9520   -4.2940 h1        1 ZEB      0.066700
     27 HO3        -1.5950    2.0440   -4.6120 ho        1 ZEB      0.425000
     28 H4'        -1.4010   -1.2120   -4.0260 h1        1 ZEB      0.103700
     29 H5'1        1.0420   -1.4790   -4.7160 h1        1 ZEB      0.065700
     30 H5'2        1.5480   -1.0860   -2.9890 h1        1 ZEB      0.065700
     31 HO5         0.2230   -2.9480   -2.4500 ho        1 ZEB      0.410000
@<TRIPOS>BOND
     1    1    2 1   
     2    1    8 1   
     3    1    9 1   
     4    2    3 2   
     5    2    4 1   
     6    4    5 1   
     7    4   18 1   
     8    5    6 1   
     9    5    7 1   
    10    5   19 1   
    11    6   20 1   
    12    7    8 2   
    13    7   21 1   
    14    8   22 1   
    15    9   10 1   
    16    9   15 1   
    17    9   23 1   
    18   10   11 1   
    19   10   12 1   
    20   10   24 1   
    21   11   25 1   
    22   12   13 1   
    23   12   14 1   
    24   12   26 1   
    25   13   27 1   
    26   14   15 1   
    27   14   16 1   
    28   14   28 1   
    29   16   17 1   
    30   16   29 1   
    31   16   30 1   
    32   17   31 1   
@<TRIPOS>SUBSTRUCTURE
     1 ZEB         1 TEMP              0 ****  ****    0 ROOT
