@<TRIPOS>MOLECULE
ZEB
   31    32     1     0     0
SMALL
bcc


@<TRIPOS>ATOM
      1 N1          0.2520    0.6810    0.3000 n         1 ZEB     -0.407000
      2 C2          1.7340    0.6770    0.3030 c         1 ZEB      0.799500
      3 O2          2.3490    0.9450   -0.7120 o         1 ZEB     -0.661500
      4 N3          2.3760    0.6740    1.5210 n         1 ZEB     -0.561900
      5 C4          1.8220    1.4560    2.5850 c3        1 ZEB      0.337700
      6 O4          2.6470    1.2980    3.8300 oh        1 ZEB     -0.610800
      7 C5          0.4010    1.1560    2.8300 c2        1 ZEB     -0.276200
      8 C6         -0.4540    0.8340    1.6160 c2        1 ZEB      0.010600
      9 C1'        -0.4520    0.8990   -0.9130 c3        1 ZEB      0.278500
     10 C2'         0.1540   -0.0200   -2.0640 c3        1 ZEB      0.083100
     11 O2'        -0.1940    0.5320   -3.3940 oh        1 ZEB     -0.574800
     12 C3'        -0.3780   -1.1720   -1.9110 c3        1 ZEB      0.078100
     13 O3'        -0.5870   -1.8280   -3.2420 oh        1 ZEB     -0.594800
     14 C4'        -1.7350   -0.8960   -1.2290 c3        1 ZEB      0.129100
     15 O4'        -1.6850    0.5520   -0.7810 os        1 ZEB     -0.397600
     16 C5'        -1.9090   -1.7610   -0.1080 c3        1 ZEB      0.106400
     17 O5'        -3.2950   -1.7930    0.2660 oh        1 ZEB     -0.590800
     18 HN3         3.1880    0.3210    1.5990 hn        1 ZEB      0.319500
     19 H4          1.9370    2.4220    2.4070 h2        1 ZEB      0.056700
     20 HO4         2.8630    2.1210    4.1580 ho        1 ZEB      0.400000
     21 H5         -0.0140    1.3990    3.6710 ha        1 ZEB      0.161000
     22 H6         -1.4450    0.9910    1.6420 h4        1 ZEB      0.191000
     23 H1'        -0.3950    1.8550   -1.1750 h2        1 ZEB      0.100700
     24 H2'         1.1410   -0.0840   -1.9670 h1        1 ZEB      0.132700
     25 HO2         0.5520    0.7660   -3.8220 ho        1 ZEB      0.413000
     26 H3'         0.1700   -1.7190   -1.3500 h1        1 ZEB      0.063700
     27 HO3        -0.1530   -2.6940   -3.2490 ho        1 ZEB      0.424000
     28 H4'        -2.4630   -1.0220   -1.8680 h1        1 ZEB      0.112700
     29 H5'1       -1.6150   -2.6620   -0.3450 h1        1 ZEB      0.037700
     30 H5'2       -1.3600   -1.4220    0.6660 h1        1 ZEB      0.037700
     31 HO5        -3.4510   -2.5060    0.7350 ho        1 ZEB      0.404000
@<TRIPOS>BOND
     1    1    2 1   
     2    1    8 1   
     3    1    9 1   
     4    2    3 2   
     5    2    4 1   
     6    4    5 1   
     7    4   18 1   
     8    5    6 1   
     9    5    7 1   
    10    5   19 1   
    11    6   20 1   
    12    7    8 2   
    13    7   21 1   
    14    8   22 1   
    15    9   10 1   
    16    9   15 1   
    17    9   23 1   
    18   10   11 1   
    19   10   12 1   
    20   10   24 1   
    21   11   25 1   
    22   12   13 1   
    23   12   14 1   
    24   12   26 1   
    25   13   27 1   
    26   14   15 1   
    27   14   16 1   
    28   14   28 1   
    29   16   17 1   
    30   16   29 1   
    31   16   30 1   
    32   17   31 1   
@<TRIPOS>SUBSTRUCTURE
     1 ZEB         1 TEMP              0 ****  ****    0 ROOT
