@<TRIPOS>MOLECULE
ZEB
   31    32     1     0     0
SMALL
bcc


@<TRIPOS>ATOM
      1 N1         -0.6100    0.2790   -0.8220 n         1 ZEB     -0.390000
      2 C2          0.0630   -0.9470   -1.0610 c         1 ZEB      0.805500
      3 O2          0.2590   -1.7780   -0.1400 o         1 ZEB     -0.684500
      4 N3          0.4290   -1.2820   -2.3720 n         1 ZEB     -0.558900
      5 C4          0.5240   -0.2830   -3.4270 c3        1 ZEB      0.337700
      6 O4          1.8830   -0.0500   -3.8080 oh        1 ZEB     -0.605800
      7 C5         -0.0460    1.0510   -3.0380 c2        1 ZEB     -0.264200
      8 C6         -0.5610    1.2680   -1.8120 c2        1 ZEB      0.015600
      9 C1'        -1.0870    0.6530    0.4990 c3        1 ZEB      0.274500
     10 C2'        -1.7340   -0.5000    1.3330 c3        1 ZEB      0.141100
     11 O2'        -3.0220   -0.1110    1.7410 oh        1 ZEB     -0.577800
     12 C3'        -0.7430   -0.7440    2.4900 c3        1 ZEB      0.088100
     13 O3'        -1.4710   -0.6670    3.7020 oh        1 ZEB     -0.597800
     14 C4'         0.3040    0.3820    2.4010 c3        1 ZEB      0.063100
     15 O4'        -0.0360    1.2260    1.2930 os        1 ZEB     -0.433600
     16 C5'         1.7220   -0.1530    2.2080 c3        1 ZEB      0.113400
     17 O5'         2.6620    0.9000    2.1920 oh        1 ZEB     -0.596800
     18 HN3         1.0590   -2.0530   -2.4340 hn        1 ZEB      0.321500
     19 H4         -0.0440   -0.7000   -4.3170 h2        1 ZEB      0.057700
     20 HO4         2.1650   -0.7840   -4.3660 ho        1 ZEB      0.403000
     21 H5          0.0060    1.8340   -3.8030 ha        1 ZEB      0.165000
     22 H6         -0.9950    2.2440   -1.5230 h4        1 ZEB      0.160000
     23 H1'        -1.8370    1.4920    0.3600 h2        1 ZEB      0.096700
     24 H2'        -1.8880   -1.4350    0.7280 h1        1 ZEB      0.119700
     25 HO2        -2.9400    0.4490    2.5250 ho        1 ZEB      0.422000
     26 H3'        -0.2610   -1.7520    2.3710 h1        1 ZEB      0.086700
     27 HO3        -0.8830   -0.9760    4.4020 ho        1 ZEB      0.416000
     28 H4'         0.2620    1.0530    3.3040 h1        1 ZEB      0.084700
     29 H5'1        1.7830   -0.7510    1.2590 h1        1 ZEB      0.061700
     30 H5'2        2.0140   -0.7910    3.0830 h1        1 ZEB      0.061700
     31 HO5         2.3990    1.5020    1.4830 ho        1 ZEB      0.412000
@<TRIPOS>BOND
     1    1    2 1   
     2    1    8 1   
     3    1    9 1   
     4    2    3 2   
     5    2    4 1   
     6    4    5 1   
     7    4   18 1   
     8    5    6 1   
     9    5    7 1   
    10    5   19 1   
    11    6   20 1   
    12    7    8 2   
    13    7   21 1   
    14    8   22 1   
    15    9   10 1   
    16    9   15 1   
    17    9   23 1   
    18   10   11 1   
    19   10   12 1   
    20   10   24 1   
    21   11   25 1   
    22   12   13 1   
    23   12   14 1   
    24   12   26 1   
    25   13   27 1   
    26   14   15 1   
    27   14   16 1   
    28   14   28 1   
    29   16   17 1   
    30   16   29 1   
    31   16   30 1   
    32   17   31 1   
@<TRIPOS>SUBSTRUCTURE
     1 ZEB         1 TEMP              0 ****  ****    0 ROOT
