@<TRIPOS>MOLECULE
ZEB
   31    32     1     0     0
SMALL
bcc


@<TRIPOS>ATOM
      1 N1         -0.0960    0.3500   -0.1810 n         1 ZEB     -0.387000
      2 C2          1.3240    0.2760   -0.2540 c         1 ZEB      0.799500
      3 O2          1.9320    0.4170   -1.3420 o         1 ZEB     -0.674500
      4 N3          2.0660    0.1680    0.9310 ns        1 ZEB     -0.558900
      5 C4          1.4690   -0.3000    2.1740 c3        1 ZEB      0.335700
      6 O4          1.9480   -1.5990    2.5320 oh        1 ZEB     -0.603800
      7 C5         -0.0280   -0.3990    2.1170 c2        1 ZEB     -0.258200
      8 C6         -0.7130   -0.1010    0.9960 c2        1 ZEB      0.006600
      9 C1'        -0.9140    0.4200   -1.3830 c3        1 ZEB      0.281500
     10 C2'        -0.4730    1.4820   -2.4370 c3        1 ZEB      0.080100
     11 O2'        -1.4450    2.5060   -2.5140 oh        1 ZEB     -0.596800
     12 C3'        -0.4510    0.7270   -3.7840 c3        1 ZEB      0.136100
     13 O3'        -1.5210    1.0600   -4.6450 oh        1 ZEB     -0.588800
     14 C4'        -0.6040   -0.7600   -3.4210 c3        1 ZEB      0.099100
     15 O4'        -0.9830   -0.8540   -2.0390 os        1 ZEB     -0.432600
     16 C5'         0.6930   -1.5400   -3.6350 c3        1 ZEB      0.109400
     17 O5'         0.5150   -2.9090   -3.3360 oh        1 ZEB     -0.595800
     18 HN3         3.0250   -0.0650    0.7870 hn        1 ZEB      0.321500
     19 H4          1.7750    0.4430    2.9770 h2        1 ZEB      0.056700
     20 HO4         2.8370   -1.4980    2.8950 ho        1 ZEB      0.404000
     21 H5         -0.5190   -0.7520    3.0310 ha        1 ZEB      0.165000
     22 H6         -1.8170   -0.1700    0.9510 h4        1 ZEB      0.160000
     23 H1'        -1.9740    0.6480   -1.0490 h2        1 ZEB      0.090700
     24 H2'         0.5400    1.9110   -2.2150 h1        1 ZEB      0.094700
     25 HO2        -1.2720    3.1120   -1.7840 ho        1 ZEB      0.417000
     26 H3'         0.5220    0.9230   -4.3120 h1        1 ZEB      0.066700
     27 HO3        -1.6450    2.0180   -4.6050 ho        1 ZEB      0.425000
     28 H4'        -1.4500   -1.2340   -3.9910 h1        1 ZEB      0.103700
     29 H5'1        1.5160   -1.1060   -3.0050 h1        1 ZEB      0.065700
     30 H5'2        0.9800   -1.5140   -4.7200 h1        1 ZEB      0.065700
     31 HO5         0.1950   -2.9590   -2.4250 ho        1 ZEB      0.410000
@<TRIPOS>BOND
     1    1    2 1   
     2    1    8 1   
     3    1    9 1   
     4    2    3 2   
     5    2    4 1   
     6    4    5 1   
     7    4   18 1   
     8    5    6 1   
     9    5    7 1   
    10    5   19 1   
    11    6   20 1   
    12    7    8 2   
    13    7   21 1   
    14    8   22 1   
    15    9   10 1   
    16    9   15 1   
    17    9   23 1   
    18   10   11 1   
    19   10   12 1   
    20   10   24 1   
    21   11   25 1   
    22   12   13 1   
    23   12   14 1   
    24   12   26 1   
    25   13   27 1   
    26   14   15 1   
    27   14   16 1   
    28   14   28 1   
    29   16   17 1   
    30   16   29 1   
    31   16   30 1   
    32   17   31 1   
@<TRIPOS>SUBSTRUCTURE
     1 ZEB         1 TEMP              0 ****  ****    0 ROOT
