@<TRIPOS>MOLECULE
ZEC
   20    16     1     0     0
SMALL
bcc


@<TRIPOS>ATOM
      1 O1         -4.2470    0.8710   -1.1480 oh        1 ZEC     -0.242000
      2 C2         -2.8550    0.6690   -1.1560 c2        1 ZEC      0.116000
      3 C7         -2.2380    0.6200    0.0970 c1        1 ZEC     -0.202000
      4 C6         -0.8770    0.3640    0.1910 c1        1 ZEC     -0.298000
      5 S8          0.0780    0.2670    1.3970 s         1 ZEC      0.641000
      6 C9          1.4870   -0.0210    0.8490 c1        1 ZEC     -0.991000
      7 S11         2.8590   -0.1700    1.9620 ss        1 ZEC      2.883000
      8 N14         3.6090   -1.6150    1.7480 n2        1 ZEC     -0.944000
      9 O13         3.7790    0.9220    1.8050 o         1 ZEC     -0.925000
     10 O12         2.4460    0.0060    3.3260 o         1 ZEC     -0.925000
     11 N10         1.3990   -0.0940   -0.5700 n2        1 ZEC     -0.012000
     12 C5         -0.1100    0.1520   -0.9910 c1        1 ZEC     -0.108000
     13 C4         -0.7240    0.2010   -2.2330 c1        1 ZEC     -0.028000
     14 C3         -2.0960    0.4580   -2.3250 c2        1 ZEC     -0.156000
     15 HO1        -4.6580    0.0970   -0.9950 ho        1 ZEC      0.225000
     16 H7         -2.7670    0.7490    0.9070 ha        1 ZEC      0.145000
     17 H141        3.4470   -2.3040    2.3260 hn        1 ZEC      0.251500
     18 H142        4.1900   -1.7300    1.0520 hn        1 ZEC      0.251500
     19 H4         -0.2000    0.0550   -3.0430 ha        1 ZEC      0.158000
     20 H3         -2.5260    0.5040   -3.2000 ha        1 ZEC      0.160000
@<TRIPOS>BOND
     1    1    2 1   
     2    1   15 1   
     3    2    3 1   
     4    2   14 1   
     5    3   16 1   
     6    4   12 1   
     7    5    6 1   
     8    6   11 1   
     9    7    9 1   
    10    7   10 1   
    11    8   17 1   
    12    8   18 1   
    13   11   12 1   
    14   13   14 1   
    15   13   19 1   
    16   14   20 1   
@<TRIPOS>SUBSTRUCTURE
     1 ZEC         1 TEMP              0 ****  ****    0 ROOT
