@<TRIPOS>MOLECULE
ZEC
   21    22     1     0     0
SMALL
bcc


@<TRIPOS>ATOM
      1 O1          0.1880    0.4330   -0.1410 oh        1 ZEC     -0.450100
      2 C2          1.5240    0.2170   -0.0510 ca        1 ZEC      0.240100
      3 C7          2.2610    0.4550    1.1060 ca        1 ZEC     -0.246000
      4 C6          3.6350    0.1960    1.0910 ca        1 ZEC     -0.047100
      5 S8          4.7700    0.3660    2.2680 ss        1 ZEC      0.363900
      6 C9          6.0250   -0.2090    1.2720 cc        1 ZEC     -0.266400
      7 S11         7.5540   -0.5030    1.6630 sy        1 ZEC      1.466000
      8 N14         8.3970    0.5640    0.3340 nz        1 ZEC     -0.781500
      9 O13         7.9600    0.1410    2.8110 o         1 ZEC     -0.564800
     10 O12         8.0550   -1.7360    1.3310 o         1 ZEC     -0.564800
     11 N10         5.5990   -0.5270   -0.0010 nd        1 ZEC     -0.412100
     12 C5          4.2710   -0.3110   -0.1210 ca        1 ZEC      0.047400
     13 C4          3.4720   -0.5410   -1.2930 ca        1 ZEC     -0.015000
     14 C3          2.1350   -0.2830   -1.2530 ca        1 ZEC     -0.138000
     15 HO1        -0.1510    0.7580    0.7110 ho        1 ZEC      0.452000
     16 H7          1.7740    0.8350    2.0170 ha        1 ZEC      0.169000
     17 H141        8.9050   -0.0330   -0.3200 hn        1 ZEC      0.459800
     18 H142        9.0660    1.2040    0.7580 hn        1 ZEC      0.459800
     19 H4          3.9560   -0.9320   -2.2040 ha        1 ZEC      0.179000
     20 H3          1.4840   -0.4510   -2.1280 ha        1 ZEC      0.189000
     21 H143        7.7380    1.1180   -0.2060 hn        1 ZEC      0.459800
@<TRIPOS>BOND
     1    1    2 1   
     2    1   15 1   
     3    2    3 ar  
     4    2   14 ar  
     5    3    4 ar  
     6    3   16 1   
     7    4    5 1   
     8    4   12 ar  
     9    5    6 1   
    10    6    7 1   
    11    6   11 2   
    12    7    8 1   
    13    7    9 2   
    14    7   10 2   
    15    8   17 1   
    16    8   18 1   
    17    8   21 1   
    18   11   12 1   
    19   12   13 ar  
    20   13   14 ar  
    21   13   19 1   
    22   14   20 1   
@<TRIPOS>SUBSTRUCTURE
     1 ZEC         1 TEMP              0 ****  ****    0 ROOT
