@<TRIPOS>MOLECULE
ZEC
   20    21     1     0     0
SMALL
bcc


@<TRIPOS>ATOM
      1 O1          4.8900   -0.5730   -0.5020 oh        1 ZEC     -0.490100
      2 C2          3.6230   -0.0960   -0.2730 ca        1 ZEC      0.152100
      3 C7          2.5810   -1.0090   -0.4110 ca        1 ZEC     -0.141000
      4 C6          1.2750   -0.5630   -0.1870 ca        1 ZEC     -0.075100
      5 S8         -0.1780   -1.3830   -0.2660 ss        1 ZEC      0.191900
      6 C9         -1.0600    0.0130    0.1610 cc        1 ZEC      0.030600
      7 S11        -2.7720    0.1060    0.3900 sy        1 ZEC      1.481000
      8 N14        -3.1790    1.3940   -0.4460 n3        1 ZEC     -1.017700
      9 O13        -3.3160   -1.0460   -0.2090 o         1 ZEC     -0.645300
     10 O12        -3.0110    0.2910    1.7560 o         1 ZEC     -0.645300
     11 N10        -0.3170    1.1060    0.3660 nd        1 ZEC     -0.440100
     12 C5          1.0260    0.8090    0.1750 ca        1 ZEC      0.028400
     13 C4          2.1100    1.7110    0.3080 ca        1 ZEC     -0.018000
     14 C3          3.3900    1.2590    0.0860 ca        1 ZEC     -0.210000
     15 HO1         5.5170    0.1520   -0.3620 ho        1 ZEC      0.426000
     16 H7          2.7920   -2.0520   -0.6870 ha        1 ZEC      0.162000
     17 H141       -3.0300    2.3220   -0.1330 hn        1 ZEC      0.456300
     18 H142       -3.5470    1.3560   -1.3640 hn        1 ZEC      0.456300
     19 H4          1.9170    2.7580    0.5900 ha        1 ZEC      0.156000
     20 H3          4.2470    1.9420    0.1850 ha        1 ZEC      0.142000
@<TRIPOS>BOND
     1    1    2 1   
     2    1   15 1   
     3    2    3 ar  
     4    2   14 ar  
     5    3    4 ar  
     6    3   16 1   
     7    4    5 1   
     8    4   12 ar  
     9    5    6 1   
    10    6    7 1   
    11    6   11 2   
    12    7    8 1   
    13    7    9 2   
    14    7   10 2   
    15    8   17 1   
    16    8   18 1   
    17   11   12 1   
    18   12   13 ar  
    19   13   14 ar  
    20   13   19 1   
    21   14   20 1   
@<TRIPOS>SUBSTRUCTURE
     1 ZEC         1 TEMP              0 ****  ****    0 ROOT
