@<TRIPOS>MOLECULE
ZEC
   21    22     1     0     0
SMALL
bcc


@<TRIPOS>ATOM
      1 O1          0.1830   -0.3700    0.2090 oh        1 ZEC     -0.453100
      2 C2          1.5140   -0.1140    0.1090 ca        1 ZEC      0.230100
      3 C7          2.2890   -0.4070    1.2320 ca        1 ZEC     -0.180000
      4 C6          3.6620   -0.1610    1.1780 ca        1 ZEC     -0.053100
      5 S8          4.8330   -0.3870    2.3120 ss        1 ZEC      0.360900
      6 C9          6.0620    0.2140    1.2960 cc        1 ZEC     -0.261400
      7 S11         7.6060    0.4770    1.6510 sy        1 ZEC      1.465000
      8 N14         8.3930   -0.5700    0.2710 n4        1 ZEC     -0.782500
      9 O13         8.1170    1.7100    1.3350 o         1 ZEC     -0.563300
     10 O12         8.0360   -0.2030    2.7690 o         1 ZEC     -0.563300
     11 N10         5.6000    0.5850    0.0520 nd        1 ZEC     -0.409100
     12 C5          4.2650    0.3870   -0.0330 ca        1 ZEC      0.040400
     13 C4          3.4320    0.6730   -1.1650 ca        1 ZEC      0.001000
     14 C3          2.0920    0.4260   -1.0860 ca        1 ZEC     -0.196000
     15 HO1        -0.2590   -0.1190   -0.6200 ho        1 ZEC      0.452000
     16 H7          1.8110   -0.8190    2.1350 ha        1 ZEC      0.186000
     17 H141        7.7080   -1.0930   -0.2680 hn        1 ZEC      0.459467
     18 H142        9.0560   -1.2380    0.6610 hn        1 ZEC      0.459467
     19 H4          3.8890    1.0950   -2.0760 ha        1 ZEC      0.177000
     20 H3          1.4310    0.6430   -1.9420 ha        1 ZEC      0.170000
     21 H143        8.8990    0.0330   -0.3770 hn        1 ZEC      0.459467
@<TRIPOS>BOND
     1    1    2 1   
     2    1   15 1   
     3    2    3 ar  
     4    2   14 ar  
     5    3    4 ar  
     6    3   16 1   
     7    4    5 1   
     8    4   12 ar  
     9    5    6 1   
    10    6    7 1   
    11    6   11 2   
    12    7    8 1   
    13    7    9 2   
    14    7   10 2   
    15    8   17 1   
    16    8   18 1   
    17    8   21 1   
    18   11   12 1   
    19   12   13 ar  
    20   13   14 ar  
    21   13   19 1   
    22   14   20 1   
@<TRIPOS>SUBSTRUCTURE
     1 ZEC         1 TEMP              0 ****  ****    0 ROOT
