@<TRIPOS>MOLECULE
ZED
   39    40     1     0     0
SMALL
bcc


@<TRIPOS>ATOM
      1 CZ1        -4.5480   -1.5190    0.8230 ca        1 ZED     -0.138000
      2 CZ2        -3.6230   -0.7720    0.0730 ca        1 ZED      0.007900
      3 CZ3        -4.0730   -0.0840   -1.0590 ca        1 ZED     -0.138000
      4 CZ4        -5.4110   -0.1510   -1.4430 ca        1 ZED     -0.118000
      5 CZ5        -6.3210   -0.8970   -0.6960 ca        1 ZED     -0.158000
      6 CZ6        -5.8840   -1.5770    0.4430 ca        1 ZED     -0.118000
      7 CZ7         0.5330    1.7930   -0.5250 c3        1 ZED     -0.043300
      8 CZ8         0.6940    2.5070    0.8640 c         1 ZED      0.914600
      9 CZ9        -0.9570    1.4260   -0.7090 c3        1 ZED     -0.067400
     10 CZA        -1.0360   -0.0970   -0.6430 c3        1 ZED     -0.020600
     11 CZB         0.4030   -0.5760   -0.3530 c3        1 ZED      0.097000
     12 CZC         3.2700   -0.5320    1.6880 c3        1 ZED     -0.102100
     13 CZD         3.2600   -0.7580    0.1880 c3        1 ZED     -0.128700
     14 CZF         4.6530   -0.9760   -0.3640 c3        1 ZED      0.035700
     15 OZ1         0.1980    3.6630    0.9370 o         1 ZED     -0.826800
     16 OZ2         1.2660    1.8950    1.8050 o         1 ZED     -0.826800
     17 OZ3         3.3910    1.4040   -0.8680 o         1 ZED     -0.609100
     18 NZ1         1.2750    0.5360   -0.6850 n         1 ZED     -0.428800
     19 SZ1        -2.0380   -0.7690    0.6570 ss        1 ZED     -0.156000
     20 SZ2         5.0670   -2.6970   -0.1700 sh        1 ZED     -0.419900
     21 HZ1        -4.2050   -2.0560    1.7210 ha        1 ZED      0.139500
     22 HZ3        -3.3700    0.5310   -1.6430 ha        1 ZED      0.139500
     23 HZ4        -5.7480    0.3950   -2.3360 ha        1 ZED      0.121500
     24 HZ5        -7.3760   -0.9470   -0.9970 ha        1 ZED      0.119000
     25 HZ6        -6.5980   -2.1610    1.0410 ha        1 ZED      0.121500
     26 HZ7         0.8830    2.5040   -1.3200 h1        1 ZED      0.071700
     27 HZ91       -1.3320    1.7920   -1.6970 hc        1 ZED      0.059200
     28 HZ92       -1.5620    1.9110    0.0970 hc        1 ZED      0.059200
     29 H100       -1.3850   -0.5080   -1.6220 h1        1 ZED      0.060700
     30 H111        0.6580   -1.4600   -0.9990 h1        1 ZED      0.047200
     31 H112        0.4970   -0.8800    0.7300 h1        1 ZED      0.047200
     32 H123        4.0220    0.2490    1.9580 hc        1 ZED      0.058700
     33 H133        2.6400   -1.6700   -0.0460 hc        1 ZED      0.061700
     34 H151        4.6880   -0.7020   -1.4460 h1        1 ZED      0.071200
     35 H152        5.3900   -0.3330    0.1740 h1        1 ZED      0.071200
     36 HSZ2        6.2790   -2.6710   -0.6910 hs        1 ZED      0.189800
     37 CZE         2.6460    0.4890   -0.4650 c         1 ZED      0.687100
     38 H121        2.2690   -0.1580    2.0300 hc        1 ZED      0.058700
     39 H122        3.5230   -1.4800    2.2170 hc        1 ZED      0.058700
@<TRIPOS>BOND
     1    1    2 ar  
     2    1    6 ar  
     3    1   21 1   
     4    2    3 ar  
     5    2   19 1   
     6    3    4 ar  
     7    3   22 1   
     8    4    5 ar  
     9    4   23 1   
    10    5    6 ar  
    11    5   24 1   
    12    6   25 1   
    13    7    8 1   
    14    7    9 1   
    15    7   18 1   
    16    7   26 1   
    17    8   15 1   
    18    8   16 1   
    19    9   10 1   
    20    9   27 1   
    21    9   28 1   
    22   10   11 1   
    23   10   19 1   
    24   10   29 1   
    25   11   18 1   
    26   11   30 1   
    27   11   31 1   
    28   12   13 1   
    29   12   32 1   
    30   12   38 1   
    31   12   39 1   
    32   13   14 1   
    33   13   33 1   
    34   13   37 1   
    35   14   20 1   
    36   14   34 1   
    37   14   35 1   
    38   17   37 2   
    39   18   37 1   
    40   20   36 1   
@<TRIPOS>SUBSTRUCTURE
     1 ZED         1 TEMP              0 ****  ****    0 ROOT
