@<TRIPOS>MOLECULE
ZED
   39    50     1     0     0
SMALL
bcc


@<TRIPOS>ATOM
      1 CZ1         0.0000    0.0000    0.0000 c2        1 ZED      0.079000
      2 CZ2         1.3900    0.0000    0.0000 c2        1 ZED      0.583000
      3 CZ3         2.0800    0.0000    1.2060 c3        1 ZED     -0.100000
      4 CZ4         1.3850    0.0120    2.3980 c3        1 ZED     -0.150000
      5 CZ5         0.0020    0.0110    2.3940 c3        1 ZED     -0.206000
      6 CZ6        -0.6890    0.0050    1.1960 c2        1 ZED     -0.213000
      7 CZ7         5.7520   -1.7960   -0.5870 DU        1 ZED      0.237000
      8 CZ8         6.0670   -3.1900   -1.0640 c2        1 ZED      0.355000
      9 CZ9         4.2280   -1.6350   -0.4080 DU        1 ZED     -0.013000
     10 CZA         3.9680   -0.1880   -0.9050 DU        1 ZED     -0.470000
     11 CZB         4.9960   -0.0660   -2.0570 c3        1 ZED     -0.603000
     12 CZC         6.9740    0.1190   -4.3270 DU        1 ZED     -0.093000
     13 CZD         7.7440    0.4390   -3.0440 DU        1 ZED     -0.294000
     14 CZF         9.2450    0.4540   -3.3400 DU        1 ZED     -0.372000
     15 OZ1         5.7470   -4.2480   -0.3030 o         1 ZED     -0.541500
     16 OZ2         6.6080   -3.3560   -2.1310 o         1 ZED     -0.541500
     17 OZ3         8.3470   -1.2820   -1.5470 o         1 ZED     -0.301000
     18 NZ1         6.1810   -0.8060   -1.5860 n         1 ZED      0.058000
     19 SZ1         2.2730   -0.0060   -1.5250 ss        1 ZED      0.015000
     20 SZ2         9.6220    1.8150   -4.4790 sh        1 ZED     -0.702000
     21 HZ1         1.0440   -0.0920   -0.2740 ha        1 ZED     -0.419000
     22 HZ3         1.2420   -0.0010    0.5200 hc        1 ZED     -0.074000
     23 HZ4         2.2850    0.0340    1.7970 DU        1 ZED      0.161000
     24 HZ5         0.9730    0.0130    2.8730 DU        1 ZED      0.181000
     25 HZ6        -0.6160    0.0110    2.2770 DU        1 ZED      0.187000
     26 HZ7         4.7240   -1.5520   -0.3440 DU        1 ZED     -0.171000
     27 HZ91        5.2400   -1.6190   -0.0240 DU        1 ZED     -0.014000
     28 HZ92        3.6940   -2.3510   -1.0210 ha        1 ZED      0.153000
     29 H100        3.9600   -0.9540   -0.1400 DU        1 ZED      0.259000
     30 H111        4.5930    0.2320   -1.0960 DU        1 ZED      0.291000
     31 H112        4.6040   -0.5190   -2.9590 h1        1 ZED      0.076000
     32 H123        6.3180    0.4460   -3.5300 ha        1 ZED      0.206333
     33 H133        7.6780    0.3710   -4.1230 DU        1 ZED      0.166000
     34 H151        8.3360    0.9310   -2.9940 DU        1 ZED      0.253000
     35 H152        9.5340   -0.4870   -3.7930 ha        1 ZED      0.127000
     36 HSZ2        9.7180    1.1420   -3.3390 DU        1 ZED      0.201000
     37 CZE         7.4470   -0.6120   -2.0050 c2        1 ZED      0.276000
     38 H121        6.6730   -0.9220   -4.3180 ha        1 ZED      0.206333
     39 H122        6.0940    0.7480   -4.3870 ha        1 ZED      0.206333
@<TRIPOS>BOND
     1    1    2 1   
     2    1    6 1   
     3    1   21 1   
     4    2    3 1   
     5    2   19 1   
     6    3    4 1   
     7    3   22 1   
     8    3   23 1   
     9    4    5 1   
    10    4   23 1   
    11    4   24 1   
    12    5    6 1   
    13    5   24 1   
    14    5   25 1   
    15    6   25 1   
    16    7    8 1   
    17    7    9 1   
    18    7   18 1   
    19    7   26 1   
    20    7   27 1   
    21    8   15 1   
    22    8   16 1   
    23    9   10 1   
    24    9   27 1   
    25    9   28 1   
    26    9   29 1   
    27   10   11 1   
    28   10   19 1   
    29   10   29 1   
    30   10   30 1   
    31   11   18 1   
    32   11   30 1   
    33   11   31 1   
    34   12   13 1   
    35   12   32 1   
    36   12   33 1   
    37   12   38 1   
    38   12   39 1   
    39   13   14 1   
    40   13   33 1   
    41   13   34 1   
    42   13   37 1   
    43   14   20 1   
    44   14   34 1   
    45   14   35 1   
    46   14   36 1   
    47   17   37 1   
    48   18   37 1   
    49   20   36 1   
    50   26   27 1   
@<TRIPOS>SUBSTRUCTURE
     1 ZED         1 TEMP              0 ****  ****    0 ROOT
