@<TRIPOS>MOLECULE
ZED
   39    38     1     0     0
SMALL
bcc


@<TRIPOS>ATOM
      1 CZ1        -1.8390    0.4410    0.6790 c1        1 ZED     -0.227000
      2 CZ2         1.6170   -0.1290   -0.0950 c2        1 ZED     -0.304000
      3 CZ3         2.1210    0.2710    1.0850 c2        1 ZED     -0.178000
      4 CZ4         1.4090    0.9660    2.1230 c2        1 ZED     -0.069000
      5 CZ5         0.0870    1.1890    2.2550 c2        1 ZED     -0.097000
      6 CZ6        -0.9350    0.7770    1.3910 c1        1 ZED     -0.114000
      7 CZ7         7.0560   -1.9900   -2.2320 c2        1 ZED      0.053000
      8 CZ8         6.6750   -3.5120   -2.1590 c2        1 ZED      0.358000
      9 CZ9         4.2750   -2.3660   -0.1200 c3        1 ZED     -0.227000
     10 CZA         4.0620   -1.1400   -0.9640 c3        1 ZED     -0.254000
     11 CZB         4.7530   -1.2480   -2.3250 c3        1 ZED     -0.069000
     12 CZC         7.9540    0.1080   -4.4450 c3        1 ZED     -0.225000
     13 CZD         7.8050    0.8450   -3.1370 c3        1 ZED     -0.128000
     14 CZF         9.0920    0.7830   -2.3040 c3        1 ZED     -0.089000
     15 OZ1         6.9980   -4.0530   -1.0830 o         1 ZED     -0.476000
     16 OZ2         6.1080   -3.9700   -3.1720 o         1 ZED     -0.476000
     17 OZ3         5.9160    1.1810   -1.6450 o         1 ZED     -0.280000
     18 NZ1         6.1990   -1.0030   -2.2910 n         1 ZED     -0.147000
     19 SZ1         2.3340   -0.9180   -1.3720 ss        1 ZED      0.253000
     20 SZ2        10.3200    1.6850   -3.1150 s         1 ZED     -0.809000
     21 HZ1        -2.6350    0.1410    0.0470 ha        1 ZED      0.220000
     22 HZ3         0.5510    0.0640   -0.3320 h4        1 ZED      0.165000
     23 HZ4         3.1860    0.0800    1.3190 ha        1 ZED      0.129000
     24 HZ5         2.0680    1.3600    2.9220 ha        1 ZED      0.123000
     25 HZ6        -0.2740    1.7530    3.1370 ha        1 ZED      0.131000
     26 HZ7         5.3660   -2.6150   -0.0440 hc        1 ZED      0.100000
     27 HZ91        8.1450   -1.7610   -2.2150 h4        1 ZED      0.187000
     28 HZ92        3.7590   -3.2520   -0.5670 hc        1 ZED      0.100000
     29 H100        3.8750   -2.2020    0.9100 hc        1 ZED      0.100000
     30 H111        4.4290   -0.2270   -0.4210 h1        1 ZED      0.142000
     31 H112        4.5800   -2.2820   -2.7560 h1        1 ZED      0.145500
     32 H123        4.3080   -0.4800   -3.0230 h1        1 ZED      0.145500
     33 H133        8.1120   -0.9870   -4.3050 hc        1 ZED      0.092667
     34 H151        7.6250    1.9400   -3.3630 hc        1 ZED      0.157000
     35 H152        9.4030   -0.2830   -2.1710 h1        1 ZED      0.047500
     36 HSZ2        8.8800    1.2060   -1.2900 h1        1 ZED      0.047500
     37 CZE         6.6080    0.4170   -2.3190 c2        1 ZED      0.287000
     38 H121        8.8720    0.5290   -4.9440 hc        1 ZED      0.092667
     39 H122        7.0640    0.2640   -5.1000 hc        1 ZED      0.092667
@<TRIPOS>BOND
     1    1    6 1   
     2    1   21 1   
     3    2    3 1   
     4    2   19 1   
     5    2   22 1   
     6    3    4 1   
     7    3   23 1   
     8    4    5 1   
     9    4   24 1   
    10    5    6 1   
    11    5   25 1   
    12    7    8 1   
    13    7   18 1   
    14    7   27 1   
    15    8   15 1   
    16    8   16 1   
    17    9   10 1   
    18    9   26 1   
    19    9   28 1   
    20    9   29 1   
    21   10   11 1   
    22   10   19 1   
    23   10   30 1   
    24   11   18 1   
    25   11   31 1   
    26   11   32 1   
    27   12   13 1   
    28   12   33 1   
    29   12   38 1   
    30   12   39 1   
    31   13   14 1   
    32   13   34 1   
    33   13   37 1   
    34   14   20 1   
    35   14   35 1   
    36   14   36 1   
    37   17   37 1   
    38   18   37 1   
@<TRIPOS>SUBSTRUCTURE
     1 ZED         1 TEMP              0 ****  ****    0 ROOT
