@<TRIPOS>MOLECULE
ZEN
   61    65     1     0     0
SMALL
bcc


@<TRIPOS>ATOM
      1 N1         -3.0170    0.5720    9.5180 nb        1 ZEN     -0.686000
      2 C2         -1.7810    1.0780    9.3410 ca        1 ZEN      0.415700
      3 C3         -0.9800    0.8290    8.2190 ca        1 ZEN     -0.295800
      4 C5         -2.7810   -0.5320    7.3670 ca        1 ZEN     -0.295800
      5 C6         -3.4880   -0.2200    8.5370 ca        1 ZEN      0.415700
      6 C4         -1.4790   -0.0050    7.1870 ca        1 ZEN      0.183600
      7 N7         -0.6670   -0.3440    6.0850 nh        1 ZEN     -0.645000
      8 C8         -1.1850   -1.3570    5.1800 c3        1 ZEN      0.192800
      9 C9         -0.1510   -1.8440    4.1670 c3        1 ZEN     -0.076900
     10 C11         1.0670    0.3000    4.4190 c3        1 ZEN     -0.076900
     11 C12         0.0090    0.7590    5.4220 c3        1 ZEN      0.192800
     12 C10         0.4670   -0.6730    3.4170 c3        1 ZEN     -0.127700
     13 C13         1.5350   -1.1810    2.4550 c         1 ZEN      0.657100
     14 O23         1.9380   -2.3600    2.5220 o         1 ZEN     -0.599100
     15 N14         2.1230   -0.3050    1.5440 n         1 ZEN     -0.461800
     16 C15         3.0950   -0.8080    0.5940 c3        1 ZEN      0.072500
     17 C16         2.5990   -0.7830   -0.8710 c3        1 ZEN      0.197300
     18 C18         1.0340    0.9840   -0.3070 c3        1 ZEN      0.197300
     19 C19         1.5410    0.9570    1.1580 c3        1 ZEN      0.072500
     20 N17         1.9880    0.4650   -1.2510 n3        1 ZEN     -0.814500
     21 S20         2.3570    1.2340   -2.6400 sy        1 ZEN      1.508200
     22 O21         3.6740    0.9060   -3.0250 o         1 ZEN     -0.649800
     23 O22         2.0460    2.6070   -2.5140 o         1 ZEN     -0.649800
     24 C24         1.2850    0.5560   -3.7580 ca        1 ZEN     -0.375500
     25 C25         0.1220    1.2000   -4.1250 ca        1 ZEN      0.026000
     26 C33         1.6030   -0.6860   -4.3690 ca        1 ZEN     -0.042000
     27 C34         0.7720   -1.2550   -5.2990 ca        1 ZEN     -0.132000
     28 C26        -0.7600    0.6410   -5.0850 ca        1 ZEN     -0.076000
     29 C27        -0.4350   -0.6060   -5.6770 ca        1 ZEN      0.017000
     30 C28        -1.3170   -1.1740   -6.6360 ca        1 ZEN     -0.130000
     31 C30        -2.8030    0.7410   -6.3950 ca        1 ZEN     -0.131000
     32 C31        -1.9610    1.3010   -5.4680 ca        1 ZEN     -0.090000
     33 C29        -2.4730   -0.5100   -6.9810 ca        1 ZEN      0.041400
     34 CL32       -3.5360   -1.1790   -8.1250 cl        1 ZEN     -0.080400
     35 H2         -1.4070    1.7230   10.1580 h4        1 ZEN      0.020600
     36 H3          0.0260    1.2660    8.1700 ha        1 ZEN      0.143500
     37 H5         -3.2530   -1.1800    6.6170 ha        1 ZEN      0.143500
     38 H6         -4.5030   -0.6280    8.6970 h4        1 ZEN      0.020600
     39 H82        -2.0880   -0.9730    4.6180 h1        1 ZEN      0.041450
     40 H81        -1.5100   -2.2410    5.8000 h1        1 ZEN      0.041450
     41 H92        -0.6550   -2.5370    3.4460 hc        1 ZEN      0.066950
     42 H91         0.6590   -2.4250    4.6830 hc        1 ZEN      0.066950
     43 H112        1.9170   -0.1970    4.9570 hc        1 ZEN      0.066950
     44 H111        1.4720    1.2060    3.8980 hc        1 ZEN      0.066950
     45 H122       -0.7370    1.4130    4.8800 h1        1 ZEN      0.041450
     46 H121        0.5180    1.3930    6.2010 h1        1 ZEN      0.041450
     47 H10        -0.3490   -0.1630    2.8320 hc        1 ZEN      0.060700
     48 H152        3.3720   -1.8690    0.8490 h1        1 ZEN      0.069200
     49 H151        4.0170   -0.1650    0.6820 h1        1 ZEN      0.069200
     50 H162        1.8560   -1.6200   -1.0150 h1        1 ZEN      0.060700
     51 H161        3.4900   -0.9770   -1.5360 h1        1 ZEN      0.060700
     52 H182        0.7980    2.0560   -0.5650 h1        1 ZEN      0.060700
     53 H181        0.0820    0.3820   -0.3680 h1        1 ZEN      0.060700
     54 H192        0.6750    1.2320    1.8190 h1        1 ZEN      0.069200
     55 H191        2.3370    1.7490    1.2810 h1        1 ZEN      0.069200
     56 H25        -0.1320    2.1800   -3.6800 ha        1 ZEN      0.156000
     57 H33         2.5520   -1.1780   -4.0910 ha        1 ZEN      0.150000
     58 H34         1.0260   -2.2170   -5.7700 ha        1 ZEN      0.145000
     59 H28        -1.0570   -2.1430   -7.0900 ha        1 ZEN      0.154000
     60 H30        -3.7320    1.2500   -6.6950 ha        1 ZEN      0.154000
     61 H31        -2.2010    2.2720   -5.0070 ha        1 ZEN      0.144000
@<TRIPOS>BOND
     1    1    2 ar  
     2    1    5 ar  
     3    2    3 ar  
     4    2   35 1   
     5    3    6 ar  
     6    3   36 1   
     7    4    5 ar  
     8    4    6 ar  
     9    4   37 1   
    10    5   38 1   
    11    6    7 1   
    12    7    8 1   
    13    7   11 1   
    14    8    9 1   
    15    8   39 1   
    16    8   40 1   
    17    9   12 1   
    18    9   41 1   
    19    9   42 1   
    20   10   11 1   
    21   10   12 1   
    22   10   43 1   
    23   10   44 1   
    24   11   45 1   
    25   11   46 1   
    26   12   13 1   
    27   12   47 1   
    28   13   14 2   
    29   13   15 1   
    30   15   16 1   
    31   15   19 1   
    32   16   17 1   
    33   16   48 1   
    34   16   49 1   
    35   17   20 1   
    36   17   50 1   
    37   17   51 1   
    38   18   19 1   
    39   18   20 1   
    40   18   52 1   
    41   18   53 1   
    42   19   54 1   
    43   19   55 1   
    44   20   21 1   
    45   21   22 2   
    46   21   23 2   
    47   21   24 1   
    48   24   25 ar  
    49   24   26 ar  
    50   25   28 ar  
    51   25   56 1   
    52   26   27 ar  
    53   26   57 1   
    54   27   29 ar  
    55   27   58 1   
    56   28   29 ar  
    57   28   32 ar  
    58   29   30 ar  
    59   30   33 ar  
    60   30   59 1   
    61   31   32 ar  
    62   31   33 ar  
    63   31   60 1   
    64   32   61 1   
    65   33   34 1   
@<TRIPOS>SUBSTRUCTURE
     1 ZEN         1 TEMP              0 ****  ****    0 ROOT
