@<TRIPOS>MOLECULE
ZEN
   61    65     1     0     0
SMALL
bcc


@<TRIPOS>ATOM
      1 N1          0.3050    0.7140   -0.3290 nb        1 ZEN     -0.686000
      2 C2          1.6050    0.4720   -0.0670 ca        1 ZEN      0.415700
      3 C3          2.1040    0.1290    1.1960 ca        1 ZEN     -0.295800
      4 C5         -0.1630    0.2690    2.0130 ca        1 ZEN     -0.295800
      5 C6         -0.5460    0.6130    0.7080 ca        1 ZEN      0.415700
      6 C4          1.2040    0.0210    2.2870 ca        1 ZEN      0.183600
      7 N7          1.6830   -0.2390    3.5870 nh        1 ZEN     -0.645000
      8 C8          0.7210   -0.1350    4.6710 c3        1 ZEN      0.192800
      9 C9          1.3650   -0.1820    6.0550 c3        1 ZEN     -0.076900
     10 C11         3.2910   -1.4070    5.0880 c3        1 ZEN     -0.076900
     11 C12         2.6140   -1.3490    3.7190 c3        1 ZEN      0.192800
     12 C10         2.2520   -1.4100    6.1980 c3        1 ZEN     -0.127700
     13 C13         2.9270   -1.4040    7.5660 c         1 ZEN      0.657100
     14 O23         2.8880   -0.3860    8.2860 o         1 ZEN     -0.599100
     15 N14         3.6590   -2.5140    7.9840 n         1 ZEN     -0.461800
     16 C15         4.2480   -2.5240    9.3080 c3        1 ZEN      0.072500
     17 C16         3.5980   -3.5480   10.2670 c3        1 ZEN      0.197300
     18 C18         2.8600   -4.8560    8.3610 c3        1 ZEN      0.197300
     19 C19         3.5200   -3.8280    7.4070 c3        1 ZEN      0.072500
     20 N17         3.4260   -4.8540    9.6830 n3        1 ZEN     -0.814500
     21 S20         3.8490   -6.2230   10.4610 sy        1 ZEN      1.508200
     22 O21         4.8950   -5.9470   11.3660 o         1 ZEN     -0.649800
     23 O22         4.0710   -7.2510    9.5150 o         1 ZEN     -0.649800
     24 C24         2.4620   -6.6150   11.3440 ca        1 ZEN     -0.375500
     25 C25         1.5680   -7.5660   10.9000 ca        1 ZEN      0.026000
     26 C33         2.2270   -5.9840   12.5950 ca        1 ZEN     -0.042000
     27 C34         1.1270   -6.2940   13.3520 ca        1 ZEN     -0.132000
     28 C26         0.4200   -7.9120   11.6580 ca        1 ZEN     -0.076000
     29 C27         0.1920   -7.2650   12.8990 ca        1 ZEN      0.017000
     30 C28        -0.9590   -7.6040   13.6610 ca        1 ZEN     -0.130000
     31 C30        -1.6110   -9.2110   11.9510 ca        1 ZEN     -0.131000
     32 C31        -0.5050   -8.8930   11.2040 ca        1 ZEN     -0.090000
     33 C29        -1.8360   -8.5550   13.1910 ca        1 ZEN      0.041400
     34 Cl32       -3.2160   -8.9680   14.0920 cl        1 ZEN     -0.080400
     35 H2          2.2910    0.5640   -0.9280 h4        1 ZEN      0.020600
     36 H3          3.1830   -0.0290    1.3220 ha        1 ZEN      0.143500
     37 H5         -0.9320    0.2000    2.7920 ha        1 ZEN      0.143500
     38 H6         -1.6080    0.8150    0.4780 h4        1 ZEN      0.020600
     39 H82        -0.0530   -0.9570    4.6040 h1        1 ZEN      0.041450
     40 H81         0.1890    0.8540    4.5680 h1        1 ZEN      0.041450
     41 H92         0.5530   -0.2050    6.8270 hc        1 ZEN      0.066950
     42 H91         1.9750    0.7420    6.2340 hc        1 ZEN      0.066950
     43 H112        3.9180   -2.3350    5.1280 hc        1 ZEN      0.066950
     44 H111        3.9710   -0.5250    5.2170 hc        1 ZEN      0.066950
     45 H122        2.0840   -2.3320    3.5410 h1        1 ZEN      0.041450
     46 H121        3.4160   -1.2450    2.9360 h1        1 ZEN      0.041450
     47 H10         1.6020   -2.3250    6.1080 hc        1 ZEN      0.060700
     48 H152        4.1600   -1.5040    9.7780 h1        1 ZEN      0.069200
     49 H151        5.3410   -2.7720    9.1900 h1        1 ZEN      0.069200
     50 H162        2.5930   -3.1510   10.5920 h1        1 ZEN      0.060700
     51 H161        4.2610   -3.6330   11.1760 h1        1 ZEN      0.060700
     52 H182        1.7560   -4.6300    8.4260 h1        1 ZEN      0.060700
     53 H181        2.9890   -5.8790    7.9010 h1        1 ZEN      0.060700
     54 H192        4.5540   -4.1930    7.1400 h1        1 ZEN      0.069200
     55 H191        2.9090   -3.8030    6.4640 h1        1 ZEN      0.069200
     56 H25         1.7460   -8.0870    9.9400 ha        1 ZEN      0.156000
     57 H33         2.9650   -5.2470   12.9560 ha        1 ZEN      0.150000
     58 H34         0.9520   -5.8030   14.3220 ha        1 ZEN      0.145000
     59 H28        -1.1270   -7.0950   14.6230 ha        1 ZEN      0.154000
     60 H30        -2.3290   -9.9700   11.6040 ha        1 ZEN      0.154000
     61 H31        -0.3160   -9.3950   10.2420 ha        1 ZEN      0.144000
@<TRIPOS>BOND
     1    1    2 ar  
     2    1    5 ar  
     3    2    3 ar  
     4    2   35 1   
     5    3    6 ar  
     6    3   36 1   
     7    4    5 ar  
     8    4    6 ar  
     9    4   37 1   
    10    5   38 1   
    11    6    7 1   
    12    7    8 1   
    13    7   11 1   
    14    8    9 1   
    15    8   39 1   
    16    8   40 1   
    17    9   12 1   
    18    9   41 1   
    19    9   42 1   
    20   10   11 1   
    21   10   12 1   
    22   10   43 1   
    23   10   44 1   
    24   11   45 1   
    25   11   46 1   
    26   12   13 1   
    27   12   47 1   
    28   13   14 2   
    29   13   15 1   
    30   15   16 1   
    31   15   19 1   
    32   16   17 1   
    33   16   48 1   
    34   16   49 1   
    35   17   20 1   
    36   17   50 1   
    37   17   51 1   
    38   18   19 1   
    39   18   20 1   
    40   18   52 1   
    41   18   53 1   
    42   19   54 1   
    43   19   55 1   
    44   20   21 1   
    45   21   22 2   
    46   21   23 2   
    47   21   24 1   
    48   24   25 ar  
    49   24   26 ar  
    50   25   28 ar  
    51   25   56 1   
    52   26   27 ar  
    53   26   57 1   
    54   27   29 ar  
    55   27   58 1   
    56   28   29 ar  
    57   28   32 ar  
    58   29   30 ar  
    59   30   33 ar  
    60   30   59 1   
    61   31   32 ar  
    62   31   33 ar  
    63   31   60 1   
    64   32   61 1   
    65   33   34 1   
@<TRIPOS>SUBSTRUCTURE
     1 ZEN         1 TEMP              0 ****  ****    0 ROOT
