@<TRIPOS>MOLECULE
ZER
   45    46     1     0     0
SMALL
bcc


@<TRIPOS>ATOM
      1 O12         0.1830    1.0860    0.1560 o         1 ZER     -0.551000
      2 C12         1.1350    0.3360   -0.0680 c         1 ZER      0.683700
      3 O10         1.5960   -0.4900    0.9140 os        1 ZER     -0.430900
      4 C10         1.1300   -0.3800    2.2720 c3        1 ZER      0.165100
      5 C11         1.3610    1.0030    2.8390 c3        1 ZER     -0.127100
      6 C9P        -0.2860   -0.9210    2.4320 c3        1 ZER     -0.101400
      7 C1          1.9010    0.1950   -1.3240 ca        1 ZER     -0.179600
      8 C2          3.2430    0.6290   -1.3490 ca        1 ZER      0.208100
      9 O2          3.7380    1.1840   -0.1950 oh        1 ZER     -0.486100
     10 C3          4.0260    0.5170   -2.5050 ca        1 ZER     -0.315000
     11 C4          3.4470   -0.0510   -3.6460 ca        1 ZER      0.187100
     12 O4          4.1400   -0.2090   -4.8210 oh        1 ZER     -0.488100
     13 C5          2.1150   -0.4900   -3.6440 ca        1 ZER     -0.198000
     14 C6          1.3380   -0.3590   -2.4870 ca        1 ZER      0.069200
     15 C1P        -0.0370   -0.8470   -2.5490 ce        1 ZER     -0.170200
     16 C2P        -1.1190   -0.1110   -2.2700 c2        1 ZER     -0.117200
     17 C3P        -2.5050   -0.6280   -2.3850 c3        1 ZER     -0.057200
     18 C4P        -3.3570   -0.2320   -1.1940 c3        1 ZER     -0.067400
     19 C5P        -2.7420   -0.7150    0.1000 c3        1 ZER     -0.192400
     20 C6P        -3.4510   -0.2160    1.3230 c         1 ZER      0.571100
     21 O6P        -4.5500    0.3470    1.2830 o         1 ZER     -0.537100
     22 C7P        -2.7480   -0.4640    2.6340 c3        1 ZER     -0.183400
     23 C8P        -1.3510    0.1260    2.6770 c3        1 ZER     -0.080400
     24 H1          1.8420   -1.1060    2.7770 h1        1 ZER      0.069700
     25 H2          1.1330    1.0000    3.9320 hc        1 ZER      0.055033
     26 H3          2.4280    1.2960    2.6880 hc        1 ZER      0.055033
     27 H4          0.7150    1.7620    2.3350 hc        1 ZER      0.055033
     28 H5         -0.2860   -1.6410    3.2940 hc        1 ZER      0.050200
     29 H6         -0.5410   -1.5130    1.5110 hc        1 ZER      0.050200
     30 H7          4.6670    1.4150   -0.3440 ho        1 ZER      0.426000
     31 H8          5.0670    0.8630   -2.5120 ha        1 ZER      0.141000
     32 H9          5.0370    0.1340   -4.6920 ho        1 ZER      0.424000
     33 H10         1.6880   -0.9310   -4.5560 ha        1 ZER      0.161000
     34 H11        -0.1290   -1.8910   -2.8970 ha        1 ZER      0.136000
     35 H12        -1.0270    0.9340   -1.9210 ha        1 ZER      0.152000
     36 H13        -2.9680   -0.2050   -3.3200 hc        1 ZER      0.050700
     37 H14        -2.5050   -1.7460   -2.4900 hc        1 ZER      0.050700
     38 H15        -4.3870   -0.6590   -1.3090 hc        1 ZER      0.056700
     39 H16        -3.4650    0.8850   -1.1560 hc        1 ZER      0.056700
     40 H17        -1.6710   -0.3660    0.1470 hc        1 ZER      0.076200
     41 H18        -2.7350   -1.8370    0.1320 hc        1 ZER      0.076200
     42 H19        -3.3670   -0.0180    3.4590 hc        1 ZER      0.064700
     43 H20        -2.7140   -1.5730    2.8040 hc        1 ZER      0.064700
     44 H21        -1.1820    0.5890    3.6860 hc        1 ZER      0.062700
     45 H22        -1.2570    0.9500    1.9190 hc        1 ZER      0.062700
@<TRIPOS>BOND
     1    1    2 2   
     2    2    3 1   
     3    2    7 1   
     4    3    4 1   
     5    4    5 1   
     6    4    6 1   
     7    4   24 1   
     8    5   25 1   
     9    5   26 1   
    10    5   27 1   
    11    6   23 1   
    12    6   28 1   
    13    6   29 1   
    14    7    8 ar  
    15    7   14 ar  
    16    8    9 1   
    17    8   10 ar  
    18    9   30 1   
    19   10   11 ar  
    20   10   31 1   
    21   11   12 1   
    22   11   13 ar  
    23   12   32 1   
    24   13   14 ar  
    25   13   33 1   
    26   14   15 1   
    27   15   16 2   
    28   15   34 1   
    29   16   17 1   
    30   16   35 1   
    31   17   18 1   
    32   17   36 1   
    33   17   37 1   
    34   18   19 1   
    35   18   38 1   
    36   18   39 1   
    37   19   20 1   
    38   19   40 1   
    39   19   41 1   
    40   20   21 2   
    41   20   22 1   
    42   22   23 1   
    43   22   42 1   
    44   22   43 1   
    45   23   44 1   
    46   23   45 1   
@<TRIPOS>SUBSTRUCTURE
     1 ZER         1 TEMP              0 ****  ****    0 ROOT
