@<TRIPOS>MOLECULE
ZES
   36    38     1     0     0
SMALL
bcc


@<TRIPOS>ATOM
      1 C1          0.2200    0.4080   -0.1770 ca        1 ZES     -0.197000
      2 C2          1.5850    0.2680   -0.0200 ca        1 ZES     -0.041000
      3 C3          2.1490    0.1290    1.2580 ca        1 ZES     -0.237600
      4 C4          1.3290    0.1320    2.4150 ca        1 ZES      0.156600
      5 C5         -0.0760    0.3080    2.2450 ca        1 ZES     -0.162000
      6 C6         -0.5970    0.4320    0.9690 ca        1 ZES      0.075400
      7 C10         3.6070   -0.0030    1.3790 c         1 ZES      0.731100
      8 N11         4.1260   -0.1910    2.6690 n         1 ZES     -0.491400
      9 C12         3.2830   -0.2430    3.8180 c         1 ZES      0.811500
     10 N13         1.8890   -0.0830    3.6720 n         1 ZES     -0.304000
     11 C14         5.5590   -0.2670    2.8720 c3        1 ZES      0.139300
     12 C15         6.1450   -1.6490    2.7760 ca        1 ZES     -0.110300
     13 C18         6.9120   -2.1850    3.8330 ca        1 ZES      0.145900
     14 C19         7.4820   -3.4690    3.7230 ca        1 ZES     -0.155000
     15 C20         7.2880   -4.2100    2.5590 ca        1 ZES     -0.002900
     16 C21         6.5380   -3.6830    1.5050 ca        1 ZES     -0.128000
     17 C22         5.9780   -2.4140    1.6190 ca        1 ZES     -0.092000
     18 Cl6        -2.2780    0.6200    0.7640 cl        1 ZES     -0.103400
     19 C27         1.0810    0.0610    4.8740 c3        1 ZES     -0.066000
     20 C28         0.3690    1.4460    5.0390 c         1 ZES      0.904600
     21 O31         1.0790    2.4790    5.0920 o         1 ZES     -0.812800
     22 O32        -0.8880    1.3950    5.1320 o         1 ZES     -0.812800
     23 O33         3.8000   -0.4780    4.9320 o         1 ZES     -0.636500
     24 O34         4.3830    0.0360    0.3990 o         1 ZES     -0.666500
     25 F35         7.1280   -1.4770    4.9660 f         1 ZES     -0.127900
     26 Br3         8.0440   -5.9210    2.4120 br        1 ZES     -0.105100
     27 H1         -0.2220    0.5130   -1.1770 ha        1 ZES      0.138000
     28 H2          2.2590    0.2650   -0.8930 ha        1 ZES      0.149000
     29 H5         -0.7370    0.3900    3.1350 ha        1 ZES      0.222000
     30 H141        5.7920    0.1670    3.8900 h1        1 ZES      0.089700
     31 H142        6.0520    0.3710    2.0790 h1        1 ZES      0.089700
     32 H19         8.0680   -3.8660    4.5660 ha        1 ZES      0.155000
     33 H21         6.3840   -4.2630    0.5820 ha        1 ZES      0.145000
     34 H22         5.3940   -1.9920    0.7810 ha        1 ZES      0.171000
     35 H271        1.7390   -0.0820    5.7750 h1        1 ZES      0.063200
     36 H272        0.3050   -0.7530    4.8540 h1        1 ZES      0.063200
@<TRIPOS>BOND
     1    1    2 ar  
     2    1    6 ar  
     3    1   27 1   
     4    2    3 ar  
     5    2   28 1   
     6    3    4 ar  
     7    3    7 1   
     8    4    5 ar  
     9    4   10 1   
    10    5    6 ar  
    11    5   29 1   
    12    6   18 1   
    13    7    8 1   
    14    7   24 2   
    15    8    9 1   
    16    8   11 1   
    17    9   10 1   
    18    9   23 2   
    19   10   19 1   
    20   11   12 1   
    21   11   30 1   
    22   11   31 1   
    23   12   13 ar  
    24   12   17 ar  
    25   13   14 ar  
    26   13   25 1   
    27   14   15 ar  
    28   14   32 1   
    29   15   16 ar  
    30   15   26 1   
    31   16   17 ar  
    32   16   33 1   
    33   17   34 1   
    34   19   20 1   
    35   19   35 1   
    36   19   36 1   
    37   20   21 1   
    38   20   22 1   
@<TRIPOS>SUBSTRUCTURE
     1 ZES         1 TEMP              0 ****  ****    0 ROOT
