@<TRIPOS>MOLECULE
ZES
   36    38     1     0     0
SMALL
bcc


@<TRIPOS>ATOM
      1 C1         -2.7910   -0.7830   -3.8740 ca        1 ZES     -0.197000
      2 C2         -2.3610   -1.3390   -2.6850 ca        1 ZES     -0.041000
      3 C3         -1.1250   -0.9740   -2.1280 ca        1 ZES     -0.237600
      4 C4         -0.2900   -0.0280   -2.7750 ca        1 ZES      0.156600
      5 C5         -0.7280    0.5180   -4.0180 ca        1 ZES     -0.162000
      6 C6         -1.9580    0.1420   -4.5310 ca        1 ZES      0.075400
      7 C10        -0.7020   -1.6030   -0.8690 c         1 ZES      0.731100
      8 N11         0.5160   -1.1730   -0.3200 n         1 ZES     -0.491400
      9 C12         1.3170   -0.1780   -0.9540 c         1 ZES      0.811500
     10 N13         0.8970    0.3850   -2.1770 n         1 ZES     -0.304000
     11 C14         1.0270   -1.7920    0.8860 c3        1 ZES      0.139300
     12 C15         0.5820   -1.1500    2.1720 ca        1 ZES     -0.110300
     13 C18         1.5250   -0.7060    3.1240 ca        1 ZES      0.145900
     14 C19         1.0990   -0.1310    4.3380 ca        1 ZES     -0.155000
     15 C20        -0.2640   -0.0070    4.5990 ca        1 ZES     -0.002900
     16 C21        -1.2040   -0.4530    3.6670 ca        1 ZES     -0.128000
     17 C22        -0.7770   -1.0200    2.4680 ca        1 ZES     -0.092000
     18 CL6        -2.4910    0.8120   -6.0040 cl        1 ZES     -0.103400
     19 C27         1.8270    1.2430   -2.8970 c3        1 ZES     -0.066000
     20 C28         2.3040    0.6970   -4.2840 c         1 ZES      0.904600
     21 O31         2.9060   -0.4030   -4.3170 o         1 ZES     -0.812800
     22 O32         2.0550    1.4450   -5.2700 o         1 ZES     -0.812800
     23 O33         2.3590    0.2090   -0.3800 o         1 ZES     -0.636500
     24 O34        -1.3730   -2.4780   -0.2800 o         1 ZES     -0.666500
     25 F35         2.8540   -0.8310    2.9000 f         1 ZES     -0.127900
     26 BR3        -0.8330    0.7590    6.2140 br        1 ZES     -0.105100
     27 H1         -3.7590   -1.0650   -4.3080 ha        1 ZES      0.138000
     28 H2         -2.9760   -2.0820   -2.1520 ha        1 ZES      0.149000
     29 H5         -0.0660    1.2060   -4.5870 ha        1 ZES      0.222000
     30 H141        0.6720   -2.8660    0.8980 h1        1 ZES      0.089700
     31 H142        2.1560   -1.7790    0.8360 h1        1 ZES      0.089700
     32 H19         1.8560    0.2140    5.0580 ha        1 ZES      0.155000
     33 H21        -2.2820   -0.3600    3.8690 ha        1 ZES      0.145000
     34 H22        -1.5200   -1.3840    1.7360 ha        1 ZES      0.171000
     35 H271        2.7460    1.3930   -2.2670 h1        1 ZES      0.063200
     36 H272        1.3170    2.2350   -3.0460 h1        1 ZES      0.063200
@<TRIPOS>BOND
     1    1    2 ar  
     2    1    6 ar  
     3    1   27 1   
     4    2    3 ar  
     5    2   28 1   
     6    3    4 ar  
     7    3    7 1   
     8    4    5 ar  
     9    4   10 1   
    10    5    6 ar  
    11    5   29 1   
    12    6   18 1   
    13    7    8 1   
    14    7   24 2   
    15    8    9 1   
    16    8   11 1   
    17    9   10 1   
    18    9   23 2   
    19   10   19 1   
    20   11   12 1   
    21   11   30 1   
    22   11   31 1   
    23   12   13 ar  
    24   12   17 ar  
    25   13   14 ar  
    26   13   25 1   
    27   14   15 ar  
    28   14   32 1   
    29   15   16 ar  
    30   15   26 1   
    31   16   17 ar  
    32   16   33 1   
    33   17   34 1   
    34   19   20 1   
    35   19   35 1   
    36   19   36 1   
    37   20   21 1   
    38   20   22 1   
@<TRIPOS>SUBSTRUCTURE
     1 ZES         1 TEMP              0 ****  ****    0 ROOT
