@<TRIPOS>MOLECULE
ZES
   36    32     1     0     0
SMALL
bcc


@<TRIPOS>ATOM
      1 C1         -3.4610    0.6870   -2.1590 c1        1 ZES     -0.197000
      2 C2         -2.0750    0.7050   -2.1760 c1        1 ZES     -0.041000
      3 C3         -1.3530    0.7070   -0.9610 c1        1 ZES     -0.217000
      4 C4         -2.0190    0.6920    0.2270 c1        1 ZES      0.164000
      5 C5         -3.4280    0.6740    0.2440 c1        1 ZES     -0.162000
      6 C6         -4.1380    0.6720   -0.9530 c1        1 ZES     -0.003000
      7 C10         0.0370    0.7370   -0.9770 c2        1 ZES      0.368000
      8 N11         0.7250    0.7520    0.1820 n2        1 ZES     -0.320000
      9 C12         0.0500    0.7370    1.3850 c1        1 ZES      0.402000
     10 N13        -1.3170    0.7060    1.4040 n3        1 ZES     -0.207000
     11 C14         2.1750    0.7480    0.1640 c3        1 ZES      0.016000
     12 C15         2.6780   -0.6070   -0.3660 c2        1 ZES     -0.103000
     13 C18         3.0540   -1.6020    0.5240 c2        1 ZES      0.111000
     14 C19         3.5940   -2.7930    0.0480 c1        1 ZES     -0.155000
     15 C20         3.7570   -2.9850   -1.3160 c1        1 ZES     -0.143000
     16 C21         3.3810   -1.9880   -2.2070 c1        1 ZES     -0.128000
     17 C22         2.8420   -0.7990   -1.7320 c1        1 ZES     -0.092000
     18 CL6        -5.8830    0.5190   -1.0280 cl        1 ZES     -0.025000
     19 C27        -2.0290    0.6620    2.6810 c3        1 ZES     -0.132000
     20 C28        -2.1520    2.0710    3.2450 c2        1 ZES      0.324000
     21 O31        -2.3100    2.2440    4.4870 o         1 ZES     -0.547500
     22 O32        -2.1000    3.0590    2.4770 o         1 ZES     -0.547500
     23 O33         0.6750    0.6690    2.4310 o         1 ZES     -0.361000
     24 O34         0.6350    0.7510   -2.0410 o         1 ZES     -0.391000
     25 F35         2.9850   -1.3790    1.8480 f         1 ZES     -0.093000
     26 BR3         4.3240   -4.6910   -1.9770 br        1 ZES      0.035000
     27 H1         -3.9610    0.7590   -2.9990 ha        1 ZES      0.138000
     28 H2         -1.5950    0.7120   -3.0340 ha        1 ZES      0.149000
     29 H5         -3.9080    0.6630    1.0970 ha        1 ZES      0.222000
     30 H141        2.5120    0.8880    1.0690 h1        1 ZES      0.129000
     31 H142        2.4990    1.4710   -0.4230 h1        1 ZES      0.129000
     32 H19         3.8830   -3.4860    0.6770 ha        1 ZES      0.155000
     33 H21         3.5180   -2.1150   -3.1730 ha        1 ZES      0.145000
     34 H22         2.8600   -0.2220   -2.5210 ha        1 ZES      0.171000
     35 H271       -1.5340    0.1020    3.3100 h1        1 ZES      0.102500
     36 H272       -2.9240    0.2860    2.5440 h1        1 ZES      0.102500
@<TRIPOS>BOND
     1    1    6 1   
     2    1   27 1   
     3    2    3 1   
     4    2   28 1   
     5    3    7 1   
     6    4    5 1   
     7    4   10 1   
     8    5   29 1   
     9    6   18 1   
    10    7    8 1   
    11    7   24 1   
    12    8   11 1   
    13    9   10 1   
    14    9   23 1   
    15   10   19 1   
    16   11   12 1   
    17   11   30 1   
    18   11   31 1   
    19   12   13 1   
    20   12   17 1   
    21   13   14 1   
    22   13   25 1   
    23   14   32 1   
    24   15   16 1   
    25   15   26 1   
    26   16   33 1   
    27   17   34 1   
    28   19   20 1   
    29   19   35 1   
    30   19   36 1   
    31   20   21 1   
    32   20   22 1   
@<TRIPOS>SUBSTRUCTURE
     1 ZES         1 TEMP              0 ****  ****    0 ROOT
