@<TRIPOS>MOLECULE
ZEX
   98    89     1     0     0
SMALL
bcc


@<TRIPOS>ATOM
      1 C6          7.2890    5.0020    2.9470 c1        1 ZEX     -0.078000
      2 C17         5.7090    5.4770    4.7950 c3        1 ZEX     -0.204000
      3 C4          9.6330    4.0150    3.5430 c3        1 ZEX     -0.123000
      4 C3          9.3460    4.7980    5.0020 c3        1 ZEX      0.032000
      5 O3         10.1600    4.0540    6.1200 oh        1 ZEX     -0.329000
      6 C2          8.2210    4.8480    5.3450 c3        1 ZEX     -0.185000
      7 C1          7.1800    5.5550    4.2910 c2        1 ZEX     -0.004000
      8 C5          8.8000    4.5060    2.4950 c2        1 ZEX     -0.098000
      9 C18         9.0790    4.1120    1.0420 c3        1 ZEX     -0.186000
     10 C16         7.4010    7.0650    4.2760 c3        1 ZEX     -0.204000
     11 O23        -8.4830   -6.2000   -6.0360 oh        1 ZEX     -0.323000
     12 C26        -7.4160   -3.6710   -3.9000 c1        1 ZEX     -0.083000
     13 C7          6.2360    5.3780    1.8620 c2        1 ZEX     -0.111000
     14 C8          5.2360    4.4340    1.4770 c1        1 ZEX     -0.131000
     15 C9          5.1940    3.0140    2.1460 c1        1 ZEX     -0.061500
     16 C19         6.4510    2.2200    2.2950 c3        1 ZEX     -0.184000
     17 C10         4.0010    2.5020    2.5980 c1        1 ZEX     -0.140000
     18 C11         2.7280    3.3060    2.4500 c1        1 ZEX     -0.124250
     19 C12         1.4870    2.6520    2.3790 c1        1 ZEX     -0.124250
     20 C13         1.4170    1.0880    2.4520 c1        1 ZEX     -0.061500
     21 C20         1.9780    0.3340    3.7090 c3        1 ZEX     -0.184000
     22 C14         0.8560    0.3670    1.4040 c1        1 ZEX     -0.140000
     23 C15         0.3080    1.0990    0.1790 c1        1 ZEX     -0.124250
     24 C35        -0.7070    0.5430   -0.5530 c1        1 ZEX     -0.124250
     25 C34        -1.2950   -0.8150   -0.1420 c1        1 ZEX     -0.141500
     26 C33        -1.5560   -1.7620   -1.0910 c1        1 ZEX     -0.062500
     27 C40        -1.2650   -1.4740   -2.5430 c2        1 ZEX     -0.184000
     28 C32        -2.1450   -3.1260   -0.6770 c2        1 ZEX     -0.131500
     29 C31        -3.4110   -3.4940   -1.1040 c1        1 ZEX     -0.115000
     30 C30        -4.2140   -2.5660   -1.9730 c1        1 ZEX     -0.141500
     31 C29        -5.5780   -2.5670   -1.8930 c1        1 ZEX     -0.062500
     32 C39        -6.2730   -3.4920   -0.9390 c2        1 ZEX     -0.184000
     33 C28        -6.3960   -1.6250   -2.7770 c2        1 ZEX     -0.131500
     34 C27        -7.2730   -2.1470   -3.7340 c1        1 ZEX     -0.115000
     35 C21        -8.7530   -4.2870   -3.8920 c3        1 ZEX     -0.008000
     36 C36        -9.6080   -3.6960   -2.7720 c3        1 ZEX     -0.207000
     37 C37        -9.5430   -3.8620   -5.1050 c3        1 ZEX     -0.207000
     38 C22        -8.6870   -5.9020   -3.8090 c3        1 ZEX     -0.184000
     39 C23        -7.9280   -6.4690   -4.6560 c3        1 ZEX      0.037000
     40 C24        -6.3420   -5.9870   -4.6350 c3        1 ZEX     -0.070000
     41 C25        -6.2070   -4.5500   -4.6890 c2        1 ZEX     -0.132000
     42 C38        -5.5110   -6.6890   -5.7660 c3        1 ZEX     -0.198000
     43 H171        5.1180    5.9350    4.1560 hc        1 ZEX      0.077167
     44 H172        5.6400    5.9160    5.6820 hc        1 ZEX      0.077167
     45 H173        5.4390    4.5370    4.8740 hc        1 ZEX      0.077167
     46 H41         9.6090    3.0540    3.7030 hc        1 ZEX      0.103000
     47 H42        10.5670    4.1250    3.2460 hc        1 ZEX      0.103000
     48 H3          9.6850    5.7080    4.9320 h1        1 ZEX      0.076000
     49 HO3        10.8570    4.5530    6.3620 ho        1 ZEX      0.198000
     50 H21         7.9120    3.9330    5.5110 hc        1 ZEX      0.089000
     51 H22         8.1810    5.3470    6.1950 hc        1 ZEX      0.089000
     52 H181        9.7750    4.7000    0.6700 hc        1 ZEX      0.084333
     53 H182        9.3840    3.1840    1.0090 hc        1 ZEX      0.084333
     54 H183        8.2520    4.2040    0.5110 hc        1 ZEX      0.084333
     55 H161        7.3530    7.4100    5.1870 hc        1 ZEX      0.077167
     56 H162        8.2910    7.2630    3.8960 hc        1 ZEX      0.077167
     57 H163        6.7130    7.4910    3.7300 hc        1 ZEX      0.077167
     58 H1         -8.6850   -6.9800   -6.4350 ho        1 ZEX      0.199000
     59 H7          6.2610    6.2670    1.4420 ha        1 ZEX      0.125000
     60 H8          4.5730    4.6730    0.7920 ha        1 ZEX      0.126000
     61 H191        6.2320    1.2560    2.3020 hc        1 ZEX      0.085667
     62 H192        6.8890    2.4600    3.1320 hc        1 ZEX      0.085667
     63 H193        7.0490    2.4130    1.5490 hc        1 ZEX      0.085667
     64 H10         3.9750    1.6250    3.0110 ha        1 ZEX      0.128000
     65 H11         2.7700    4.2800    2.4040 ha        1 ZEX      0.124000
     66 H12         0.6610    3.1740    2.2820 ha        1 ZEX      0.124000
     67 H201        1.3140   -0.3380    4.0150 hc        1 ZEX      0.085667
     68 H202        2.1460    0.9790    4.4290 hc        1 ZEX      0.085667
     69 H203        2.8190   -0.1200    3.4710 hc        1 ZEX      0.085667
     70 H14         0.8120   -0.6100    1.4510 ha        1 ZEX      0.128000
     71 H15         0.6820    1.9620   -0.0830 ha        1 ZEX      0.124000
     72 H35        -1.0620    1.0160   -1.3460 ha        1 ZEX      0.124000
     73 H34        -1.4830   -1.0020    0.7970 ha        1 ZEX      0.127500
     74 H401       -0.3840   -1.0380   -2.6210 ha        1 ZEX      0.085000
     75 H402       -1.9570   -0.8790   -2.9050 ha        1 ZEX      0.085000
     76 H403       -1.2600   -2.3080   -3.0460 ha        1 ZEX      0.085000
     77 H32        -1.6310   -3.7220   -0.1200 ha        1 ZEX      0.125500
     78 H31        -3.7790   -4.3510   -0.8420 ha        1 ZEX      0.123500
     79 H30        -3.7580   -1.9600   -2.5990 ha        1 ZEX      0.127500
     80 H391       -6.0650   -4.4140   -1.1710 ha        1 ZEX      0.085000
     81 H392       -7.2520   -3.3490   -0.9950 ha        1 ZEX      0.085000
     82 H393       -5.9690   -3.3090   -0.0270 ha        1 ZEX      0.085000
     83 H28        -6.3080   -0.6660   -2.6740 ha        1 ZEX      0.125500
     84 H27        -7.7920   -1.5480   -4.2950 ha        1 ZEX      0.123500
     85 H361       -9.2310   -3.9500   -1.9060 hc        1 ZEX      0.077667
     86 H362      -10.5300   -4.0430   -2.8440 hc        1 ZEX      0.077667
     87 H363       -9.6190   -2.7170   -2.8500 hc        1 ZEX      0.077667
     88 H371       -8.9690   -3.8830   -5.8890 hc        1 ZEX      0.077667
     89 H372       -9.8820   -2.9500   -4.9710 hc        1 ZEX      0.077667
     90 H373      -10.3020   -4.4800   -5.2360 hc        1 ZEX      0.077667
     91 H221       -9.5970   -6.2520   -3.9300 hc        1 ZEX      0.087000
     92 H222       -8.3790   -6.1490   -2.9070 hc        1 ZEX      0.087000
     93 H23        -7.9570   -7.4430   -4.4930 h1        1 ZEX      0.070000
     94 H24        -5.8950   -6.3360   -3.8360 hc        1 ZEX      0.093000
     95 H25        -5.3390   -4.1530   -4.8330 ha        1 ZEX      0.134000
     96 H381       -5.8220   -6.3780   -6.6410 hc        1 ZEX      0.080667
     97 H382       -4.5430   -6.4630   -5.6580 hc        1 ZEX      0.080667
     98 H383       -5.6290   -7.6610   -5.7030 hc        1 ZEX      0.080667
@<TRIPOS>BOND
     1    1    8 1   
     2    1   13 1   
     3    2    7 1   
     4    2   43 1   
     5    2   44 1   
     6    2   45 1   
     7    3    4 1   
     8    3    8 1   
     9    3   46 1   
    10    3   47 1   
    11    4    5 1   
    12    4    6 1   
    13    4   48 1   
    14    5   49 1   
    15    6    7 1   
    16    6   50 1   
    17    6   51 1   
    18    7   10 1   
    19    8    9 1   
    20    9   52 1   
    21    9   53 1   
    22    9   54 1   
    23   10   55 1   
    24   10   56 1   
    25   10   57 1   
    26   11   39 1   
    27   11   58 1   
    28   12   35 1   
    29   12   41 1   
    30   13   14 1   
    31   13   59 1   
    32   14   60 1   
    33   15   16 1   
    34   15   17 1   
    35   16   61 1   
    36   16   62 1   
    37   16   63 1   
    38   17   64 1   
    39   18   19 1   
    40   18   65 1   
    41   19   66 1   
    42   20   21 1   
    43   20   22 1   
    44   21   67 1   
    45   21   68 1   
    46   21   69 1   
    47   22   70 1   
    48   23   24 1   
    49   23   71 1   
    50   24   72 1   
    51   25   26 1   
    52   25   73 1   
    53   26   28 1   
    54   27   74 1   
    55   27   75 1   
    56   27   76 1   
    57   28   29 1   
    58   28   77 1   
    59   29   78 1   
    60   30   31 1   
    61   30   79 1   
    62   31   33 1   
    63   32   80 1   
    64   32   81 1   
    65   32   82 1   
    66   33   34 1   
    67   33   83 1   
    68   34   84 1   
    69   35   36 1   
    70   35   37 1   
    71   35   38 1   
    72   36   85 1   
    73   36   86 1   
    74   36   87 1   
    75   37   88 1   
    76   37   89 1   
    77   37   90 1   
    78   38   39 1   
    79   38   91 1   
    80   38   92 1   
    81   39   40 1   
    82   39   93 1   
    83   40   41 1   
    84   40   42 1   
    85   40   94 1   
    86   41   95 1   
    87   42   96 1   
    88   42   97 1   
    89   42   98 1   
@<TRIPOS>SUBSTRUCTURE
     1 ZEX         1 TEMP              0 ****  ****    0 ROOT
