@<TRIPOS>MOLECULE
ZEX
   98    99     1     0     0
SMALL
bcc


@<TRIPOS>ATOM
      1 C6         -6.5180   12.6600  109.6060 ce        1 ZEX     -0.085200
      2 C17        -8.7730   12.0400  110.3990 c3        1 ZEX     -0.086600
      3 C4         -5.6560   14.1600  111.4090 c3        1 ZEX     -0.074200
      4 C3         -6.7470   13.5740  112.2960 c3        1 ZEX      0.140100
      5 O3         -6.4810   13.8290  113.6650 oh        1 ZEX     -0.595800
      6 C2         -6.8820   12.0830  112.0290 c3        1 ZEX     -0.105400
      7 C1         -7.2780   11.7910  110.5800 c3        1 ZEX     -0.001800
      8 C5         -5.7890   13.7300  109.9900 c2        1 ZEX     -0.098400
      9 C18        -5.0260   14.5800  109.0420 c3        1 ZEX     -0.063900
     10 C16        -6.9950   10.3130  110.3190 c3        1 ZEX     -0.086600
     11 O23       -12.9670   19.2170   84.8670 oh        1 ZEX     -0.595800
     12 C26       -13.3130   18.5640   88.2310 cf        1 ZEX     -0.082200
     13 C7         -6.6400   12.2610  108.2060 ce        1 ZEX     -0.116000
     14 C8         -6.9950   13.0950  107.2150 cf        1 ZEX     -0.133000
     15 C9         -7.1440   12.7050  105.8190 cf        1 ZEX     -0.067200
     16 C19        -6.5490   11.4100  105.4090 c3        1 ZEX     -0.062900
     17 C10        -7.8110   13.5260  104.9760 ce        1 ZEX     -0.132000
     18 C11        -8.0710   13.2760  103.5790 ce        1 ZEX     -0.125000
     19 C12        -8.6890   14.1770  102.7920 cf        1 ZEX     -0.125000
     20 C13        -8.9810   13.9860  101.3790 cf        1 ZEX     -0.067200
     21 C20        -8.7320   12.6380  100.8150 c3        1 ZEX     -0.061900
     22 C14        -9.4530   15.0330  100.6610 ce        1 ZEX     -0.129000
     23 C15        -9.7730   15.0290   99.2570 ce        1 ZEX     -0.124000
     24 C35       -10.2820   16.1110   98.6290 cf        1 ZEX     -0.122000
     25 C34       -10.5960   16.1100   97.2230 cf        1 ZEX     -0.131000
     26 C33       -11.1450   17.1310   96.5230 ce        1 ZEX     -0.064200
     27 C40       -11.5320   18.4320   97.1180 c3        1 ZEX     -0.062900
     28 C32       -11.3740   16.9610   95.0960 ce        1 ZEX     -0.128000
     29 C31       -11.7620   17.9410   94.2570 cf        1 ZEX     -0.122000
     30 C30       -11.9730   17.7080   92.8490 cf        1 ZEX     -0.135000
     31 C29       -12.3020   18.6440   91.9290 ce        1 ZEX     -0.062200
     32 C39       -12.4730   20.0840   92.2420 c3        1 ZEX     -0.062900
     33 C28       -12.5090   18.2340   90.5460 ce        1 ZEX     -0.137000
     34 C27       -13.1170   18.9850   89.6120 cf        1 ZEX     -0.111000
     35 C21       -14.5340   19.1120   87.5370 c3        1 ZEX     -0.002800
     36 C36       -14.3220   20.5920   87.2330 c3        1 ZEX     -0.089600
     37 C37       -15.7620   18.9630   88.4330 c3        1 ZEX     -0.089600
     38 C22       -14.8160   18.3490   86.2390 c3        1 ZEX     -0.106400
     39 C23       -13.5830   18.0490   85.3970 c3        1 ZEX      0.149100
     40 C24       -12.5440   17.2740   86.2140 c3        1 ZEX     -0.025500
     41 C25       -12.4260   17.7670   87.6100 c2        1 ZEX     -0.141200
     42 C38       -11.1970   17.2700   85.5190 c3        1 ZEX     -0.080100
     43 H171       -9.0650   11.8590  109.3370 hc        1 ZEX      0.038033
     44 H172       -9.0320   13.0920  110.6650 hc        1 ZEX      0.038033
     45 H173       -9.3570   11.3500  111.0550 hc        1 ZEX      0.038033
     46 H41        -4.6490   13.8410  111.7930 hc        1 ZEX      0.055700
     47 H42        -5.6930   15.2800  111.4720 hc        1 ZEX      0.055700
     48 H3         -7.7280   14.1000  112.1120 h1        1 ZEX      0.081700
     49 HO3        -5.6620   13.3720  113.8910 ho        1 ZEX      0.395000
     50 H21        -7.6500   11.6500  112.7210 hc        1 ZEX      0.049200
     51 H22        -5.9030   11.5830  112.2550 hc        1 ZEX      0.049200
     52 H181       -4.0640   14.9130  109.5050 hc        1 ZEX      0.045367
     53 H182       -5.6220   15.4930  108.7860 hc        1 ZEX      0.045367
     54 H183       -4.7930   14.0370  108.0930 hc        1 ZEX      0.045367
     55 H161       -7.3770    9.6990  111.1710 hc        1 ZEX      0.038033
     56 H162       -5.8980   10.1370  110.2160 hc        1 ZEX      0.038033
     57 H163       -7.5060    9.9710  109.3880 hc        1 ZEX      0.038033
     58 H7         -6.4340   11.1950  108.0030 ha        1 ZEX      0.130000
     59 H8         -7.2160   14.1540  107.4390 ha        1 ZEX      0.127000
     60 H191       -7.2260   10.5690  105.7060 hc        1 ZEX      0.044700
     61 H192       -5.5600   11.2570  105.9110 hc        1 ZEX      0.044700
     62 H193       -6.3820   11.3560  104.3060 hc        1 ZEX      0.044700
     63 H10        -8.2130   14.4800  105.3680 ha        1 ZEX      0.122000
     64 H11        -7.7460   12.3040  103.1710 ha        1 ZEX      0.127000
     65 H12        -9.0060   15.1490  103.2140 ha        1 ZEX      0.123000
     66 H201       -9.1980   11.8560  101.4670 hc        1 ZEX      0.045367
     67 H202       -7.6310   12.4430  100.7650 hc        1 ZEX      0.045367
     68 H203       -9.1550   12.5220   99.7880 hc        1 ZEX      0.045367
     69 H14        -9.6130   16.0000  101.1760 ha        1 ZEX      0.121000
     70 H15        -9.5840   14.1020   98.6900 ha        1 ZEX      0.125000
     71 H35       -10.4660   17.0400   99.1950 ha        1 ZEX      0.125000
     72 H34       -10.3490   15.1730   96.6880 ha        1 ZEX      0.121000
     73 H401      -12.5730   18.7040   96.8080 hc        1 ZEX      0.045367
     74 H402      -10.8390   19.2350   96.7610 hc        1 ZEX      0.045367
     75 H403      -11.5020   18.4150   98.2340 hc        1 ZEX      0.045367
     76 H32       -11.1990   15.9420   94.7060 ha        1 ZEX      0.123000
     77 H31       -11.9360   18.9640   94.6310 ha        1 ZEX      0.126000
     78 H30       -11.8560   16.6570   92.5210 ha        1 ZEX      0.122000
     79 H391      -13.5620   20.3280   92.3300 hc        1 ZEX      0.045033
     80 H392      -12.0370   20.7150   91.4270 hc        1 ZEX      0.045033
     81 H393      -11.9700   20.3680   93.1970 hc        1 ZEX      0.045033
     82 H28       -12.1440   17.2220   90.2940 ha        1 ZEX      0.125000
     83 H27       -13.5120   19.9860   89.8600 ha        1 ZEX      0.128000
     84 H361      -15.1850   20.9920   86.6480 hc        1 ZEX      0.038700
     85 H362      -13.3840   20.7360   86.6440 hc        1 ZEX      0.038700
     86 H363      -14.2380   21.1750   88.1810 hc        1 ZEX      0.038700
     87 H371      -15.8940   17.8980   88.7400 hc        1 ZEX      0.038700
     88 H372      -16.6750   19.2940   87.8820 hc        1 ZEX      0.038700
     89 H373      -15.6560   19.5860   89.3520 hc        1 ZEX      0.038700
     90 H221      -15.5500   18.9360   85.6250 hc        1 ZEX      0.048200
     91 H222      -15.2970   17.3670   86.4940 hc        1 ZEX      0.048200
     92 H23       -13.8970   17.4100   84.5180 h1        1 ZEX      0.030700
     93 H24       -12.9180   16.2070   86.2730 hc        1 ZEX      0.054700
     94 H25       -11.5250   17.4160   88.1430 ha        1 ZEX      0.127000
     95 H381      -11.3080   16.8780   84.4800 hc        1 ZEX      0.041367
     96 H382      -10.4740   16.6270   86.0750 hc        1 ZEX      0.041367
     97 H383      -10.7890   18.3080   85.4610 hc        1 ZEX      0.041367
     98 H1        -13.6780   19.8160   84.6090 ho        1 ZEX      0.400000
@<TRIPOS>BOND
     1    1    7 1   
     2    1    8 2   
     3    1   13 1   
     4    2    7 1   
     5    2   43 1   
     6    2   44 1   
     7    2   45 1   
     8    3    4 1   
     9    3    8 1   
    10    3   46 1   
    11    3   47 1   
    12    4    5 1   
    13    4    6 1   
    14    4   48 1   
    15    5   49 1   
    16    6    7 1   
    17    6   50 1   
    18    6   51 1   
    19    7   10 1   
    20    8    9 1   
    21    9   52 1   
    22    9   53 1   
    23    9   54 1   
    24   10   55 1   
    25   10   56 1   
    26   10   57 1   
    27   11   39 1   
    28   11   98 1   
    29   12   34 1   
    30   12   35 1   
    31   12   41 2   
    32   13   14 2   
    33   13   58 1   
    34   14   15 1   
    35   14   59 1   
    36   15   16 1   
    37   15   17 2   
    38   16   60 1   
    39   16   61 1   
    40   16   62 1   
    41   17   18 1   
    42   17   63 1   
    43   18   19 2   
    44   18   64 1   
    45   19   20 1   
    46   19   65 1   
    47   20   21 1   
    48   20   22 2   
    49   21   66 1   
    50   21   67 1   
    51   21   68 1   
    52   22   23 1   
    53   22   69 1   
    54   23   24 2   
    55   23   70 1   
    56   24   25 1   
    57   24   71 1   
    58   25   26 2   
    59   25   72 1   
    60   26   27 1   
    61   26   28 1   
    62   27   73 1   
    63   27   74 1   
    64   27   75 1   
    65   28   29 2   
    66   28   76 1   
    67   29   30 1   
    68   29   77 1   
    69   30   31 2   
    70   30   78 1   
    71   31   32 1   
    72   31   33 1   
    73   32   79 1   
    74   32   80 1   
    75   32   81 1   
    76   33   34 2   
    77   33   82 1   
    78   34   83 1   
    79   35   36 1   
    80   35   37 1   
    81   35   38 1   
    82   36   84 1   
    83   36   85 1   
    84   36   86 1   
    85   37   87 1   
    86   37   88 1   
    87   37   89 1   
    88   38   39 1   
    89   38   90 1   
    90   38   91 1   
    91   39   40 1   
    92   39   92 1   
    93   40   41 1   
    94   40   42 1   
    95   40   93 1   
    96   41   94 1   
    97   42   95 1   
    98   42   96 1   
    99   42   97 1   
@<TRIPOS>SUBSTRUCTURE
     1 ZEX         1 TEMP              0 ****  ****    0 ROOT
