@<TRIPOS>MOLECULE
ZEZ
   29    30     1     0     0
SMALL
bcc


@<TRIPOS>ATOM
      1 C15         4.9270   -1.5830    0.0630 c3        1 ZEZ     -0.051900
      2 C13         3.8180   -0.6050   -0.0180 c2        1 ZEZ     -0.094400
      3 C14         4.1930    0.8350   -0.1610 c3        1 ZEZ      0.159600
      4 O16         5.6080    0.9540   -0.1900 oh        1 ZEZ     -0.596800
      5 C12         2.5290   -0.9790    0.0330 c2        1 ZEZ     -0.210200
      6 C11         1.4130    0.0110   -0.0490 c3        1 ZEZ      0.257000
      7 N10         0.1030   -0.5800    0.0250 nh        1 ZEZ     -0.861900
      8 C1         -1.0470    0.1670   -0.0330 ca        1 ZEZ      0.766200
      9 C6         -2.3240   -0.4900    0.0480 ca        1 ZEZ     -0.234200
     10 N7         -2.7000   -1.8340    0.1840 nc        1 ZEZ     -0.542100
     11 C8         -4.0420   -1.8200    0.2000 cd        1 ZEZ      0.397700
     12 N9         -4.5950   -0.5250    0.0800 na        1 ZEZ     -0.378000
     13 C5         -3.5120    0.3540   -0.0200 ca        1 ZEZ      0.454800
     14 N4         -3.4730    1.7150   -0.1540 nb        1 ZEZ     -0.736000
     15 C3         -2.2080    2.1910   -0.2170 ca        1 ZEZ      0.687900
     16 N2         -1.0170    1.5350   -0.1680 nb        1 ZEZ     -0.798000
     17 H15         5.5800   -1.3400    0.9400 hc        1 ZEZ      0.051033
     18 H15A        4.5500   -2.6290    0.1690 hc        1 ZEZ      0.051033
     19 H15B        5.5580   -1.5130   -0.8590 hc        1 ZEZ      0.051033
     20 H14         3.7580    1.2500   -1.1140 h1        1 ZEZ      0.035700
     21 H14A        3.7800    1.4250    0.7060 h1        1 ZEZ      0.035700
     22 HO16        5.7960    1.8950   -0.2830 ho        1 ZEZ      0.403000
     23 H12         2.2670   -2.0440    0.1390 ha        1 ZEZ      0.134000
     24 H11         1.5250    0.7630    0.7900 h1        1 ZEZ      0.059700
     25 H11A        1.5030    0.5870   -1.0200 h1        1 ZEZ      0.059700
     26 HN10        0.0170   -1.5650    0.1230 hn        1 ZEZ      0.459800
     27 H8         -4.6840   -2.7040    0.2950 h5        1 ZEZ      0.072800
     28 HN9        -5.5490   -0.2790    0.0680 hn        1 ZEZ      0.318700
     29 H3         -2.1210    3.2940   -0.3260 h5        1 ZEZ      0.051100
@<TRIPOS>BOND
     1    1    2 1   
     2    1   17 1   
     3    1   18 1   
     4    1   19 1   
     5    2    3 1   
     6    2    5 2   
     7    3    4 1   
     8    3   20 1   
     9    3   21 1   
    10    4   22 1   
    11    5    6 1   
    12    5   23 1   
    13    6    7 1   
    14    6   24 1   
    15    6   25 1   
    16    7    8 1   
    17    7   26 1   
    18    8    9 ar  
    19    8   16 ar  
    20    9   10 1   
    21    9   13 ar  
    22   10   11 2   
    23   11   12 1   
    24   11   27 1   
    25   12   13 1   
    26   12   28 1   
    27   13   14 ar  
    28   14   15 ar  
    29   15   16 ar  
    30   15   29 1   
@<TRIPOS>SUBSTRUCTURE
     1 ZEZ         1 TEMP              0 ****  ****    0 ROOT
