@<TRIPOS>MOLECULE
ZEZ
   29    30     1     0     0
SMALL
bcc


@<TRIPOS>ATOM
      1 C15         0.0240    0.2860    0.1740 c3        1 ZEZ     -0.051900
      2 C13         1.4910    0.0850    0.1640 c2        1 ZEZ     -0.094400
      3 C14         2.2670    0.7000    1.2850 c3        1 ZEZ      0.159600
      4 O16         1.3770    1.3840    2.1550 oh        1 ZEZ     -0.596800
      5 C12         2.1110   -0.6140   -0.8000 c2        1 ZEZ     -0.210200
      6 C11         3.5920   -0.8130   -0.8070 c3        1 ZEZ      0.257000
      7 N10         4.0700   -1.6010   -1.9130 nu        1 ZEZ     -0.861900
      8 C1          5.3980   -1.8950   -2.0880 ca        1 ZEZ      0.766200
      9 C6          5.8040   -2.7000   -3.2100 ca        1 ZEZ     -0.234200
     10 N7          5.0950   -3.3100   -4.2540 nc        1 ZEZ     -0.542100
     11 C8          6.0290   -3.9270   -4.9950 cd        1 ZEZ      0.397700
     12 N9          7.3420   -3.7630   -4.5000 na        1 ZEZ     -0.378000
     13 C5          7.2290   -2.9760   -3.3490 ca        1 ZEZ      0.454800
     14 N4          8.1830   -2.5160   -2.4820 nb        1 ZEZ     -0.736000
     15 C3          7.6550   -1.7770   -1.4800 ca        1 ZEZ      0.687900
     16 N2          6.3630   -1.4390   -1.2210 nb        1 ZEZ     -0.798000
     17 H15        -0.4070   -0.1300    1.1200 hc        1 ZEZ      0.051033
     18 H15A       -0.4680   -0.2080   -0.6980 hc        1 ZEZ      0.051033
     19 H15B       -0.2060    1.3810    0.1500 hc        1 ZEZ      0.051033
     20 H14         3.0260    1.4230    0.8720 h1        1 ZEZ      0.035700
     21 H14A        2.8130   -0.1030    1.8560 h1        1 ZEZ      0.035700
     22 HO16        1.9230    1.7610    2.8550 ho        1 ZEZ      0.403000
     23 H12         1.5270   -1.0620   -1.6200 ha        1 ZEZ      0.134000
     24 H11         4.0990    0.2000   -0.8320 h1        1 ZEZ      0.059700
     25 H11A        3.9020   -1.3100    0.1620 h1        1 ZEZ      0.059700
     26 HN10        3.4180   -1.9690   -2.5660 hn        1 ZEZ      0.459800
     27 H8          5.8330   -4.5100   -5.9020 h5        1 ZEZ      0.072800
     28 HN9         8.1750   -4.1240   -4.8800 hn        1 ZEZ      0.318700
     29 H3          8.3900   -1.3800   -0.7460 h5        1 ZEZ      0.051100
@<TRIPOS>BOND
     1    1    2 1   
     2    1   17 1   
     3    1   18 1   
     4    1   19 1   
     5    2    3 1   
     6    2    5 2   
     7    3    4 1   
     8    3   20 1   
     9    3   21 1   
    10    4   22 1   
    11    5    6 1   
    12    5   23 1   
    13    6    7 1   
    14    6   24 1   
    15    6   25 1   
    16    7    8 1   
    17    7   26 1   
    18    8    9 ar  
    19    8   16 ar  
    20    9   10 1   
    21    9   13 ar  
    22   10   11 2   
    23   11   12 1   
    24   11   27 1   
    25   12   13 1   
    26   12   28 1   
    27   13   14 ar  
    28   14   15 ar  
    29   15   16 ar  
    30   15   29 1   
@<TRIPOS>SUBSTRUCTURE
     1 ZEZ         1 TEMP              0 ****  ****    0 ROOT
