@<TRIPOS>MOLECULE
ZEZ
   30    31     1     0     0
SMALL
bcc


@<TRIPOS>ATOM
      1 C15         0.2350    0.7620    0.0190 c3        1 ZEZ     -0.086900
      2 C13         1.6630    0.3830   -0.0880 c2        1 ZEZ     -0.061400
      3 C14         2.3410    0.0530    1.2110 c3        1 ZEZ      0.136600
      4 O16         2.7550   -1.3050    1.2390 oh        1 ZEZ     -0.638800
      5 C12         2.2980    0.3650   -1.2720 c2        1 ZEZ     -0.251200
      6 C11         3.7470    0.0860   -1.4520 c3        1 ZEZ      0.170000
      7 N10         4.0430   -1.3860   -1.3480 n4        1 ZEZ     -0.754700
      8 C1          5.4070   -1.7240   -1.7940 ca        1 ZEZ      0.549200
      9 C6          5.5820   -2.7420   -2.7540 ca        1 ZEZ     -0.145200
     10 N7          4.7140   -3.5800   -3.4650 nc        1 ZEZ     -0.578100
     11 C8          5.5170   -4.3420   -4.2310 cd        1 ZEZ      0.495700
     12 N9          6.8880   -4.0650   -4.0760 na        1 ZEZ     -0.360000
     13 C5          6.9820   -3.0370   -3.1310 ca        1 ZEZ      0.451800
     14 N4          8.0480   -2.3830   -2.6040 nb        1 ZEZ     -0.622000
     15 C3          7.7090   -1.4320   -1.6980 ca        1 ZEZ      0.670900
     16 N2          6.4670   -1.0650   -1.2640 nb        1 ZEZ     -0.684000
     17 H15        -0.3440   -0.0580    0.5140 hc        1 ZEZ      0.070367
     18 H15A       -0.2210    0.9660   -0.9810 hc        1 ZEZ      0.070367
     19 H15B        0.1360    1.6860    0.6460 hc        1 ZEZ      0.070367
     20 H14         1.6690    0.2810    2.0810 h1        1 ZEZ      0.079700
     21 H14A        3.2920    0.6460    1.3220 h1        1 ZEZ      0.079700
     22 HO16        2.0150   -1.8370    1.5560 ho        1 ZEZ      0.433000
     23 H12         1.7600    0.6250   -2.2010 ha        1 ZEZ      0.162000
     24 H11         4.3640    0.6110   -0.6640 hx        1 ZEZ      0.112700
     25 H11A        4.0910    0.4330   -2.4680 hx        1 ZEZ      0.112700
     26 HN10        3.9270   -1.6840   -0.3600 hn        1 ZEZ      0.480800
     27 H8          5.1640   -5.1220   -4.9260 h5        1 ZEZ      0.107800
     28 HN9         7.6490   -4.5030   -4.5360 hn        1 ZEZ      0.350700
     29 H3          8.5570   -0.8700   -1.2390 h5        1 ZEZ      0.097100
     30 H102        3.3690   -1.9080   -1.9250 hn        1 ZEZ      0.480800
@<TRIPOS>BOND
     1    1    2 1   
     2    1   17 1   
     3    1   18 1   
     4    1   19 1   
     5    2    3 1   
     6    2    5 2   
     7    3    4 1   
     8    3   20 1   
     9    3   21 1   
    10    4   22 1   
    11    5    6 1   
    12    5   23 1   
    13    6    7 1   
    14    6   24 1   
    15    6   25 1   
    16    7    8 1   
    17    7   26 1   
    18    7   30 1   
    19    8    9 ar  
    20    8   16 ar  
    21    9   10 1   
    22    9   13 ar  
    23   10   11 2   
    24   11   12 1   
    25   11   27 1   
    26   12   13 1   
    27   12   28 1   
    28   13   14 ar  
    29   14   15 ar  
    30   15   16 ar  
    31   15   29 1   
@<TRIPOS>SUBSTRUCTURE
     1 ZEZ         1 TEMP              0 ****  ****    0 ROOT
