@<TRIPOS>MOLECULE
ZF0
   21    21     1     0     0
SMALL
bcc


@<TRIPOS>ATOM
      1 N3          0.0300   -0.0190   -0.0990 n4        1 ZF0     -0.845600
      2 C9          1.5300    0.0110    0.0070 c3        1 ZF0      0.176100
      3 C10         1.9570    0.0090    1.4320 ca        1 ZF0     -0.197300
      4 C11         2.2070   -1.2050    2.0820 ca        1 ZF0     -0.105000
      5 C12         2.6460   -1.2150    3.4090 ca        1 ZF0     -0.054300
      6 C13         2.9330   -2.4920    4.1010 c3        1 ZF0     -0.070800
      7 C14         2.8280    0.0040    4.0790 ca        1 ZF0     -0.078000
      8 C15         2.5810    1.2130    3.4290 ca        1 ZF0     -0.112000
      9 C16         2.1460    1.2210    2.1050 ca        1 ZF0     -0.105000
     10 HN3        -0.2590   -0.0160   -1.0810 hn        1 ZF0      0.457800
     11 H9          1.9240   -0.8960   -0.5370 hx        1 ZF0      0.112700
     12 H9A         1.8870    0.9420   -0.5230 hx        1 ZF0      0.112700
     13 H11         2.0800   -2.1590    1.5460 ha        1 ZF0      0.139000
     14 H13         4.0410   -2.6390    4.1830 hc        1 ZF0      0.064033
     15 H13A        2.5080   -2.4840    5.1360 hc        1 ZF0      0.064033
     16 H13B        2.5040   -3.3640    3.5490 hc        1 ZF0      0.064033
     17 H14         3.1760    0.0020    5.1250 ha        1 ZF0      0.163000
     18 H15         2.7370    2.1660    3.9610 ha        1 ZF0      0.162000
     19 H16         1.9720    2.1790    1.5920 ha        1 ZF0      0.139000
     20 H2         -0.3330   -0.8610    0.3600 hn        1 ZF0      0.457800
     21 H33        -0.3660    0.8000    0.3730 hn        1 ZF0      0.457800
@<TRIPOS>BOND
     1    1    2 1   
     2    1   10 1   
     3    1   20 1   
     4    1   21 1   
     5    2    3 1   
     6    2   11 1   
     7    2   12 1   
     8    3    4 ar  
     9    3    9 ar  
    10    4    5 ar  
    11    4   13 1   
    12    5    6 1   
    13    5    7 ar  
    14    6   14 1   
    15    6   15 1   
    16    6   16 1   
    17    7    8 ar  
    18    7   17 1   
    19    8    9 ar  
    20    8   18 1   
    21    9   19 1   
@<TRIPOS>SUBSTRUCTURE
     1 ZF0         1 TEMP              0 ****  ****    0 ROOT
