@<TRIPOS>MOLECULE
ZF0
   21    21     1     0     0
SMALL
bcc


@<TRIPOS>ATOM
      1 N3          0.0690   -0.0180   -0.1320 nz        1 ZF0     -0.845600
      2 C9          1.5660    0.0190    0.0020 c3        1 ZF0      0.176100
      3 C10         1.9670    0.0130    1.4340 ca        1 ZF0     -0.197300
      4 C11         2.2120   -1.2040    2.0830 ca        1 ZF0     -0.105000
      5 C12         2.6260   -1.2180    3.4180 ca        1 ZF0     -0.054300
      6 C13         2.9060   -2.4970    4.1090 c3        1 ZF0     -0.070800
      7 C14         2.7900   -0.0010    4.0960 ca        1 ZF0     -0.078000
      8 C15         2.5500    1.2100    3.4490 ca        1 ZF0     -0.112000
      9 C16         2.1380    1.2220    2.1170 ca        1 ZF0     -0.105000
     10 HN3        -0.2020   -0.0120   -1.1180 hn        1 ZF0      0.457800
     11 H9          1.9750   -0.8820   -0.5390 hx        1 ZF0      0.112700
     12 H9A         1.9280    0.9550   -0.5160 hx        1 ZF0      0.112700
     13 H11         2.0980   -2.1550    1.5400 ha        1 ZF0      0.139000
     14 H13         4.0130   -2.6330    4.2230 hc        1 ZF0      0.064033
     15 H13A        2.4500   -2.5000    5.1310 hc        1 ZF0      0.064033
     16 H13B        2.5030   -3.3690    3.5380 hc        1 ZF0      0.064033
     17 H14         3.1190   -0.0070    5.1490 ha        1 ZF0      0.163000
     18 H15         2.6910    2.1600    3.9880 ha        1 ZF0      0.162000
     19 H16         1.9690    2.1820    1.6050 ha        1 ZF0      0.139000
     20 H2         -0.2970   -0.8640    0.3160 hn        1 ZF0      0.457800
     21 H33        -0.3400    0.7970    0.3370 hn        1 ZF0      0.457800
@<TRIPOS>BOND
     1    1    2 1   
     2    1   10 1   
     3    1   20 1   
     4    1   21 1   
     5    2    3 1   
     6    2   11 1   
     7    2   12 1   
     8    3    4 ar  
     9    3    9 ar  
    10    4    5 ar  
    11    4   13 1   
    12    5    6 1   
    13    5    7 ar  
    14    6   14 1   
    15    6   15 1   
    16    6   16 1   
    17    7    8 ar  
    18    7   17 1   
    19    8    9 ar  
    20    8   18 1   
    21    9   19 1   
@<TRIPOS>SUBSTRUCTURE
     1 ZF0         1 TEMP              0 ****  ****    0 ROOT
