@<TRIPOS>MOLECULE
ZF0
   20    20     1     0     0
SMALL
bcc


@<TRIPOS>ATOM
      1 N3          3.1730   -0.0970   -0.4570 n3        1 ZF0     -0.916800
      2 C9          2.1880   -0.5240    0.5120 c3        1 ZF0      0.203100
      3 C10         0.7960   -0.0480    0.2160 ca        1 ZF0     -0.092300
      4 C11        -0.2720   -0.9470    0.2770 ca        1 ZF0     -0.127000
      5 C12        -1.5810   -0.5120    0.0390 ca        1 ZF0     -0.080300
      6 C13        -2.7110   -1.4650    0.1240 c3        1 ZF0     -0.052800
      7 C14        -1.8110    0.8340   -0.2690 ca        1 ZF0     -0.129000
      8 C15        -0.7470    1.7300   -0.3330 ca        1 ZF0     -0.131000
      9 C16         0.5550    1.2960   -0.0890 ca        1 ZF0     -0.114000
     10 HN3         4.0140   -0.6280   -0.3510 hn        1 ZF0      0.351300
     11 H9          2.1670   -1.6500    0.6290 h1        1 ZF0      0.033200
     12 H9A         2.5020   -0.0980    1.5110 h1        1 ZF0      0.033200
     13 H11        -0.0880   -2.0050    0.5160 ha        1 ZF0      0.129000
     14 H13        -3.1140   -1.4870    1.1680 hc        1 ZF0      0.043700
     15 H13A       -3.5400   -1.1650   -0.5640 hc        1 ZF0      0.043700
     16 H13B       -2.3850   -2.5000   -0.1460 hc        1 ZF0      0.043700
     17 H14        -2.8370    1.1810   -0.4620 ha        1 ZF0      0.130000
     18 H15        -0.9340    2.7870   -0.5750 ha        1 ZF0      0.131000
     19 H16         1.3950    2.0060   -0.1370 ha        1 ZF0      0.147000
     20 H2          2.8320   -0.2000   -1.3910 hn        1 ZF0      0.351300
@<TRIPOS>BOND
     1    1    2 1   
     2    1   10 1   
     3    1   20 1   
     4    2    3 1   
     5    2   11 1   
     6    2   12 1   
     7    3    4 ar  
     8    3    9 ar  
     9    4    5 ar  
    10    4   13 1   
    11    5    6 1   
    12    5    7 ar  
    13    6   14 1   
    14    6   15 1   
    15    6   16 1   
    16    7    8 ar  
    17    7   17 1   
    18    8    9 ar  
    19    8   18 1   
    20    9   19 1   
@<TRIPOS>SUBSTRUCTURE
     1 ZF0         1 TEMP              0 ****  ****    0 ROOT
