@<TRIPOS>MOLECULE
ZFB
   42    43     1     0     0
SMALL
bcc


@<TRIPOS>ATOM
      1 N1          0.8720   -0.4170   -0.5010 n         1 ZFB     -0.528900
      2 C1         -0.0600   -0.8860    0.4180 c         1 ZFB      0.744100
      3 O1          0.1930   -1.6290    1.3920 o         1 ZFB     -0.646000
      4 O2         -1.3400   -0.5280    0.1360 os        1 ZFB     -0.401900
      5 C2         -2.3560   -1.0910    1.0170 c3        1 ZFB      0.205700
      6 C3         -3.6510   -0.5070    0.5740 ca        1 ZFB     -0.125300
      7 C4         -4.3360   -1.0610   -0.5130 ca        1 ZFB     -0.098500
      8 C5         -5.5670   -0.5360   -0.9020 ca        1 ZFB     -0.130500
      9 C6         -6.1160    0.5450   -0.2110 ca        1 ZFB     -0.101000
     10 C7         -5.4320    1.1010    0.8710 ca        1 ZFB     -0.130500
     11 C8         -4.2000    0.5810    1.2620 ca        1 ZFB     -0.098500
     12 C9          2.2560   -0.3280   -0.1080 c3        1 ZFB      0.045700
     13 C10         2.9520   -1.6720   -0.3820 c         1 ZFB      0.559100
     14 O3          3.4290   -2.0320   -1.4470 o         1 ZFB     -0.441100
     15 C11         2.9850   -2.5580    0.8740 c3        1 ZFB      0.068100
     16 N2          3.3920   -3.9170    0.6370 n1        1 ZFB     -0.062500
     17 N3          3.6890   -4.9630    0.4200 n1        1 ZFB      0.365000
     18 C12         3.0380    0.7650   -0.8650 c3        1 ZFB     -0.039100
     19 C13         2.4100    2.1000   -0.6840 ca        1 ZFB     -0.128300
     20 C14         2.6870    2.8610    0.4570 ca        1 ZFB     -0.123000
     21 C15         2.1110    4.1200    0.6150 ca        1 ZFB     -0.117000
     22 C16         1.2570    4.6270   -0.3650 ca        1 ZFB     -0.104000
     23 C17         0.9820    3.8740   -1.5060 ca        1 ZFB     -0.117000
     24 C18         1.5570    2.6140   -1.6680 ca        1 ZFB     -0.123000
     25 HN1         0.5560    0.2510   -1.1770 hn        1 ZFB      0.357500
     26 H21        -2.3300   -2.2060    0.9000 h1        1 ZFB      0.066700
     27 H22        -2.0970   -0.8120    2.0720 h1        1 ZFB      0.066700
     28 H4         -3.9020   -1.9120   -1.0590 ha        1 ZFB      0.134000
     29 H5         -6.1050   -0.9750   -1.7560 ha        1 ZFB      0.144000
     30 H6         -7.0890    0.9570   -0.5180 ha        1 ZFB      0.145000
     31 H7         -5.8660    1.9530    1.4170 ha        1 ZFB      0.144000
     32 H8         -3.6620    1.0220    2.1140 ha        1 ZFB      0.134000
     33 H9          2.3290   -0.1210    1.0050 h1        1 ZFB      0.082700
     34 H111        3.7070   -2.1210    1.6310 h1        1 ZFB      0.191700
     35 H112        1.9300   -2.5970    1.3300 h1        1 ZFB      0.191700
     36 H121        4.0860    0.7720   -0.4630 hc        1 ZFB      0.080200
     37 H122        3.0940    0.4980   -1.9550 hc        1 ZFB      0.080200
     38 H14         3.3690    2.4710    1.2270 ha        1 ZFB      0.131500
     39 H15         2.3350    4.7180    1.5130 ha        1 ZFB      0.148000
     40 H16         0.8050    5.6240   -0.2410 ha        1 ZFB      0.150000
     41 H17         0.3150    4.2760   -2.2850 ha        1 ZFB      0.148000
     42 H18         1.3530    2.0340   -2.5810 ha        1 ZFB      0.131500
@<TRIPOS>BOND
     1    1    2 1   
     2    1   12 1   
     3    1   25 1   
     4    2    3 2   
     5    2    4 1   
     6    4    5 1   
     7    5    6 1   
     8    5   26 1   
     9    5   27 1   
    10    6    7 ar  
    11    6   11 ar  
    12    7    8 ar  
    13    7   28 1   
    14    8    9 ar  
    15    8   29 1   
    16    9   10 ar  
    17    9   30 1   
    18   10   11 ar  
    19   10   31 1   
    20   11   32 1   
    21   12   13 1   
    22   12   18 1   
    23   12   33 1   
    24   13   14 2   
    25   13   15 1   
    26   15   16 1   
    27   15   34 1   
    28   15   35 1   
    29   16   17 3   
    30   18   19 1   
    31   18   36 1   
    32   18   37 1   
    33   19   20 ar  
    34   19   24 ar  
    35   20   21 ar  
    36   20   38 1   
    37   21   22 ar  
    38   21   39 1   
    39   22   23 ar  
    40   22   40 1   
    41   23   24 ar  
    42   23   41 1   
    43   24   42 1   
@<TRIPOS>SUBSTRUCTURE
     1 ZFB         1 TEMP              0 ****  ****    0 ROOT
