@<TRIPOS>MOLECULE
ZG1
   58    62     1     0     0
SMALL
bcc


@<TRIPOS>ATOM
      1 C1         -0.7280    0.0790    0.2290 c3        1 ZG1     -0.120100
      2 C2          0.7110   -0.2990   -0.0760 c3        1 ZG1      0.059300
      3 N3          1.6320   -0.1380    1.0390 na        1 ZG1      0.002200
      4 N4          2.0820    1.0600    1.4690 nc        1 ZG1     -0.508100
      5 C5          2.7420    0.8870    2.6300 cd        1 ZG1      0.366800
      6 C6          2.6950   -0.5050    3.0280 ca        1 ZG1     -0.407200
      7 C7          3.1970   -1.2730    4.1120 ca        1 ZG1      0.320600
      8 N8          3.9020   -0.6370    5.1180 nu        1 ZG1     -0.728600
      9 C9          5.1010   -1.1970    5.7170 c3        1 ZG1      0.214500
     10 C10         5.1580   -0.8980    7.2250 c3        1 ZG1     -0.131400
     11 C11         6.4270   -1.4810    7.8190 c3        1 ZG1      0.127900
     12 O12         7.5970   -1.0010    7.1660 os        1 ZG1     -0.413600
     13 C13         7.6010   -1.2780    5.7720 c3        1 ZG1      0.127900
     14 C14         6.3970   -0.6740    5.0710 c3        1 ZG1     -0.131400
     15 C15         2.8500   -2.6470    4.0880 ca        1 ZG1     -0.377800
     16 C16         2.1160   -3.1770    2.9790 ca        1 ZG1      0.505200
     17 N17         1.6550   -2.4920    1.9370 nb        1 ZG1     -0.693000
     18 C18         1.9350   -1.1500    1.9770 ca        1 ZG1      0.466800
     19 C19         3.1360   -3.5750    5.1540 cc        1 ZG1      0.587900
     20 O20         2.9210   -3.1560    6.5090 os        1 ZG1     -0.132100
     21 N21         3.1600   -4.1710    7.3030 nc        1 ZG1     -0.369300
     22 C22         3.5120   -5.2240    6.5200 cd        1 ZG1      0.539300
     23 C23         3.8440   -6.5970    6.9870 c3        1 ZG1     -0.167700
     24 N24         3.5100   -4.8570    5.1450 nd        1 ZG1     -0.682000
     25 N25         2.9370   -8.9000    6.8160 n         1 ZG1     -0.473800
     26 C26         2.6780   -7.5430    6.7400 c         1 ZG1      0.666100
     27 C27         1.8650   -9.8800    6.7570 c3        1 ZG1      0.089500
     28 C28         4.1410   -9.4580    7.3970 c3        1 ZG1      0.089500
     29 O29         1.5380   -7.1340    6.4500 o         1 ZG1     -0.586100
     30 C30         2.3890  -11.1790    7.3890 c3        1 ZG1     -0.090400
     31 C31         3.8460  -10.9220    7.7650 c3        1 ZG1     -0.090400
     32 H1         -0.8100    1.1520    0.5250 hc        1 ZG1      0.051700
     33 H1A        -1.1470   -0.5510    1.0500 hc        1 ZG1      0.051700
     34 H1B        -1.3380   -0.0860   -0.6930 hc        1 ZG1      0.051700
     35 H2          0.7620   -1.3810   -0.3870 h1        1 ZG1      0.074700
     36 H2A         1.0900    0.3370   -0.9270 h1        1 ZG1      0.074700
     37 H5          3.2200    1.7180    3.1510 h4        1 ZG1      0.051800
     38 HN8         3.9450    0.3570    5.0190 hn        1 ZG1      0.414800
     39 H9          5.0810   -2.3200    5.5850 h1        1 ZG1      0.068700
     40 H10         5.1370    0.2090    7.3970 hc        1 ZG1      0.063450
     41 H10A        4.2670   -1.3510    7.7350 hc        1 ZG1      0.063450
     42 H11         6.4060   -2.6030    7.7700 h1        1 ZG1      0.051700
     43 H11A        6.5560   -1.1520    8.8840 h1        1 ZG1      0.051700
     44 H13         7.6330   -2.3890    5.6090 h1        1 ZG1      0.051700
     45 H13A        8.5540   -0.8130    5.4030 h1        1 ZG1      0.051700
     46 H14         6.4290   -0.9450    3.9850 hc        1 ZG1      0.063450
     47 H14A        6.4420    0.4430    5.1540 hc        1 ZG1      0.063450
     48 H16         1.8840   -4.2620    2.9640 h4        1 ZG1      0.049100
     49 H23         4.7600   -6.9580    6.4440 hc        1 ZG1      0.089200
     50 H23A        4.0660   -6.5880    8.0890 hc        1 ZG1      0.089200
     51 H27         1.5810  -10.0400    5.6810 h1        1 ZG1      0.049700
     52 H27A        0.9560   -9.4960    7.2980 h1        1 ZG1      0.049700
     53 H28         4.4540   -8.8770    8.3090 h1        1 ZG1      0.049700
     54 H28A        4.9770   -9.3970    6.6460 h1        1 ZG1      0.049700
     55 H30         1.7850  -11.4420    8.2910 hc        1 ZG1      0.053700
     56 H30A        2.3060  -12.0230    6.6620 hc        1 ZG1      0.053700
     57 H31         4.0140  -11.0880    8.8570 hc        1 ZG1      0.053700
     58 H31A        4.5300  -11.6050    7.2040 hc        1 ZG1      0.053700
@<TRIPOS>BOND
     1    1    2 1   
     2    1   32 1   
     3    1   33 1   
     4    1   34 1   
     5    2    3 1   
     6    2   35 1   
     7    2   36 1   
     8    3    4 1   
     9    3   18 1   
    10    4    5 2   
    11    5    6 1   
    12    5   37 1   
    13    6    7 ar  
    14    6   18 ar  
    15    7    8 1   
    16    7   15 ar  
    17    8    9 1   
    18    8   38 1   
    19    9   10 1   
    20    9   14 1   
    21    9   39 1   
    22   10   11 1   
    23   10   40 1   
    24   10   41 1   
    25   11   12 1   
    26   11   42 1   
    27   11   43 1   
    28   12   13 1   
    29   13   14 1   
    30   13   44 1   
    31   13   45 1   
    32   14   46 1   
    33   14   47 1   
    34   15   16 ar  
    35   15   19 1   
    36   16   17 ar  
    37   16   48 1   
    38   17   18 ar  
    39   19   20 1   
    40   19   24 2   
    41   20   21 1   
    42   21   22 2   
    43   22   23 1   
    44   22   24 1   
    45   23   26 1   
    46   23   49 1   
    47   23   50 1   
    48   25   26 1   
    49   25   27 1   
    50   25   28 1   
    51   26   29 2   
    52   27   30 1   
    53   27   51 1   
    54   27   52 1   
    55   28   31 1   
    56   28   53 1   
    57   28   54 1   
    58   30   31 1   
    59   30   55 1   
    60   30   56 1   
    61   31   57 1   
    62   31   58 1   
@<TRIPOS>SUBSTRUCTURE
     1 ZG1         1 TEMP              0 ****  ****    0 ROOT
