@<TRIPOS>MOLECULE
ZG1
   58    62     1     0     0
SMALL
bcc


@<TRIPOS>ATOM
      1 C1          5.1290    5.1420    0.9590 c3        1 ZG1     -0.120100
      2 C2          4.9890    4.3910   -0.3540 c3        1 ZG1      0.059300
      3 N3          4.7200    2.9690   -0.2150 na        1 ZG1      0.002200
      4 N4          5.6520    2.0640    0.1540 nc        1 ZG1     -0.508100
      5 C5          5.0470    0.8840    0.3900 cd        1 ZG1      0.366800
      6 C6          3.6140    1.0140    0.2100 ca        1 ZG1     -0.407200
      7 C7          2.4920    0.1480    0.3050 ca        1 ZG1      0.320600
      8 N8          2.6880   -1.1680    0.6810 nh        1 ZG1     -0.728600
      9 C9          1.9930   -2.2790    0.0550 c3        1 ZG1      0.214500
     10 C10         1.6400   -3.3640    1.0870 c3        1 ZG1     -0.131400
     11 C11         0.9300   -4.5170    0.4000 c3        1 ZG1      0.127900
     12 O12         1.7000   -5.0660   -0.6630 os        1 ZG1     -0.413600
     13 C13         2.0300   -4.1040   -1.6570 c3        1 ZG1      0.127900
     14 C14         2.8060   -2.9350   -1.0780 c3        1 ZG1     -0.131400
     15 C15         1.2380    0.7630    0.0670 ca        1 ZG1     -0.377800
     16 C16         1.1790    2.1400   -0.3200 ca        1 ZG1      0.505200
     17 N17         2.2110    2.9690   -0.4440 nb        1 ZG1     -0.693000
     18 C18         3.4270    2.4020   -0.1600 ca        1 ZG1      0.466800
     19 C19        -0.0340    0.1050    0.2450 cc        1 ZG1      0.587900
     20 O20        -0.2300   -0.7150    1.4060 os        1 ZG1     -0.132100
     21 N21        -1.4690   -1.1410    1.4120 nc        1 ZG1     -0.369300
     22 C22        -2.0800   -0.6280    0.3120 cd        1 ZG1      0.539300
     23 C23        -3.5030   -0.8210   -0.0770 c3        1 ZG1     -0.167700
     24 N24        -1.1740    0.1630   -0.4490 nd        1 ZG1     -0.682000
     25 N25        -5.5690    0.5270   -0.3390 n         1 ZG1     -0.473800
     26 C26        -4.3200    0.4200    0.2470 c         1 ZG1      0.666100
     27 C27        -6.4910    1.5880    0.0300 c3        1 ZG1      0.089500
     28 C28        -6.2530   -0.5770   -0.9800 c3        1 ZG1      0.089500
     29 O29        -3.8890    1.3280    0.9820 o         1 ZG1     -0.586100
     30 C30        -7.9050    1.1310   -0.3610 c3        1 ZG1     -0.090400
     31 C31        -7.7510   -0.2300   -1.0340 c3        1 ZG1     -0.090400
     32 H1          4.1940    5.0770    1.5650 hc        1 ZG1      0.051700
     33 H1A         5.9760    4.7400    1.5670 hc        1 ZG1      0.051700
     34 H1B         5.3320    6.2170    0.7300 hc        1 ZG1      0.051700
     35 H2          4.1390    4.8270   -0.9520 h1        1 ZG1      0.074700
     36 H2A         5.9410    4.5020   -0.9490 h1        1 ZG1      0.074700
     37 H5          5.6090   -0.0060    0.6750 h4        1 ZG1      0.051800
     38 HN8         3.6340   -1.3870    0.9210 hn        1 ZG1      0.414800
     39 H9          1.0290   -1.8970   -0.3940 h1        1 ZG1      0.068700
     40 H10         2.5710   -3.7390    1.5830 hc        1 ZG1      0.063450
     41 H10A        0.9690   -2.9320    1.8750 hc        1 ZG1      0.063450
     42 H11         0.7920   -5.3780    1.1080 h1        1 ZG1      0.051700
     43 H11A       -0.0680   -4.1870    0.0070 h1        1 ZG1      0.051700
     44 H13         2.6560   -4.6750   -2.3930 h1        1 ZG1      0.051700
     45 H13A        1.0910   -3.7420   -2.1570 h1        1 ZG1      0.051700
     46 H14         3.0140   -2.1920   -1.8890 hc        1 ZG1      0.063450
     47 H14A        3.7870   -3.3030   -0.6800 hc        1 ZG1      0.063450
     48 H16         0.1890    2.5910   -0.5340 h4        1 ZG1      0.049100
     49 H23        -3.5560   -1.0460   -1.1770 hc        1 ZG1      0.089200
     50 H23A       -3.9420   -1.6920    0.4830 hc        1 ZG1      0.089200
     51 H27        -6.4160    1.8030    1.1320 h1        1 ZG1      0.049700
     52 H27A       -6.2020    2.5250   -0.5210 h1        1 ZG1      0.049700
     53 H28        -5.8400   -0.7170   -2.0180 h1        1 ZG1      0.049700
     54 H28A       -6.0890   -1.5360   -0.4130 h1        1 ZG1      0.049700
     55 H30        -8.5520    1.0560    0.5470 hc        1 ZG1      0.053700
     56 H30A       -8.3720    1.8710   -1.0550 hc        1 ZG1      0.053700
     57 H31        -8.0990   -0.1930   -2.0940 hc        1 ZG1      0.053700
     58 H31A       -8.3480   -1.0100   -0.5020 hc        1 ZG1      0.053700
@<TRIPOS>BOND
     1    1    2 1   
     2    1   32 1   
     3    1   33 1   
     4    1   34 1   
     5    2    3 1   
     6    2   35 1   
     7    2   36 1   
     8    3    4 1   
     9    3   18 1   
    10    4    5 2   
    11    5    6 1   
    12    5   37 1   
    13    6    7 ar  
    14    6   18 ar  
    15    7    8 1   
    16    7   15 ar  
    17    8    9 1   
    18    8   38 1   
    19    9   10 1   
    20    9   14 1   
    21    9   39 1   
    22   10   11 1   
    23   10   40 1   
    24   10   41 1   
    25   11   12 1   
    26   11   42 1   
    27   11   43 1   
    28   12   13 1   
    29   13   14 1   
    30   13   44 1   
    31   13   45 1   
    32   14   46 1   
    33   14   47 1   
    34   15   16 ar  
    35   15   19 1   
    36   16   17 ar  
    37   16   48 1   
    38   17   18 ar  
    39   19   20 1   
    40   19   24 2   
    41   20   21 1   
    42   21   22 2   
    43   22   23 1   
    44   22   24 1   
    45   23   26 1   
    46   23   49 1   
    47   23   50 1   
    48   25   26 1   
    49   25   27 1   
    50   25   28 1   
    51   26   29 2   
    52   27   30 1   
    53   27   51 1   
    54   27   52 1   
    55   28   31 1   
    56   28   53 1   
    57   28   54 1   
    58   30   31 1   
    59   30   55 1   
    60   30   56 1   
    61   31   57 1   
    62   31   58 1   
@<TRIPOS>SUBSTRUCTURE
     1 ZG1         1 TEMP              0 ****  ****    0 ROOT
