@<TRIPOS>MOLECULE
ZG2
   72    77     1     0     0
SMALL
bcc


@<TRIPOS>ATOM
      1 C1          5.5290    2.5850    3.6390 c3        1 ZG2     -0.120100
      2 C2          5.6240    2.6420    2.1240 c3        1 ZG2      0.060300
      3 N3          5.1890    1.4340    1.4410 na        1 ZG2      0.000200
      4 N4          5.9130    0.2950    1.4050 nc        1 ZG2     -0.507100
      5 C5          5.1520   -0.6920    0.8950 cd        1 ZG2      0.363800
      6 C6          3.8180   -0.2000    0.6140 ca        1 ZG2     -0.399200
      7 C7          2.6210   -0.7440    0.0800 ca        1 ZG2      0.303600
      8 N8          2.5730   -2.0840   -0.2800 nh        1 ZG2     -0.717600
      9 C9          2.0210   -2.5010   -1.5580 c3        1 ZG2      0.209500
     10 C10         1.3500   -3.8810   -1.4450 c3        1 ZG2     -0.130900
     11 C11         0.7840   -4.2870   -2.7940 c3        1 ZG2      0.127900
     12 O12         1.7800   -4.3020   -3.8110 os        1 ZG2     -0.413600
     13 C13         2.4220   -3.0430   -3.9690 c3        1 ZG2      0.127900
     14 C14         3.0750   -2.5740   -2.6800 c3        1 ZG2     -0.130900
     15 C18         1.5240    0.1490    0.0350 ca        1 ZG2     -0.348800
     16 C19         1.6950    1.5110    0.4270 ca        1 ZG2      0.488200
     17 N20         2.8100    2.0630    0.9020 nb        1 ZG2     -0.690000
     18 C21         3.8630    1.1940    1.0100 ca        1 ZG2      0.458800
     19 C22         0.1810   -0.2590   -0.3220 cc        1 ZG2      0.563900
     20 N23        -0.5810   -1.2760    0.0860 nd        1 ZG2     -0.655000
     21 C24        -1.8340   -1.1000   -0.5380 cd        1 ZG2      0.213300
     22 C25        -2.9540   -2.0540   -0.3900 c3        1 ZG2     -0.164700
     23 C26        -4.1700   -1.3960    0.2480 c         1 ZG2      0.665100
     24 N27        -4.3330   -1.4560    1.6140 n         1 ZG2     -0.460800
     25 C28        -3.2950   -1.8530    2.5450 c3        1 ZG2      0.086500
     26 C29        -1.7940    0.0570   -1.3190 cc        1 ZG2      0.197700
     27 O30        -0.5160    0.6060   -1.2000 os        1 ZG2     -0.380800
     28 C31        -2.7680    0.7380   -2.1870 c3        1 ZG2     -0.073400
     29 C32        -3.1370    2.0990   -1.7030 ca        1 ZG2     -0.088300
     30 C33        -2.2560    3.1740   -1.8730 ca        1 ZG2     -0.117000
     31 C34        -2.6200    4.4510   -1.4520 ca        1 ZG2     -0.135000
     32 C35        -3.8650    4.6630   -0.8590 ca        1 ZG2     -0.127000
     33 C36        -4.3820    2.3140   -1.1010 ca        1 ZG2     -0.117000
     34 C37        -4.7430    3.5940   -0.6830 ca        1 ZG2     -0.135000
     35 C38        -5.4070   -0.7370    2.2810 c3        1 ZG2      0.086500
     36 C39        -5.0220   -0.5990    3.7620 c3        1 ZG2     -0.090900
     37 C40        -3.6880   -1.3180    3.9330 c3        1 ZG2     -0.090900
     38 O41        -5.0480   -0.8670   -0.4690 o         1 ZG2     -0.631100
     39 H1          6.1660    1.7680    4.0540 hc        1 ZG2      0.050700
     40 H1A         5.8850    3.5610    4.0510 hc        1 ZG2      0.050700
     41 H1B         4.4760    2.4200    3.9730 hc        1 ZG2      0.050700
     42 H2          4.9840    3.4840    1.7350 h1        1 ZG2      0.074200
     43 H2A         6.6940    2.8360    1.8270 h1        1 ZG2      0.074200
     44 H5          5.5400   -1.7000    0.7420 h4        1 ZG2      0.051800
     45 HN8         3.4050   -2.5880   -0.0420 hn        1 ZG2      0.405800
     46 H9          1.2390   -1.7510   -1.8770 h1        1 ZG2      0.073700
     47 H10         2.0990   -4.6430   -1.1090 hc        1 ZG2      0.061450
     48 H10A        0.5230   -3.8450   -0.6900 hc        1 ZG2      0.061450
     49 H11         0.4090   -5.3450   -2.7680 h1        1 ZG2      0.051200
     50 H11A       -0.0490   -3.5970   -3.0970 h1        1 ZG2      0.051200
     51 H13         3.1930   -3.2280   -4.7640 h1        1 ZG2      0.051200
     52 H13A        1.6780   -2.2840   -4.3300 h1        1 ZG2      0.051200
     53 H14         3.5370   -1.5680   -2.8470 hc        1 ZG2      0.061450
     54 H14A        3.8890   -3.2900   -2.3950 hc        1 ZG2      0.061450
     55 H19         0.8270    2.1960    0.3410 h4        1 ZG2      0.039100
     56 H25        -3.2710   -2.4010   -1.4130 hc        1 ZG2      0.083700
     57 H25A       -2.6370   -2.9570    0.1980 hc        1 ZG2      0.083700
     58 H28        -3.2250   -2.9760    2.5610 h1        1 ZG2      0.054950
     59 H28A       -2.2950   -1.4470    2.2300 h1        1 ZG2      0.054950
     60 H31        -2.3370    0.8170   -3.2240 hc        1 ZG2      0.083700
     61 H31A       -3.6890    0.0870   -2.2350 hc        1 ZG2      0.083700
     62 H33        -1.2710    2.9990   -2.3310 ha        1 ZG2      0.147500
     63 H34        -1.9250    5.2920   -1.5890 ha        1 ZG2      0.131000
     64 H35        -4.1530    5.6730   -0.5300 ha        1 ZG2      0.129000
     65 H36        -5.0720    1.4640   -0.9540 ha        1 ZG2      0.147500
     66 H37        -5.7240    3.7590   -0.2130 ha        1 ZG2      0.131000
     67 H38        -5.5580    0.2680    1.7980 h1        1 ZG2      0.054950
     68 H38A       -6.3610   -1.3210    2.1640 h1        1 ZG2      0.054950
     69 H39        -4.9330    0.4800    4.0390 hc        1 ZG2      0.053200
     70 H39A       -5.8100   -1.0550    4.4090 hc        1 ZG2      0.053200
     71 H40        -3.7780   -2.1620    4.6600 hc        1 ZG2      0.053200
     72 H40A       -2.9020   -0.6200    4.3130 hc        1 ZG2      0.053200
@<TRIPOS>BOND
     1    1    2 1   
     2    1   39 1   
     3    1   40 1   
     4    1   41 1   
     5    2    3 1   
     6    2   42 1   
     7    2   43 1   
     8    3    4 1   
     9    3   18 1   
    10    4    5 2   
    11    5    6 1   
    12    5   44 1   
    13    6    7 ar  
    14    6   18 ar  
    15    7    8 1   
    16    7   15 ar  
    17    8    9 1   
    18    8   45 1   
    19    9   10 1   
    20    9   14 1   
    21    9   46 1   
    22   10   11 1   
    23   10   47 1   
    24   10   48 1   
    25   11   12 1   
    26   11   49 1   
    27   11   50 1   
    28   12   13 1   
    29   13   14 1   
    30   13   51 1   
    31   13   52 1   
    32   14   53 1   
    33   14   54 1   
    34   15   16 ar  
    35   15   19 1   
    36   16   17 ar  
    37   16   55 1   
    38   17   18 ar  
    39   19   20 2   
    40   19   27 1   
    41   20   21 1   
    42   21   22 1   
    43   21   26 2   
    44   22   23 1   
    45   22   56 1   
    46   22   57 1   
    47   23   24 1   
    48   23   38 2   
    49   24   25 1   
    50   24   35 1   
    51   25   37 1   
    52   25   58 1   
    53   25   59 1   
    54   26   27 1   
    55   26   28 1   
    56   28   29 1   
    57   28   60 1   
    58   28   61 1   
    59   29   30 ar  
    60   29   33 ar  
    61   30   31 ar  
    62   30   62 1   
    63   31   32 ar  
    64   31   63 1   
    65   32   34 ar  
    66   32   64 1   
    67   33   34 ar  
    68   33   65 1   
    69   34   66 1   
    70   35   36 1   
    71   35   67 1   
    72   35   68 1   
    73   36   37 1   
    74   36   69 1   
    75   36   70 1   
    76   37   71 1   
    77   37   72 1   
@<TRIPOS>SUBSTRUCTURE
     1 ZG2         1 TEMP              0 ****  ****    0 ROOT
