@<TRIPOS>MOLECULE
ZG2
   72    77     1     0     0
SMALL
bcc


@<TRIPOS>ATOM
      1 C1         -1.2830    0.5060    2.4120 c3        1 ZG2     -0.120100
      2 C2         -0.1150   -0.0920    1.6460 c3        1 ZG2      0.060300
      3 N3          1.1660   -0.0160    2.3300 na        1 ZG2      0.000200
      4 N4          1.8810    1.1230    2.4510 nc        1 ZG2     -0.507100
      5 C5          2.8920    0.9150    3.3140 cd        1 ZG2      0.363800
      6 C6          2.8290   -0.4330    3.8450 ca        1 ZG2     -0.399200
      7 C7          3.5940   -1.2090    4.7520 ca        1 ZG2      0.303600
      8 N8          4.6960   -0.6460    5.3830 nu        1 ZG2     -0.717600
      9 C9          5.9700   -1.3450    5.4400 c3        1 ZG2      0.209500
     10 C10         6.7260   -1.0080    6.7370 c3        1 ZG2     -0.130900
     11 C11         8.0490   -1.7520    6.7660 c3        1 ZG2      0.127900
     12 O12         8.8550   -1.4580    5.6310 os        1 ZG2     -0.413600
     13 C13         8.2080   -1.7660    4.4020 c3        1 ZG2      0.127900
     14 C14         6.8940   -1.0210    4.2500 c3        1 ZG2     -0.130900
     15 C18         3.0980   -2.5120    4.9940 ca        1 ZG2     -0.348800
     16 C19         1.9560   -2.9850    4.2790 ca        1 ZG2      0.488200
     17 N20         1.2330   -2.2970    3.3990 nb        1 ZG2     -0.690000
     18 C21         1.6660   -1.0120    3.2010 ca        1 ZG2      0.458800
     19 C22         3.6420   -3.3950    6.0050 cc        1 ZG2      0.563900
     20 N23         3.9450   -3.2010    7.2910 nd        1 ZG2     -0.655000
     21 C24         4.3430   -4.4580    7.7910 cd        1 ZG2      0.213300
     22 C25         4.8170   -4.6650    9.1770 c3        1 ZG2     -0.164700
     23 C26         3.9210   -5.6340    9.9370 c         1 ZG2      0.665100
     24 N27         2.8760   -5.1430   10.6870 n         1 ZG2     -0.460800
     25 C28         2.3700   -3.7870   10.5960 c3        1 ZG2      0.086500
     26 C29         4.2580   -5.4030    6.7680 cc        1 ZG2      0.197700
     27 O30         3.8170   -4.7450    5.6180 os        1 ZG2     -0.380800
     28 C31         4.5410   -6.8450    6.6810 c3        1 ZG2     -0.073400
     29 C32         3.3310   -7.6660    6.3850 ca        1 ZG2     -0.088300
     30 C33         2.7340   -8.4230    7.3990 ca        1 ZG2     -0.117000
     31 C34         1.6260   -9.2190    7.1140 ca        1 ZG2     -0.135000
     32 C35         1.1070   -9.2630    5.8200 ca        1 ZG2     -0.127000
     33 C36         2.8040   -7.7070    5.0890 ca        1 ZG2     -0.117000
     34 C37         1.6950   -8.5030    4.8090 ca        1 ZG2     -0.135000
     35 C38         1.9190   -6.0320   11.3260 c3        1 ZG2      0.086500
     36 C39         0.6570   -5.2110   11.6320 c3        1 ZG2     -0.090900
     37 C40         0.9470   -3.7830   11.1810 c3        1 ZG2     -0.090900
     38 O41         4.1760   -6.8590    9.9350 o         1 ZG2     -0.631100
     39 H1         -2.2060    0.3890    1.7950 hc        1 ZG2      0.050700
     40 H1A        -1.1210    1.5930    2.6110 hc        1 ZG2      0.050700
     41 H1B        -1.4380   -0.0150    3.3870 hc        1 ZG2      0.050700
     42 H2         -0.0070    0.4410    0.6580 h1        1 ZG2      0.074200
     43 H2A        -0.3120   -1.1840    1.4460 h1        1 ZG2      0.074200
     44 H5          3.6230    1.6910    3.5450 h4        1 ZG2      0.051800
     45 HN8         4.8060    0.3300    5.1910 hn        1 ZG2      0.405800
     46 H9          5.7730   -2.4580    5.4220 h1        1 ZG2      0.073700
     47 H10         6.1120   -1.3020    7.6270 hc        1 ZG2      0.061450
     48 H10A        6.9150    0.0950    6.7920 hc        1 ZG2      0.061450
     49 H11         8.6750   -1.4190    7.6360 h1        1 ZG2      0.051200
     50 H11A        7.8770   -2.8600    6.8250 h1        1 ZG2      0.051200
     51 H13         8.9440   -1.4450    3.6180 h1        1 ZG2      0.051200
     52 H13A        8.0400   -2.8750    4.3340 h1        1 ZG2      0.051200
     53 H14         6.4100   -1.3210    3.2870 hc        1 ZG2      0.061450
     54 H14A        7.0960    0.0810    4.2120 hc        1 ZG2      0.061450
     55 H19         1.6150   -4.0250    4.4610 h4        1 ZG2      0.039100
     56 H25         5.8430   -5.1280    9.1430 hc        1 ZG2      0.083700
     57 H25A        4.8980   -3.6870    9.7230 hc        1 ZG2      0.083700
     58 H28         3.0410   -3.1040   11.1870 h1        1 ZG2      0.054950
     59 H28A        2.3640   -3.4310    9.5300 h1        1 ZG2      0.054950
     60 H31         5.3110   -7.0160    5.8780 hc        1 ZG2      0.083700
     61 H31A        4.9830   -7.1610    7.6710 hc        1 ZG2      0.083700
     62 H33         3.1400   -8.3800    8.4250 ha        1 ZG2      0.147500
     63 H34         1.1620   -9.8160    7.9130 ha        1 ZG2      0.131000
     64 H35         0.2340   -9.8930    5.5970 ha        1 ZG2      0.129000
     65 H36         3.2650   -7.0980    4.2970 ha        1 ZG2      0.147500
     66 H37         1.2860   -8.5330    3.7880 ha        1 ZG2      0.131000
     67 H38         2.3760   -6.4380   12.2700 h1        1 ZG2      0.054950
     68 H38A        1.6910   -6.9040   10.6520 h1        1 ZG2      0.054950
     69 H39         0.4280   -5.2480   12.7250 hc        1 ZG2      0.053200
     70 H39A       -0.2210   -5.6330   11.0830 hc        1 ZG2      0.053200
     71 H40         0.8860   -3.0710   12.0400 hc        1 ZG2      0.053200
     72 H40A        0.2140   -3.4510   10.4060 hc        1 ZG2      0.053200
@<TRIPOS>BOND
     1    1    2 1   
     2    1   39 1   
     3    1   40 1   
     4    1   41 1   
     5    2    3 1   
     6    2   42 1   
     7    2   43 1   
     8    3    4 1   
     9    3   18 1   
    10    4    5 2   
    11    5    6 1   
    12    5   44 1   
    13    6    7 ar  
    14    6   18 ar  
    15    7    8 1   
    16    7   15 ar  
    17    8    9 1   
    18    8   45 1   
    19    9   10 1   
    20    9   14 1   
    21    9   46 1   
    22   10   11 1   
    23   10   47 1   
    24   10   48 1   
    25   11   12 1   
    26   11   49 1   
    27   11   50 1   
    28   12   13 1   
    29   13   14 1   
    30   13   51 1   
    31   13   52 1   
    32   14   53 1   
    33   14   54 1   
    34   15   16 ar  
    35   15   19 1   
    36   16   17 ar  
    37   16   55 1   
    38   17   18 ar  
    39   19   20 2   
    40   19   27 1   
    41   20   21 1   
    42   21   22 1   
    43   21   26 2   
    44   22   23 1   
    45   22   56 1   
    46   22   57 1   
    47   23   24 1   
    48   23   38 2   
    49   24   25 1   
    50   24   35 1   
    51   25   37 1   
    52   25   58 1   
    53   25   59 1   
    54   26   27 1   
    55   26   28 1   
    56   28   29 1   
    57   28   60 1   
    58   28   61 1   
    59   29   30 ar  
    60   29   33 ar  
    61   30   31 ar  
    62   30   62 1   
    63   31   32 ar  
    64   31   63 1   
    65   32   34 ar  
    66   32   64 1   
    67   33   34 ar  
    68   33   65 1   
    69   34   66 1   
    70   35   36 1   
    71   35   67 1   
    72   35   68 1   
    73   36   37 1   
    74   36   69 1   
    75   36   70 1   
    76   37   71 1   
    77   37   72 1   
@<TRIPOS>SUBSTRUCTURE
     1 ZG2         1 TEMP              0 ****  ****    0 ROOT
