@<TRIPOS>MOLECULE
ZGB
   27    27     1     0     0
SMALL
bcc


@<TRIPOS>ATOM
      1 C1         -0.0610    0.0760   -0.1660 c3        1 ZGB     -0.032800
      2 O1          1.5330    0.0970   -2.4030 os        1 ZGB     -0.338900
      3 C2          1.4130    0.0220   -0.0430 ca        1 ZGB     -0.106300
      4 O2          6.4430   -0.3120    4.2400 o         1 ZGB     -0.849300
      5 C3          2.0350   -0.0340    1.2050 ca        1 ZGB     -0.114000
      6 O3          5.7450   -2.3080    4.9580 o         1 ZGB     -0.849300
      7 C4          2.2220    0.0280   -1.1980 ca        1 ZGB      0.086100
      8 C5          2.3270   -0.0150   -3.5750 c3        1 ZGB      0.119700
      9 C6          3.6160   -0.0230   -1.0960 ca        1 ZGB     -0.198000
     10 C7          4.2090   -0.0790    0.1630 ca        1 ZGB     -0.105000
     11 C8          3.4290   -0.0840    1.3260 ca        1 ZGB     -0.063300
     12 C9          4.0800   -0.1330    2.6630 c3        1 ZGB     -0.037100
     13 C10         4.7630   -1.4550    2.9370 c3        1 ZGB     -0.192400
     14 C11         5.7190   -1.3450    4.1400 c         1 ZGB      0.907600
     15 H1         -0.3700    1.0430   -0.6380 hc        1 ZGB      0.036033
     16 H1A        -0.5550   -0.0110    0.8310 hc        1 ZGB      0.036033
     17 H1B        -0.4230   -0.7540   -0.8220 hc        1 ZGB      0.036033
     18 H3          1.4140   -0.0430    2.1150 ha        1 ZGB      0.132000
     19 H5          1.5770    0.0020   -4.4060 h1        1 ZGB      0.034033
     20 H5A         2.8990   -0.9750   -3.5810 h1        1 ZGB      0.034033
     21 H5B         3.0260    0.8530   -3.6620 h1        1 ZGB      0.034033
     22 H6          4.2500   -0.0200   -1.9930 ha        1 ZGB      0.122000
     23 H7          5.3060   -0.1230    0.2540 ha        1 ZGB      0.145000
     24 H9          4.8580    0.6790    2.7320 hc        1 ZGB      0.058700
     25 H9A         3.3240    0.0650    3.4670 hc        1 ZGB      0.058700
     26 H10         5.3700   -1.7650    2.0480 hc        1 ZGB      0.024200
     27 H10A        4.0070   -2.2540    3.1340 hc        1 ZGB      0.024200
@<TRIPOS>BOND
     1    1    3 1   
     2    1   15 1   
     3    1   16 1   
     4    1   17 1   
     5    2    7 1   
     6    2    8 1   
     7    3    5 ar  
     8    3    7 ar  
     9    4   14 1   
    10    5   11 ar  
    11    5   18 1   
    12    6   14 1   
    13    7    9 ar  
    14    8   19 1   
    15    8   20 1   
    16    8   21 1   
    17    9   10 ar  
    18    9   22 1   
    19   10   11 ar  
    20   10   23 1   
    21   11   12 1   
    22   12   13 1   
    23   12   24 1   
    24   12   25 1   
    25   13   14 1   
    26   13   26 1   
    27   13   27 1   
@<TRIPOS>SUBSTRUCTURE
     1 ZGB         1 TEMP              0 ****  ****    0 ROOT
