@<TRIPOS>MOLECULE
ZGB
   27    26     1     0     0
SMALL
bcc


@<TRIPOS>ATOM
      1 C1         -2.8380    0.2540   -0.7620 c3        1 ZGB     -0.158000
      2 O1         -1.2830    0.4600   -2.9930 os        1 ZGB     -0.222000
      3 C2         -1.3280    0.3140   -0.7810 c2        1 ZGB     -0.099000
      4 O2          0.9400   -1.0610    5.1060 o         1 ZGB     -0.584000
      5 C3         -0.8310    0.3190    0.5250 c2        1 ZGB     -0.114000
      6 O3          3.0270   -0.7470    4.4390 o         1 ZGB     -0.584000
      7 C4         -0.4600    0.3440   -1.8450 c2        1 ZGB      0.041000
      8 C5         -0.6360    0.0520   -4.2230 c3        1 ZGB     -0.070000
      9 C6          0.9130    0.3790   -1.6210 c2        1 ZGB     -0.198000
     10 C7          1.4040    0.3830   -0.3230 c1        1 ZGB     -0.105000
     11 C8          0.5320    0.3530    0.7450 c1        1 ZGB     -0.056000
     12 C9          1.0750    0.4090    2.1810 c3        1 ZGB     -0.123000
     13 C10         1.3370   -1.0150    2.6830 c3        1 ZGB     -0.221000
     14 C11         1.8010   -0.9660    4.1620 c2        1 ZGB      0.327000
     15 H1         -3.1980    0.7820   -1.5150 hc        1 ZGB      0.075333
     16 H1A        -3.1290   -0.6830   -0.8490 hc        1 ZGB      0.075333
     17 H1B        -3.1740    0.6270    0.0940 hc        1 ZGB      0.075333
     18 H3         -1.4620    0.3290    1.3000 ha        1 ZGB      0.132000
     19 H5         -1.2840    0.0530   -4.9460 h1        1 ZGB      0.073333
     20 H5A         0.0880    0.6760   -4.4330 h1        1 ZGB      0.073333
     21 H5B        -0.2640   -0.8590   -4.1140 h1        1 ZGB      0.073333
     22 H6          1.5240    0.4000   -2.3680 ha        1 ZGB      0.122000
     23 H7          2.3700    0.4090   -0.1660 ha        1 ZGB      0.145000
     24 H9          0.4160    0.8440    2.7610 hc        1 ZGB      0.098000
     25 H9A         1.9090    0.9190    2.1950 hc        1 ZGB      0.098000
     26 H10         0.5140   -1.5400    2.6160 hc        1 ZGB      0.063500
     27 H10A        2.0380   -1.4330    2.1320 hc        1 ZGB      0.063500
@<TRIPOS>BOND
     1    1    3 1   
     2    1   15 1   
     3    1   16 1   
     4    1   17 1   
     5    2    7 1   
     6    2    8 1   
     7    3    5 1   
     8    3    7 1   
     9    4   14 1   
    10    5   11 1   
    11    5   18 1   
    12    6   14 1   
    13    7    9 1   
    14    8   19 1   
    15    8   20 1   
    16    8   21 1   
    17    9   10 1   
    18    9   22 1   
    19   10   23 1   
    20   11   12 1   
    21   12   13 1   
    22   12   24 1   
    23   12   25 1   
    24   13   14 1   
    25   13   26 1   
    26   13   27 1   
@<TRIPOS>SUBSTRUCTURE
     1 ZGB         1 TEMP              0 ****  ****    0 ROOT
