@<TRIPOS>MOLECULE
ZGB
   27    27     1     0     0
SMALL
bcc


@<TRIPOS>ATOM
      1 C1          2.7920    2.3730   -0.0510 c3        1 ZGB     -0.032800
      2 O1          3.8980   -0.1360   -0.2200 os        1 ZGB     -0.338900
      3 C2          1.9480    1.1650    0.0800 ca        1 ZGB     -0.106300
      4 O2         -4.2340   -0.9970    1.0160 o         1 ZGB     -0.849300
      5 C3          0.5720    1.2630    0.2990 ca        1 ZGB     -0.114000
      6 O3         -4.8900   -0.0530   -0.8980 o         1 ZGB     -0.849300
      7 C4          2.5240   -0.1180   -0.0130 ca        1 ZGB      0.086100
      8 C5          4.4730   -1.4160   -0.4330 c3        1 ZGB      0.119700
      9 C6          1.7370   -1.2680    0.1110 ca        1 ZGB     -0.198000
     10 C7          0.3670   -1.1400    0.3290 ca        1 ZGB     -0.105000
     11 C8         -0.2310    0.1230    0.4260 ca        1 ZGB     -0.063300
     12 C9         -1.6940    0.2400    0.6700 c3        1 ZGB     -0.037100
     13 C10        -2.5260   -0.2250   -0.5050 c3        1 ZGB     -0.192400
     14 C11        -3.9950   -0.4360   -0.0930 c         1 ZGB      0.907600
     15 H1          3.3640    2.3390   -1.0130 hc        1 ZGB      0.036033
     16 H1A         2.1760    3.3040   -0.0310 hc        1 ZGB      0.036033
     17 H1B         3.5350    2.4140    0.7850 hc        1 ZGB      0.036033
     18 H3          0.1090    2.2590    0.3700 ha        1 ZGB      0.132000
     19 H5          4.3730   -2.0510    0.4810 h1        1 ZGB      0.034033
     20 H5A         4.0050   -1.9250   -1.3100 h1        1 ZGB      0.034033
     21 H5B         5.5510   -1.1930   -0.6360 h1        1 ZGB      0.034033
     22 H6          2.1820   -2.2690    0.0370 ha        1 ZGB      0.122000
     23 H7         -0.2620   -2.0390    0.4230 ha        1 ZGB      0.145000
     24 H9         -1.9770   -0.3850    1.5640 hc        1 ZGB      0.058700
     25 H9A        -1.9600    1.3030    0.9120 hc        1 ZGB      0.058700
     26 H10        -2.4760    0.5170   -1.3390 hc        1 ZGB      0.024200
     27 H10A       -2.1370   -1.2030   -0.8870 hc        1 ZGB      0.024200
@<TRIPOS>BOND
     1    1    3 1   
     2    1   15 1   
     3    1   16 1   
     4    1   17 1   
     5    2    7 1   
     6    2    8 1   
     7    3    5 ar  
     8    3    7 ar  
     9    4   14 1   
    10    5   11 ar  
    11    5   18 1   
    12    6   14 1   
    13    7    9 ar  
    14    8   19 1   
    15    8   20 1   
    16    8   21 1   
    17    9   10 ar  
    18    9   22 1   
    19   10   11 ar  
    20   10   23 1   
    21   11   12 1   
    22   12   13 1   
    23   12   24 1   
    24   12   25 1   
    25   13   14 1   
    26   13   26 1   
    27   13   27 1   
@<TRIPOS>SUBSTRUCTURE
     1 ZGB         1 TEMP              0 ****  ****    0 ROOT
