@<TRIPOS>MOLECULE
ZGC
   24    24     1     0     0
SMALL
bcc


@<TRIPOS>ATOM
      1 C1         -4.7810    1.0140    0.2440 c3        1 ZGC      0.119700
      2 O1         -4.1270   -0.2460    0.2290 os        1 ZGC     -0.340900
      3 C2         -2.7530   -0.2100    0.0250 ca        1 ZGC      0.086100
      4 O2          4.6470    0.2240    0.9160 o         1 ZGC     -0.849300
      5 C3         -2.0250    0.9520   -0.2520 ca        1 ZGC     -0.179500
      6 O3          3.9560    0.8630   -1.1090 o         1 ZGC     -0.849300
      7 C4         -0.6490    0.8610   -0.4480 ca        1 ZGC     -0.108500
      8 C5         -2.1100   -1.4550    0.1060 ca        1 ZGC     -0.179500
      9 C6         -0.7360   -1.5230   -0.0940 ca        1 ZGC     -0.108500
     10 C7          0.0120   -0.3710   -0.3730 ca        1 ZGC     -0.066300
     11 C8          1.4820   -0.4460   -0.5980 c3        1 ZGC     -0.037100
     12 C9          2.2800    0.2160    0.5030 c3        1 ZGC     -0.192400
     13 C10         3.7390    0.4460    0.0660 c         1 ZGC      0.907600
     14 H1         -5.8480    0.7570    0.4670 h1        1 ZGC      0.034033
     15 H1A        -4.3600    1.6730    1.0420 h1        1 ZGC      0.034033
     16 H1B        -4.7000    1.5130   -0.7530 h1        1 ZGC      0.034033
     17 H3         -2.5190    1.9300   -0.3150 ha        1 ZGC      0.127000
     18 H4         -0.0630    1.7690   -0.6620 ha        1 ZGC      0.138000
     19 H5         -2.6990   -2.3560    0.3270 ha        1 ZGC      0.127000
     20 H6         -0.2260   -2.4970   -0.0280 ha        1 ZGC      0.138000
     21 H8          1.8020   -1.5180   -0.6930 hc        1 ZGC      0.058700
     22 H8A         1.7400    0.0640   -1.5690 hc        1 ZGC      0.058700
     23 H9          1.8380    1.2150    0.7500 hc        1 ZGC      0.024200
     24 H9A         2.2630   -0.4080    1.4300 hc        1 ZGC      0.024200
@<TRIPOS>BOND
     1    1    2 1   
     2    1   14 1   
     3    1   15 1   
     4    1   16 1   
     5    2    3 1   
     6    3    5 ar  
     7    3    8 ar  
     8    4   13 1   
     9    5    7 ar  
    10    5   17 1   
    11    6   13 1   
    12    7   10 ar  
    13    7   18 1   
    14    8    9 ar  
    15    8   19 1   
    16    9   10 ar  
    17    9   20 1   
    18   10   11 1   
    19   11   12 1   
    20   11   21 1   
    21   11   22 1   
    22   12   13 1   
    23   12   23 1   
    24   12   24 1   
@<TRIPOS>SUBSTRUCTURE
     1 ZGC         1 TEMP              0 ****  ****    0 ROOT
