@<TRIPOS>MOLECULE
ZGC
   24    24     1     0     0
SMALL
bcc


@<TRIPOS>ATOM
      1 C1         -0.0490    0.0640    0.0170 c3        1 ZGC      0.119700
      2 O1          1.3680    0.1230   -0.0160 os        1 ZGC     -0.340900
      3 C2          2.0030    0.0480    1.2170 ca        1 ZGC      0.086100
      4 O2          5.2630   -2.3210    7.5030 o         1 ZGC     -0.849300
      5 C3          1.3400    0.0160    2.4480 ca        1 ZGC     -0.179500
      6 O3          4.3230   -0.3040    7.6940 o         1 ZGC     -0.849300
      7 C4          2.0870   -0.0490    3.6220 ca        1 ZGC     -0.108500
      8 C5          3.4060    0.0130    1.1590 ca        1 ZGC     -0.179500
      9 C6          4.1320   -0.0520    2.3430 ca        1 ZGC     -0.108500
     10 C7          3.4870   -0.0830    3.5870 ca        1 ZGC     -0.066300
     11 C8          4.2650   -0.1410    4.8540 c3        1 ZGC     -0.037100
     12 C9          4.1040   -1.4560    5.5840 c3        1 ZGC     -0.192400
     13 C10         4.6060   -1.3470    7.0360 c         1 ZGC      0.907600
     14 H1         -0.3420    0.0890   -1.0630 h1        1 ZGC      0.034033
     15 H1A        -0.3990   -0.8830    0.4950 h1        1 ZGC      0.034033
     16 H1B        -0.4700    0.9480    0.5560 h1        1 ZGC      0.034033
     17 H3          0.2430    0.0410    2.5030 ha        1 ZGC      0.127000
     18 H4          1.5770   -0.0780    4.5970 ha        1 ZGC      0.138000
     19 H5          3.9090    0.0360    0.1830 ha        1 ZGC      0.127000
     20 H6          5.2320   -0.0830    2.3030 ha        1 ZGC      0.138000
     21 H8          5.3540    0.0330    4.6450 hc        1 ZGC      0.058700
     22 H8A         3.9240    0.6820    5.5430 hc        1 ZGC      0.058700
     23 H9          3.0220   -1.7450    5.6200 hc        1 ZGC      0.024200
     24 H9A         4.6610   -2.2690    5.0570 hc        1 ZGC      0.024200
@<TRIPOS>BOND
     1    1    2 1   
     2    1   14 1   
     3    1   15 1   
     4    1   16 1   
     5    2    3 1   
     6    3    5 ar  
     7    3    8 ar  
     8    4   13 1   
     9    5    7 ar  
    10    5   17 1   
    11    6   13 1   
    12    7   10 ar  
    13    7   18 1   
    14    8    9 ar  
    15    8   19 1   
    16    9   10 ar  
    17    9   20 1   
    18   10   11 1   
    19   11   12 1   
    20   11   21 1   
    21   11   22 1   
    22   12   13 1   
    23   12   23 1   
    24   12   24 1   
@<TRIPOS>SUBSTRUCTURE
     1 ZGC         1 TEMP              0 ****  ****    0 ROOT
