@<TRIPOS>MOLECULE
ZGE
   42    42     1     0     0
SMALL
bcc


@<TRIPOS>ATOM
      1 O10        -1.6210    3.2810   -1.2690 o         1 ZGE     -0.614100
      2 C10        -1.3440    3.4640   -0.0660 c         1 ZGE      0.660100
      3 C11        -1.7660    4.7290    0.6440 c3        1 ZGE     -0.176100
      4 N5         -0.5850    2.5600    0.6640 n         1 ZGE     -0.534900
      5 C5         -0.3150    1.2320    0.1610 c3        1 ZGE      0.057700
      6 C4         -1.4960    0.2210    0.4160 c3        1 ZGE      0.204700
      7 N4         -2.7440    0.7660   -0.0620 nh        1 ZGE     -0.847200
      8 C12        -3.9830    0.0690    0.1540 c2        1 ZGE      0.775100
      9 N7         -3.9730   -1.0270    1.0710 nh        1 ZGE     -0.890800
     10 N6         -5.1340    0.4710   -0.3410 n2        1 ZGE     -0.911100
     11 C3         -1.0280   -1.1030   -0.1650 c2        1 ZGE     -0.059700
     12 F1         -1.8620   -1.7850   -0.9830 f         1 ZGE     -0.168500
     13 C6          0.9920    0.6630    0.7680 c3        1 ZGE      0.104100
     14 O6          0.9440   -0.7390    1.0480 os        1 ZGE     -0.325900
     15 C2          0.2280   -1.5150    0.1500 ce        1 ZGE      0.008900
     16 C1          1.0130   -2.7380   -0.3370 c         1 ZGE      0.939800
     17 O1B         0.5580   -3.8770   -0.0930 o         1 ZGE     -0.799800
     18 O1A         2.0790   -2.4690   -0.9630 o         1 ZGE     -0.799800
     19 C7          2.1890    0.9620   -0.1620 c3        1 ZGE      0.121100
     20 O7          1.9780    0.4690   -1.4640 oh        1 ZGE     -0.624800
     21 C8          3.4860    0.4150    0.4680 c3        1 ZGE      0.069100
     22 O8          4.1400    1.4430    1.1970 oh        1 ZGE     -0.613800
     23 C9          4.4150   -0.1940   -0.5860 c3        1 ZGE      0.081400
     24 O9          5.7620   -0.1120   -0.1570 oh        1 ZGE     -0.616800
     25 H1         -2.2570    5.4090   -0.0940 hc        1 ZGE      0.061033
     26 H2         -2.4950    4.4860    1.4550 hc        1 ZGE      0.061033
     27 H3         -0.8840    5.2500    1.0880 hc        1 ZGE      0.061033
     28 H4         -0.6220    2.6420    1.6550 hn        1 ZGE      0.294500
     29 H5         -0.1720    1.3150   -0.9630 h1        1 ZGE      0.118700
     30 H6         -1.5860    0.0780    1.5360 h1        1 ZGE      0.077700
     31 H7         -2.6660    1.1480   -0.9870 hn        1 ZGE      0.419800
     32 H8         -3.1960   -1.6440    0.9430 hn        1 ZGE      0.402300
     33 H9         -4.8410   -1.5190    1.0950 hn        1 ZGE      0.402300
     34 H10        -5.0940    1.2950   -0.8980 hn        1 ZGE      0.385400
     35 H11         1.2130    1.1070    1.7820 h1        1 ZGE      0.072700
     36 H13         2.2700    2.0800   -0.2860 h1        1 ZGE      0.068700
     37 H14         1.9500   -0.5070   -1.4150 ho        1 ZGE      0.463000
     38 H15         3.2340   -0.3640    1.2450 h1        1 ZGE      0.099700
     39 H16         4.7070    1.9170    0.5760 ho        1 ZGE      0.402000
     40 H17         4.1090   -1.2580   -0.7880 h1        1 ZGE      0.087200
     41 H18         4.3850    0.3950   -1.5420 h1        1 ZGE      0.087200
     42 H19         5.8140   -0.5660    0.6920 ho        1 ZGE      0.400000
@<TRIPOS>BOND
     1    1    2 2   
     2    2    3 1   
     3    2    4 1   
     4    3   25 1   
     5    3   26 1   
     6    3   27 1   
     7    4    5 1   
     8    4   28 1   
     9    5    6 1   
    10    5   13 1   
    11    5   29 1   
    12    6    7 1   
    13    6   11 1   
    14    6   30 1   
    15    7    8 1   
    16    7   31 1   
    17    8    9 1   
    18    8   10 2   
    19    9   32 1   
    20    9   33 1   
    21   10   34 1   
    22   11   12 1   
    23   11   15 2   
    24   13   14 1   
    25   13   19 1   
    26   13   35 1   
    27   14   15 1   
    28   15   16 1   
    29   16   17 1   
    30   16   18 1   
    31   19   20 1   
    32   19   21 1   
    33   19   36 1   
    34   20   37 1   
    35   21   22 1   
    36   21   23 1   
    37   21   38 1   
    38   22   39 1   
    39   23   24 1   
    40   23   40 1   
    41   23   41 1   
    42   24   42 1   
@<TRIPOS>SUBSTRUCTURE
     1 ZGE         1 TEMP              0 ****  ****    0 ROOT
