@<TRIPOS>MOLECULE
ZGE
   42    39     1     0     0
SMALL
bcc


@<TRIPOS>ATOM
      1 O10         3.6400    0.1590    0.8260 o         1 ZGE     -0.394000
      2 C10         3.0460    0.1790    1.8850 c1        1 ZGE      0.306000
      3 C11         3.8170    0.2170    3.1830 c2        1 ZGE     -0.242000
      4 N5          1.6380    0.1850    1.9030 n3        1 ZGE     -0.376000
      5 C5          0.8690    0.1660    0.6070 c3        1 ZGE      0.021000
      6 C4         -0.0830    1.5630    0.5400 c3        1 ZGE      0.009000
      7 N4         -0.5490    1.8000   -0.8130 n3        1 ZGE     -0.310000
      8 C12        -0.1150    2.9540   -1.5230 c1        1 ZGE      0.149000
      9 N7         -1.0160    3.6410   -2.3850 n2        1 ZGE     -0.348000
     10 N6          1.1140    3.3840   -1.3840 n1        1 ZGE     -0.333000
     11 C3         -1.1530    1.5150    1.4700 c2        1 ZGE     -0.211000
     12 F1         -1.9320    2.5890    1.6510 f         1 ZGE     -0.125000
     13 C6          0.2270   -0.9270    0.5430 c3        1 ZGE      0.002000
     14 O6         -0.8620   -1.1110    1.6230 os        1 ZGE     -0.174000
     15 C2         -1.7770   -0.0710    1.7880 c2        1 ZGE      0.043000
     16 C1         -2.9600   -0.2460    2.7110 c2        1 ZGE      0.395000
     17 O1B        -3.9000    0.5900    2.6940 o         1 ZGE     -0.522500
     18 O1A        -2.9770   -1.1970    3.5390 o         1 ZGE     -0.522500
     19 C7         -0.4760   -1.0090   -0.8920 c3        1 ZGE      0.028000
     20 O7         -1.8050   -0.6770   -0.7720 oh        1 ZGE     -0.300000
     21 C8         -0.3560   -2.3910   -1.4260 c3        1 ZGE     -0.043000
     22 O8          0.9680   -2.6070   -1.8820 oh        1 ZGE     -0.333000
     23 C9         -1.3280   -2.5740   -2.5850 c3        1 ZGE     -0.065000
     24 O9         -0.9780   -3.7300   -3.3130 oh        1 ZGE     -0.340000
     25 H1          3.5100   -0.5080    3.7670 ha        1 ZGE      0.101667
     26 H2          4.7700    0.1050    2.9990 ha        1 ZGE      0.101667
     27 H3          3.6690    1.0790    3.6260 ha        1 ZGE      0.101667
     28 H4          1.1940    0.2690    2.6950 hn        1 ZGE      0.248000
     29 H5          1.5100    0.1930   -0.1350 h1        1 ZGE      0.142000
     30 H6          0.4600    2.3640    0.6910 h1        1 ZGE      0.108000
     31 H7         -1.1650    1.2380   -1.1890 hn        1 ZGE      0.194000
     32 H8         -1.8700    3.3300   -2.4940 hn        1 ZGE      0.199000
     33 H9         -0.7600    4.4250   -2.7820 hn        1 ZGE      0.199000
     34 H10         1.6940    2.9420   -0.8280 DU        1 ZGE      0.151000
     35 H11         0.8650   -1.6660    0.6190 h1        1 ZGE      0.124000
     36 H13        -0.0400   -0.3850   -1.5040 h1        1 ZGE      0.097000
     37 H14        -2.2090   -0.7800   -1.5590 ho        1 ZGE      0.193000
     38 H15        -0.5660   -3.0330   -0.7200 h1        1 ZGE      0.113000
     39 H16         1.1000   -3.4770   -2.0080 ho        1 ZGE      0.209000
     40 H17        -1.2850   -1.7920   -3.1730 h1        1 ZGE      0.100500
     41 H18        -2.2380   -2.6710   -2.2360 h1        1 ZGE      0.100500
     42 H19        -1.6900   -4.0270   -3.7570 ho        1 ZGE      0.204000
@<TRIPOS>BOND
     1    1    2 1   
     2    2    4 1   
     3    3   25 1   
     4    3   26 1   
     5    3   27 1   
     6    4    5 1   
     7    4   28 1   
     8    5    6 1   
     9    5   13 1   
    10    5   29 1   
    11    6    7 1   
    12    6   11 1   
    13    6   30 1   
    14    7    8 1   
    15    7   31 1   
    16    8   10 1   
    17    9   32 1   
    18    9   33 1   
    19   11   12 1   
    20   11   15 1   
    21   13   14 1   
    22   13   19 1   
    23   13   35 1   
    24   14   15 1   
    25   15   16 1   
    26   16   17 1   
    27   16   18 1   
    28   19   20 1   
    29   19   21 1   
    30   19   36 1   
    31   20   37 1   
    32   21   22 1   
    33   21   23 1   
    34   21   38 1   
    35   22   39 1   
    36   23   24 1   
    37   23   40 1   
    38   23   41 1   
    39   24   42 1   
@<TRIPOS>SUBSTRUCTURE
     1 ZGE         1 TEMP              0 ****  ****    0 ROOT
