@<TRIPOS>MOLECULE
ZGE
   45    43     1     0     0
SMALL
bcc


@<TRIPOS>ATOM
      1 O10       327.2830  273.2740   64.5990 o         1 ZGE     -0.159000
      2 C10       328.0680  272.4090   64.9510 c2        1 ZGE      0.265000
      3 C11       329.5160  272.2810   64.6280 c3        1 ZGE     -0.258000
      4 N5        327.4870  271.3040   65.8140 n4        1 ZGE     -0.118000
      5 C5        326.9220  271.8250   67.1110 c3        1 ZGE     -0.038000
      6 C4        327.9980  272.3220   68.0220 c2        1 ZGE     -0.297000
      7 N4      -1038.4080 -863.7220 -229.0770 n3        1 ZGE     -0.390000
      8 C12     -1037.2650 -863.0940 -229.6090 c2        1 ZGE      0.110000
      9 N7      -1037.2060 -863.2270 -231.1310 n4        1 ZGE     -0.057000
     10 N6      -1036.2330 -862.5200 -229.0980 n2        1 ZGE     -0.215000
     11 C3        327.8140  272.2800   69.3660 c2        1 ZGE      0.058000
     12 F1        328.7230  272.7520   70.2300 f         1 ZGE     -0.030000
     13 C6        326.0630  270.7300   67.7790 c3        1 ZGE     -0.123000
     14 O6        325.7610  271.0680   69.1680 os        1 ZGE     -0.072000
     15 C2        326.5390  271.7340   69.9330 c1        1 ZGE      0.155000
     16 C1         -1.0620  -10.7010   16.3700 c1        1 ZGE      0.411000
     17 O1B        -0.4720  -10.5700   17.3950 o         1 ZGE     -0.206000
     18 O1A        -1.6520  -10.8320   15.3450 o         1 ZGE     -0.206000
     19 C7        324.7060  270.5490   67.0720 c3        1 ZGE      0.034000
     20 O7        323.6250  270.7490   67.9460 oh        1 ZGE     -0.279000
     21 C8        324.6430  269.1520   66.4250 c3        1 ZGE     -0.006000
     22 O8        325.7880  269.0380   65.5850 oh        1 ZGE     -0.411000
     23 C9        323.3490  269.0000   65.6180 c3        1 ZGE     -0.047000
     24 O9        323.4760  267.7700   64.9260 oh        1 ZGE     -0.347000
     25 H1        329.8180  273.1560   63.9910 hc        1 ZGE      0.156000
     26 H2        330.1350  272.2850   65.5610 hc        1 ZGE      0.156000
     27 H3        329.7160  271.3380   64.0560 hc        1 ZGE      0.156000
     28 H4        328.2010  270.5970   66.0140 hn        1 ZGE      0.270500
     29 H5        326.2540  272.7060   66.8330 hx        1 ZGE      0.180000
     30 H6        328.8880  272.7900   67.5760 ha        1 ZGE      0.169000
     31 H7      -1039.2870 -863.2980 -229.2810 hn        1 ZGE      0.246000
     32 H8      -1036.3130 -862.8550 -231.4830 hn        1 ZGE      0.273000
     33 H9      -1037.9790 -862.7050 -231.5510 hn        1 ZGE      0.273000
     34 H10     -1036.1940 -862.3700 -228.1110 hn        1 ZGE      0.242000
     35 H11       326.6230  269.7530   67.8260 h1        1 ZGE      0.143000
     36 H13       324.5620  271.3390   66.2790 h1        1 ZGE      0.126000
     37 H14       323.7170  270.1470   68.7000 ho        1 ZGE      0.231000
     38 H15       324.6940  268.3480   67.2120 h1        1 ZGE      0.116000
     39 H16       325.6400  268.2790   65.0000 ho        1 ZGE      0.268000
     40 H17       322.4710  268.9980   66.3150 h1        1 ZGE      0.097000
     41 H18       323.2430  269.8370   64.8770 h1        1 ZGE      0.097000
     42 H19       322.5990  267.5290   64.6010 ho        1 ZGE      0.237000
     43 H52       326.7140  270.8400   65.2990 hn        1 ZGE      0.270500
     44 H42     -1038.3080 -864.0490 -228.1390 hn        1 ZGE      0.246000
     45 H73     -1037.2860 -864.2190 -231.3820 hn        1 ZGE      0.273000
@<TRIPOS>BOND
     1    1    2 1   
     2    2    3 1   
     3    2    4 1   
     4    3   25 1   
     5    3   26 1   
     6    3   27 1   
     7    4    5 1   
     8    4   28 1   
     9    4   43 1   
    10    5    6 1   
    11    5   13 1   
    12    5   29 1   
    13    6   11 1   
    14    6   30 1   
    15    7    8 1   
    16    7   31 1   
    17    7   44 1   
    18    8    9 1   
    19    8   10 1   
    20    9   32 1   
    21    9   33 1   
    22    9   45 1   
    23   10   34 1   
    24   11   12 1   
    25   11   15 1   
    26   13   14 1   
    27   13   19 1   
    28   13   35 1   
    29   14   15 1   
    30   16   17 1   
    31   16   18 1   
    32   19   20 1   
    33   19   21 1   
    34   19   36 1   
    35   20   37 1   
    36   21   22 1   
    37   21   23 1   
    38   21   38 1   
    39   22   39 1   
    40   23   24 1   
    41   23   40 1   
    42   23   41 1   
    43   24   42 1   
@<TRIPOS>SUBSTRUCTURE
     1 ZGE         1 TEMP              0 ****  ****    0 ROOT
