@<TRIPOS>MOLECULE
ZGE
   45    43     1     0     0
SMALL
bcc


@<TRIPOS>ATOM
      1 O10        88.3650   76.9240   17.6480 o         1 ZGE     -0.159000
      2 C10        89.3710   76.3450   18.0240 c2        1 ZGE      0.265000
      3 C11        90.6420   76.9290   18.5350 c3        1 ZGE     -0.258000
      4 N5         89.3300   74.8300   17.9390 ny        1 ZGE     -0.118000
      5 C5         88.2350   74.2370   18.7880 c3        1 ZGE     -0.038000
      6 C4         88.5170   74.4010   20.2470 c2        1 ZGE     -0.297000
      7 N4       -273.9570 -234.9150  -61.7830 n8        1 ZGE     -0.390000
      8 C12      -274.0940 -234.6960  -63.1670 c2        1 ZGE      0.110000
      9 N7       -275.0290 -235.7200  -63.8100 nz        1 ZGE     -0.057000
     10 N6       -273.5460 -233.8930  -64.0110 n2        1 ZGE     -0.215000
     11 C3         88.0270   73.4980   21.1340 c2        1 ZGE      0.058000
     12 F1         88.2090   73.6170   22.4550 f         1 ZGE     -0.030000
     13 C6         88.0290   72.7550   18.4070 c3        1 ZGE     -0.123000
     14 O6         87.2160   72.0600   19.4010 os        1 ZGE     -0.072000
     15 C2         87.2110   72.3370   20.6500 c1        1 ZGE      0.155000
     16 C1         -8.3830   -1.5920  -17.9840 c1        1 ZGE      0.411000
     17 O1B        -7.2670   -1.7950  -17.6270 o         1 ZGE     -0.206000
     18 O1A        -9.4990   -1.3890  -18.3420 o         1 ZGE     -0.206000
     19 C7         87.2930   72.6020   17.0610 c3        1 ZGE      0.034000
     20 O7         86.1060   71.8610   17.1900 oh        1 ZGE     -0.279000
     21 C8         88.2360   71.9610   16.0250 c3        1 ZGE     -0.006000
     22 O8         89.4130   72.7640   15.9910 oh        1 ZGE     -0.411000
     23 C9         87.5600   71.9140   14.6510 c3        1 ZGE     -0.047000
     24 O9         88.5640   71.4830   13.7490 oh        1 ZGE     -0.347000
     25 H1         90.8550   76.5730   19.5750 hc        1 ZGE      0.156000
     26 H2         90.5410   78.0480   18.5490 hc        1 ZGE      0.156000
     27 H3         91.5020   76.6570   17.8690 hc        1 ZGE      0.156000
     28 H4         90.2320   74.4340   18.2220 hn        1 ZGE      0.270500
     29 H5         87.2890   74.8220   18.5390 hx        1 ZGE      0.180000
     30 H6         89.0500   75.3050   20.5790 ha        1 ZGE      0.169000
     31 H7       -273.0910 -234.6040  -61.3930 hn        1 ZGE      0.246000
     32 H8       -275.0290 -235.6050  -64.8330 hn        1 ZGE      0.273000
     33 H9       -275.9790 -235.5880  -63.4540 hn        1 ZGE      0.273000
     34 H10      -272.9360 -233.1750  -63.6790 hn        1 ZGE      0.242000
     35 H11        89.0120   72.2040   18.3880 h1        1 ZGE      0.143000
     36 H13        86.9430   73.6070   16.6830 h1        1 ZGE      0.126000
     37 H14        86.3180   71.0000   17.5810 ho        1 ZGE      0.231000
     38 H15        88.5230   70.9190   16.3420 h1        1 ZGE      0.116000
     39 H16        89.9040   72.5190   15.1920 ho        1 ZGE      0.268000
     40 H17        86.6950   71.2010   14.6830 h1        1 ZGE      0.097000
     41 H18        87.1990   72.9330   14.3510 h1        1 ZGE      0.097000
     42 H19        88.1240   71.2170   12.9320 ho        1 ZGE      0.237000
     43 H52        89.1520   74.5490   16.9560 hn        1 ZGE      0.270500
     44 H42      -274.7590 -234.7340  -61.2190 hn        1 ZGE      0.246000
     45 H73      -274.7020 -236.6650  -63.5730 hn        1 ZGE      0.273000
@<TRIPOS>BOND
     1    1    2 1   
     2    2    3 1   
     3    2    4 1   
     4    3   25 1   
     5    3   26 1   
     6    3   27 1   
     7    4    5 1   
     8    4   28 1   
     9    4   43 1   
    10    5    6 1   
    11    5   13 1   
    12    5   29 1   
    13    6   11 1   
    14    6   30 1   
    15    7    8 1   
    16    7   31 1   
    17    7   44 1   
    18    8    9 1   
    19    8   10 1   
    20    9   32 1   
    21    9   33 1   
    22    9   45 1   
    23   10   34 1   
    24   11   12 1   
    25   11   15 1   
    26   13   14 1   
    27   13   19 1   
    28   13   35 1   
    29   14   15 1   
    30   16   17 1   
    31   16   18 1   
    32   19   20 1   
    33   19   21 1   
    34   19   36 1   
    35   20   37 1   
    36   21   22 1   
    37   21   23 1   
    38   21   38 1   
    39   22   39 1   
    40   23   24 1   
    41   23   40 1   
    42   23   41 1   
    43   24   42 1   
@<TRIPOS>SUBSTRUCTURE
     1 ZGE         1 TEMP              0 ****  ****    0 ROOT
