@<TRIPOS>MOLECULE
ZGL
   19    18     1     0     0
SMALL
bcc


@<TRIPOS>ATOM
      1 C          -2.4420    0.3040   -0.0870 c         1 ZGL      0.652100
      2 N          -1.4710   -1.9720   -0.2540 n3        1 ZGL     -0.902800
      3 O          -3.3010   -0.0630    0.7430 o         1 ZGL     -0.643100
      4 N1         -2.5670    1.5320   -0.7030 n         1 ZGL     -0.661000
      5 CA         -1.2330   -0.5590   -0.4890 c3        1 ZGL      0.094500
      6 CB          0.0020    0.0360    0.2080 c3        1 ZGL     -0.104400
      7 CD          2.4770    0.3580   -0.1390 c         1 ZGL      0.911600
      8 CG          1.2850   -0.6180   -0.2420 c3        1 ZGL     -0.205400
      9 OE1         3.5940   -0.1210    0.2020 o         1 ZGL     -0.846300
     10 OE2         2.2810    1.5760   -0.4210 o         1 ZGL     -0.846300
     11 HN         -0.5890   -2.4310   -0.1140 hn        1 ZGL      0.353800
     12 HNA        -2.0340   -2.0990    0.5680 hn        1 ZGL      0.353800
     13 HN1        -3.2360    2.1700   -0.3490 hn        1 ZGL      0.302000
     14 HN1A       -1.7870    1.9080   -1.1850 hn        1 ZGL      0.302000
     15 HA         -1.0810   -0.4620   -1.6080 h1        1 ZGL      0.073700
     16 HB          0.0710    1.1330   -0.0330 hc        1 ZGL      0.056700
     17 HBA        -0.1090   -0.0590    1.3190 hc        1 ZGL      0.056700
     18 HG          1.5040   -1.5280    0.3680 hc        1 ZGL      0.026200
     19 HGA         1.2100   -0.9320   -1.3140 hc        1 ZGL      0.026200
@<TRIPOS>BOND
     1    1    3 2   
     2    1    4 1   
     3    1    5 1   
     4    2    5 1   
     5    2   11 1   
     6    2   12 1   
     7    4   13 1   
     8    4   14 1   
     9    5    6 1   
    10    5   15 1   
    11    6    8 1   
    12    6   16 1   
    13    6   17 1   
    14    7    8 1   
    15    7    9 1   
    16    7   10 1   
    17    8   18 1   
    18    8   19 1   
@<TRIPOS>SUBSTRUCTURE
     1 ZGL         1 TEMP              0 ****  ****    0 ROOT
