@<TRIPOS>MOLECULE
ZGL
   19    16     1     0     0
SMALL
bcc


@<TRIPOS>ATOM
      1 C          -1.7110   -0.2680   -0.8490 c1        1 ZGL      0.296000
      2 N           0.2680   -1.5230   -1.3460 n3        1 ZGL     -0.335000
      3 O          -2.4010   -1.0440   -0.2180 o         1 ZGL     -0.404000
      4 N1         -2.3190    0.7020   -1.6870 n2        1 ZGL     -0.421000
      5 CA         -0.2050   -0.3300   -0.7330 c3        1 ZGL     -0.053000
      6 CB          0.1890   -0.3220    0.7260 c3        1 ZGL     -0.183000
      7 CD          1.7400    0.6450    2.3870 c1        1 ZGL      0.331000
      8 CG          1.2760    0.7060    0.9490 c2        1 ZGL     -0.234000
      9 OE1         2.8430    0.1070    2.6700 o         1 ZGL     -0.581000
     10 OE2         1.0250    1.1320    3.3010 o         1 ZGL     -0.581000
     11 HN          0.0800   -1.5020   -2.2420 hn        1 ZGL      0.149000
     12 HNA         1.1740   -1.5900   -1.2260 hn        1 ZGL      0.149000
     13 HN1        -1.8000    1.2870   -2.1600 hn        1 ZGL      0.215500
     14 HN1A       -3.2300    0.7420   -1.7540 hn        1 ZGL      0.215500
     15 HA          0.1880    0.4450   -1.1810 h1        1 ZGL      0.113000
     16 HB         -0.5900   -0.0970    1.2730 hc        1 ZGL      0.096000
     17 HBA         0.5210   -1.2070    0.9790 hc        1 ZGL      0.096000
     18 HG          2.0290    0.5190    0.3540 ha        1 ZGL      0.065500
     19 HGA         0.9240    1.5990    0.7580 ha        1 ZGL      0.065500
@<TRIPOS>BOND
     1    1    3 1   
     2    1    5 1   
     3    2    5 1   
     4    2   11 1   
     5    2   12 1   
     6    4   13 1   
     7    4   14 1   
     8    5    6 1   
     9    5   15 1   
    10    6    8 1   
    11    6   16 1   
    12    6   17 1   
    13    7    9 1   
    14    7   10 1   
    15    8   18 1   
    16    8   19 1   
@<TRIPOS>SUBSTRUCTURE
     1 ZGL         1 TEMP              0 ****  ****    0 ROOT
