@<TRIPOS>MOLECULE
ZGP
   60    63     1     0     0
SMALL
bcc


@<TRIPOS>ATOM
      1 O6         -0.2610   -0.5860   -2.0320 o         1 ZGP     -0.538500
      2 C6          0.9280   -0.2920   -1.8950 c         1 ZGP      0.644000
      3 N1          1.3820   -0.0690   -0.5570 n         1 ZGP     -0.505400
      4 C2          2.7190    0.2740   -0.3030 cc        1 ZGP      0.417800
      5 N2          3.1190    0.4900    1.1210 n4        1 ZGP     -0.781600
      6 N3          3.6980    0.4340   -1.1960 nd        1 ZGP     -0.478100
      7 C4          3.3100    0.2230   -2.4970 cd        1 ZGP     -0.060200
      8 C5          1.9630   -0.1330   -2.9100 cc        1 ZGP      0.315800
      9 N7          1.9050   -0.2640   -4.2750 nc        1 ZGP     -0.604000
     10 C8          3.1760   -0.0010   -4.7230 cd        1 ZGP      0.523400
     11 N9          4.0630    0.2950   -3.6840 na        1 ZGP     -0.173900
     12 C1'         5.4580    0.7240   -3.7150 c3        1 ZGP      0.208800
     13 O4'         5.9560    0.7380   -5.0400 os        1 ZGP     -0.367600
     14 C2'         6.4090   -0.1730   -2.8460 c3        1 ZGP      0.124100
     15 O2'         6.8990    0.5660   -1.7570 oh        1 ZGP     -0.592800
     16 C3'         7.4850   -0.6660   -3.8400 c3        1 ZGP      0.087100
     17 O3'         8.6950   -0.0060   -3.5090 oh        1 ZGP     -0.613800
     18 C4'         6.9590   -0.2830   -5.2330 c3        1 ZGP      0.060100
     19 C5'         6.3720   -1.4820   -5.9980 c3        1 ZGP      0.182400
     20 O5'         6.6190   -1.3570   -7.3550 os        1 ZGP     -0.554200
     21 PBK         5.3680   -0.9500   -8.3590 p5        1 ZGP      1.473800
     22 OAJ         4.2060   -0.7480   -7.4650 o         1 ZGP     -0.814500
     23 OAG         5.4450   -1.7670   -9.5680 o         1 ZGP     -0.814500
     24 OAT         5.9580    0.5800   -8.6750 os        1 ZGP     -0.494500
     25 CBA         5.8040    1.2280   -9.8470 ca        1 ZGP      0.266100
     26 CAX         4.6640    2.0570  -10.0570 ca        1 ZGP     -0.248600
     27 CAA         3.5750    2.0800   -9.0570 c3        1 ZGP     -0.064800
     28 CAY         6.8360    1.2040  -10.8090 ca        1 ZGP     -0.221600
     29 CAB         8.0380    0.3620  -10.6520 c3        1 ZGP     -0.040800
     30 CBB         6.6510    2.0170  -11.9560 ca        1 ZGP      0.629600
     31 OAE         7.6590    1.9910  -12.8990 oh        1 ZGP     -0.624300
     32 NAR         5.5840    2.8190  -12.1780 nb        1 ZGP     -0.757000
     33 CAZ         4.6110    2.8290  -11.2340 ca        1 ZGP      0.434600
     34 CAM         3.4410    3.7440  -11.4840 c3        1 ZGP     -0.212700
     35 CAV         2.4500    3.1130  -12.4220 c         1 ZGP      0.620700
     36 OAD         2.5780    3.0660  -13.6440 o         1 ZGP     -0.508100
     37 SAK         1.0870    2.5200  -11.5300 sh        1 ZGP     -0.356400
     38 H1          0.7190   -0.1650    0.1780 hn        1 ZGP      0.335500
     39 H2          2.9470   -0.3660    1.6570 hn        1 ZGP      0.471800
     40 H3          2.5790    1.2660    1.5140 hn        1 ZGP      0.471800
     41 H4          3.4880   -0.0340   -5.8070 h5        1 ZGP      0.203100
     42 H5          5.4790    1.7980   -3.3540 h2        1 ZGP      0.099700
     43 H6          5.8710   -1.0460   -2.3880 h1        1 ZGP      0.089700
     44 H7          7.6320    1.1190   -2.0670 ho        1 ZGP      0.435000
     45 H8          7.6400   -1.7740   -3.7420 h1        1 ZGP      0.075700
     46 H9          9.2720   -0.0580   -4.2830 ho        1 ZGP      0.433000
     47 H10         7.7390    0.2260   -5.8670 h1        1 ZGP      0.116700
     48 H11         5.2690   -1.5600   -5.7900 h1        1 ZGP      0.045200
     49 H12         6.8950   -2.4190   -5.6490 h1        1 ZGP      0.045200
     50 H15         3.5840    3.0450   -8.4900 hc        1 ZGP      0.054700
     51 H16         3.7020    1.2360   -8.3250 hc        1 ZGP      0.054700
     52 H17         2.5750    1.9660   -9.5530 hc        1 ZGP      0.054700
     53 H18         8.8560    0.7010  -11.3340 hc        1 ZGP      0.053367
     54 H19         7.7880   -0.7040  -10.8960 hc        1 ZGP      0.053367
     55 H20         8.4060    0.4040   -9.5970 hc        1 ZGP      0.053367
     56 H21         2.9440    3.9970  -10.5090 hc        1 ZGP      0.084700
     57 H22         3.7930    4.7070  -11.9490 hc        1 ZGP      0.084700
     58 H23         0.3510    1.9910  -12.4950 hs        1 ZGP      0.219800
     59 H14         7.4010    2.5470  -13.6510 ho        1 ZGP      0.432000
     60 H231        4.1240    0.7190    1.1590 hn        1 ZGP      0.471800
@<TRIPOS>BOND
     1    1    2 2   
     2    2    3 1   
     3    2    8 1   
     4    3    4 1   
     5    3   38 1   
     6    4    5 1   
     7    4    6 2   
     8    5   39 1   
     9    5   40 1   
    10    5   60 1   
    11    6    7 1   
    12    7    8 2   
    13    7   11 1   
    14    8    9 1   
    15    9   10 2   
    16   10   11 1   
    17   10   41 1   
    18   11   12 1   
    19   12   13 1   
    20   12   14 1   
    21   12   42 1   
    22   13   18 1   
    23   14   15 1   
    24   14   16 1   
    25   14   43 1   
    26   15   44 1   
    27   16   17 1   
    28   16   18 1   
    29   16   45 1   
    30   17   46 1   
    31   18   19 1   
    32   18   47 1   
    33   19   20 1   
    34   19   48 1   
    35   19   49 1   
    36   20   21 1   
    37   21   22 1   
    38   21   23 1   
    39   21   24 1   
    40   24   25 1   
    41   25   26 ar  
    42   25   28 ar  
    43   26   27 1   
    44   26   33 ar  
    45   27   50 1   
    46   27   51 1   
    47   27   52 1   
    48   28   29 1   
    49   28   30 ar  
    50   29   53 1   
    51   29   54 1   
    52   29   55 1   
    53   30   31 1   
    54   30   32 ar  
    55   31   59 1   
    56   32   33 ar  
    57   33   34 1   
    58   34   35 1   
    59   34   56 1   
    60   34   57 1   
    61   35   36 2   
    62   35   37 1   
    63   37   58 1   
@<TRIPOS>SUBSTRUCTURE
     1 ZGP         1 TEMP              0 ****  ****    0 ROOT
