@<TRIPOS>MOLECULE
ZGP
   60    63     1     0     0
SMALL
bcc


@<TRIPOS>ATOM
      1 O6         -0.2790   -0.6400   -2.0720 o         1 ZGP     -0.538500
      2 C6          0.9040   -0.3230   -1.9270 c         1 ZGP      0.644000
      3 N1          1.3400   -0.0790   -0.5870 ns        1 ZGP     -0.505400
      4 C2          2.6680    0.2910   -0.3230 cc        1 ZGP      0.417800
      5 N2          3.0500    0.5270    1.1030 nz        1 ZGP     -0.781600
      6 N3          3.6530    0.4610   -1.2070 nd        1 ZGP     -0.478100
      7 C4          3.2820    0.2300   -2.5100 cd        1 ZGP     -0.060200
      8 C5          1.9460   -0.1550   -2.9330 cc        1 ZGP      0.315800
      9 N7          1.9030   -0.2990   -4.2970 nc        1 ZGP     -0.604000
     10 C8          3.1740   -0.0170   -4.7350 cd        1 ZGP      0.523400
     11 N9          4.0450    0.3050   -3.6900 na        1 ZGP     -0.173900
     12 C1'         5.4330    0.7590   -3.7120 c3        1 ZGP      0.208800
     13 O4'         5.9430    0.7690   -5.0320 os        1 ZGP     -0.367600
     14 C2'         6.3910   -0.1120   -2.8250 c3        1 ZGP      0.124100
     15 O2'         6.8570    0.6460   -1.7390 oh        1 ZGP     -0.592800
     16 C3'         7.4850   -0.5950   -3.8040 c3        1 ZGP      0.087100
     17 O3'         8.6800    0.0900   -3.4680 oh        1 ZGP     -0.613800
     18 C4'         6.9660   -0.2340   -5.2060 c3        1 ZGP      0.060100
     19 C5'         6.4090   -1.4510   -5.9650 c3        1 ZGP      0.182400
     20 O5'         6.6670   -1.3340   -7.3200 os        1 ZGP     -0.554200
     21 PBK         5.4180   -0.9590   -8.3410 p5        1 ZGP      1.473800
     22 OAJ         4.2450   -0.7700   -7.4600 o         1 ZGP     -0.814500
     23 OAG         5.5230   -1.7850   -9.5410 o         1 ZGP     -0.814500
     24 OAT         5.9850    0.5790   -8.6650 os        1 ZGP     -0.494500
     25 CBA         5.8280    1.2150   -9.8430 ca        1 ZGP      0.266100
     26 CAX         4.6760    2.0220  -10.0680 ca        1 ZGP     -0.248600
     27 CAA         3.5800    2.0360   -9.0750 c3        1 ZGP     -0.064800
     28 CAY         6.8670    1.1990  -10.7970 ca        1 ZGP     -0.220600
     29 CAB         8.0820    0.3790  -10.6260 c3        1 ZGP     -0.040800
     30 CBB         6.6760    2.0000  -11.9520 ca        1 ZGP      0.629600
     31 OAE         7.6920    1.9840  -12.8890 oh        1 ZGP     -0.624300
     32 NAR         5.5980    2.7830  -12.1890 nb        1 ZGP     -0.757000
     33 CAZ         4.6180    2.7840  -11.2510 ca        1 ZGP      0.434600
     34 CAM         3.4350    3.6780  -11.5160 c3        1 ZGP     -0.212700
     35 CAV         2.4620    3.0220  -12.4560 c         1 ZGP      0.620700
     36 OAD         2.5990    2.9700  -13.6770 o         1 ZGP     -0.508100
     37 SAK         1.1040    2.4110  -11.5690 sh        1 ZGP     -0.356400
     38 H1          0.6720   -0.1800    0.1440 hn        1 ZGP      0.335500
     39 H2          2.8890   -0.3260    1.6460 hn        1 ZGP      0.471800
     40 H3          2.4920    1.2970    1.4830 hn        1 ZGP      0.471800
     41 H4          3.4970   -0.0540   -5.8150 h5        1 ZGP      0.203100
     42 H5          5.4300    1.8360   -3.3610 h2        1 ZGP      0.099700
     43 H6          5.8640   -0.9910   -2.3640 h1        1 ZGP      0.089700
     44 H7          7.5820    1.2090   -2.0470 ho        1 ZGP      0.435000
     45 H8          7.6590   -1.6980   -3.6940 h1        1 ZGP      0.075700
     46 H9          9.2660    0.0420   -4.2350 ho        1 ZGP      0.433000
     47 H10         7.7440    0.2820   -5.8370 h1        1 ZGP      0.117700
     48 H11         6.9450   -2.3750   -5.6020 h1        1 ZGP      0.045200
     49 H12         5.3050   -1.5470   -5.7670 h1        1 ZGP      0.045200
     50 H15         2.5860    1.9010   -9.5770 hc        1 ZGP      0.054700
     51 H16         3.5690    3.0050   -8.5160 hc        1 ZGP      0.054700
     52 H17         3.7160    1.2000   -8.3350 hc        1 ZGP      0.054700
     53 H18         7.8510   -0.6930  -10.8620 hc        1 ZGP      0.053367
     54 H19         8.4420    0.4360   -9.5690 hc        1 ZGP      0.053367
     55 H20         8.8980    0.7250  -11.3060 hc        1 ZGP      0.053367
     56 H21         3.7740    4.6430  -11.9870 hc        1 ZGP      0.084700
     57 H22         2.9270    3.9290  -10.5470 hc        1 ZGP      0.084700
     58 H23         0.3830    1.8630  -12.5360 hs        1 ZGP      0.219800
     59 H14         7.4300    2.5290  -13.6470 ho        1 ZGP      0.432000
     60 H231        4.0510    0.7760    1.1490 hn        1 ZGP      0.471800
@<TRIPOS>BOND
     1    1    2 2   
     2    2    3 1   
     3    2    8 1   
     4    3    4 1   
     5    3   38 1   
     6    4    5 1   
     7    4    6 2   
     8    5   39 1   
     9    5   40 1   
    10    5   60 1   
    11    6    7 1   
    12    7    8 2   
    13    7   11 1   
    14    8    9 1   
    15    9   10 2   
    16   10   11 1   
    17   10   41 1   
    18   11   12 1   
    19   12   13 1   
    20   12   14 1   
    21   12   42 1   
    22   13   18 1   
    23   14   15 1   
    24   14   16 1   
    25   14   43 1   
    26   15   44 1   
    27   16   17 1   
    28   16   18 1   
    29   16   45 1   
    30   17   46 1   
    31   18   19 1   
    32   18   47 1   
    33   19   20 1   
    34   19   48 1   
    35   19   49 1   
    36   20   21 1   
    37   21   22 1   
    38   21   23 1   
    39   21   24 1   
    40   24   25 1   
    41   25   26 ar  
    42   25   28 ar  
    43   26   27 1   
    44   26   33 ar  
    45   27   50 1   
    46   27   51 1   
    47   27   52 1   
    48   28   29 1   
    49   28   30 ar  
    50   29   53 1   
    51   29   54 1   
    52   29   55 1   
    53   30   31 1   
    54   30   32 ar  
    55   31   59 1   
    56   32   33 ar  
    57   33   34 1   
    58   34   35 1   
    59   34   56 1   
    60   34   57 1   
    61   35   36 2   
    62   35   37 1   
    63   37   58 1   
@<TRIPOS>SUBSTRUCTURE
     1 ZGP         1 TEMP              0 ****  ****    0 ROOT
