@<TRIPOS>MOLECULE
ZGU
   30    31     1     0     0
SMALL
bcc


@<TRIPOS>ATOM
      1 P          -9.7190   -6.8330    4.7380 p5        1 ZGU      1.323900
      2 O1P        -9.1310   -8.2310    4.7400 o         1 ZGU     -0.915167
      3 O2P       -10.5880   -6.5200    5.9210 o         1 ZGU     -0.915167
      4 O3G        -8.2580   -5.9680    5.1370 os        1 ZGU     -0.569200
      5 C3G        -7.8200   -6.1780    6.4150 c3        1 ZGU      0.197400
      6 C2G        -6.5770   -7.1090    6.4600 c3        1 ZGU      0.116100
      7 O2G        -6.9090   -8.4640    6.3130 oh        1 ZGU     -0.710800
      8 C1G        -5.6230   -6.6620    5.3290 c3        1 ZGU     -0.016700
      9 N9         -4.3580   -7.3600    5.3010 na        1 ZGU     -0.123900
     10 C8         -4.1830   -8.7510    5.4210 cc        1 ZGU      0.433400
     11 N7         -2.8840   -9.1390    5.3740 nd        1 ZGU     -0.652000
     12 C4         -3.0790   -6.8270    5.1760 cc        1 ZGU      0.036800
     13 C5         -2.1680   -7.9570    5.2220 cd        1 ZGU      0.187800
     14 N3         -2.6760   -5.5060    5.0370 nc        1 ZGU     -0.601100
     15 C2         -1.3550   -5.3250    4.9160 cd        1 ZGU      0.578800
     16 N2         -0.8300   -3.9960    4.6930 nh        1 ZGU     -0.864800
     17 N1         -0.3920   -6.3550    4.9660 n         1 ZGU     -0.495400
     18 C6         -0.7470   -7.7200    5.1030 c         1 ZGU      0.644000
     19 O6          0.1850   -8.5470    5.1140 o         1 ZGU     -0.661500
     20 OXT       -10.1000   -6.2640    3.4080 o         1 ZGU     -0.915167
     21 H3G1       -7.4990   -5.1960    6.8740 h1        1 ZGU      0.006200
     22 H3G2       -8.6260   -6.6420    7.0530 h1        1 ZGU      0.006200
     23 H2G        -6.0620   -7.0180    7.4570 h1        1 ZGU      0.004700
     24 HA         -7.7370   -8.5090    5.7390 ho        1 ZGU      0.515000
     25 H1G1       -6.1600   -6.8500    4.3500 h1        1 ZGU      0.096200
     26 H1G2       -5.4270   -5.5600    5.4290 h1        1 ZGU      0.096200
     27 H8         -5.0710   -9.3960    5.5590 h5        1 ZGU      0.118100
     28 H2N1       -0.4700   -3.6300    5.5550 hn        1 ZGU      0.378300
     29 H2N2       -1.5460   -3.3890    4.3410 hn        1 ZGU      0.378300
     30 H1          0.5660   -6.1380    4.8150 hn        1 ZGU      0.321500
@<TRIPOS>BOND
     1    1    2 1   
     2    1    3 1   
     3    1    4 1   
     4    1   20 1   
     5    4    5 1   
     6    5    6 1   
     7    5   21 1   
     8    5   22 1   
     9    6    7 1   
    10    6    8 1   
    11    6   23 1   
    12    7   24 1   
    13    8    9 1   
    14    8   25 1   
    15    8   26 1   
    16    9   10 1   
    17    9   12 1   
    18   10   11 2   
    19   10   27 1   
    20   11   13 1   
    21   12   13 2   
    22   12   14 1   
    23   13   18 1   
    24   14   15 2   
    25   15   16 1   
    26   15   17 1   
    27   16   28 1   
    28   16   29 1   
    29   17   18 1   
    30   17   30 1   
    31   18   19 2   
@<TRIPOS>SUBSTRUCTURE
     1 ZGU         1 TEMP              0 ****  ****    0 ROOT
