@<TRIPOS>MOLECULE
ZGU
   30    26     1     0     0
SMALL
bcc


@<TRIPOS>ATOM
      1 P           3.2260   -4.2990    1.5150 p3        1 ZGU      2.524000
      2 O1P         3.0300   -4.9730    0.1790 os        1 ZGU     -1.258000
      3 O2P         4.6690   -4.3550    1.8930 o         1 ZGU     -1.232500
      4 O3G         2.7640   -2.7880    1.4170 os        1 ZGU     -0.733000
      5 C3G         1.4070   -2.5120    1.0780 c3        1 ZGU      0.031000
      6 C2G         1.1780   -1.0240    1.0900 c3        1 ZGU     -0.010000
      7 O2G         2.1080   -0.4070    0.2690 oh        1 ZGU     -0.365000
      8 C1G        -0.2630   -0.7130    0.5730 c3        1 ZGU     -0.115000
      9 N9         -0.4760    0.6800    0.5860 n3        1 ZGU     -0.067000
     10 C8         -0.3300    1.4480    1.7020 c1        1 ZGU     -0.029000
     11 N7         -0.8740    2.6870    1.4420 n2        1 ZGU     -0.148000
     12 C4         -1.1070    1.4340   -0.3650 c1        1 ZGU     -0.024000
     13 C5         -1.3510    2.6770    0.1720 c1        1 ZGU     -0.220000
     14 N3         -1.5240    1.1350   -1.7320 n1        1 ZGU     -0.169000
     15 C2         -2.1920    2.1570   -2.5340 c1        1 ZGU      0.109000
     16 N2         -2.5650    1.8710   -3.9090 n2        1 ZGU     -0.301000
     17 N1         -2.4440    3.4510   -1.9790 n3        1 ZGU     -0.332000
     18 C6         -2.0470    3.7390   -0.6590 c1        1 ZGU      0.388000
     19 O6         -2.2360    4.8810   -0.1830 o         1 ZGU     -0.399000
     20 OXT         2.3960   -5.0180    2.5750 o         1 ZGU     -1.232500
     21 H3G1        1.2100   -2.8750    0.1600 h1        1 ZGU      0.051000
     22 H3G2        0.8110   -2.9390    1.7340 h1        1 ZGU      0.051000
     23 H2G         1.2760   -0.6910    1.9920 h1        1 ZGU      0.053000
     24 HA          2.8280   -0.1440    0.7680 ho        1 ZGU      0.241000
     25 H1G1       -0.3640   -1.0540   -0.3530 h1        1 ZGU      0.154500
     26 H1G2       -0.9200   -1.1470    1.1550 h1        1 ZGU      0.154500
     27 H8          0.0450    1.1500    2.5650 DU        1 ZGU      0.321000
     28 H2N1       -2.8860    2.5290   -4.4340 hn        1 ZGU      0.165000
     29 H2N2       -2.5090    1.0030   -4.2340 hn        1 ZGU      0.165000
     30 H1         -2.8620    4.0950   -2.4850 hn        1 ZGU      0.229000
@<TRIPOS>BOND
     1    1    3 1   
     2    1    4 1   
     3    1   20 1   
     4    4    5 1   
     5    5    6 1   
     6    5   21 1   
     7    5   22 1   
     8    6    7 1   
     9    6    8 1   
    10    6   23 1   
    11    7   24 1   
    12    8    9 1   
    13    8   25 1   
    14    8   26 1   
    15    9   10 1   
    16    9   12 1   
    17   10   11 1   
    18   11   13 1   
    19   12   13 1   
    20   14   15 1   
    21   15   17 1   
    22   16   28 1   
    23   16   29 1   
    24   17   18 1   
    25   17   30 1   
    26   18   19 1   
@<TRIPOS>SUBSTRUCTURE
     1 ZGU         1 TEMP              0 ****  ****    0 ROOT
