@<TRIPOS>MOLECULE
ZH1
   50    52     1     0     0
SMALL
bcc


@<TRIPOS>ATOM
      1 C1          0.6510   -1.5300    1.2050 ca        1 ZH1     -0.146000
      2 C2          1.5610   -0.8980    0.3600 ca        1 ZH1     -0.087000
      3 C3          4.0390    0.3230   -0.8100 ca        1 ZH1     -0.109500
      4 C4          2.8620    2.4190   -0.5050 ca        1 ZH1     -0.109500
      5 C5          0.2060   -0.8940    2.3620 ca        1 ZH1     -0.072000
      6 C6          4.9490    0.9460   -1.6600 ca        1 ZH1     -0.136500
      7 C7          3.7660    3.0580   -1.3480 ca        1 ZH1     -0.136500
      8 C8          1.5900    1.0280    1.8240 ca        1 ZH1     -0.062000
      9 C9          2.9900    1.0500   -0.2270 cp        1 ZH1     -0.047000
     10 C10         2.0380    0.3860    0.6610 cp        1 ZH1     -0.051000
     11 C11         0.6780    0.3890    2.6700 ca        1 ZH1     -0.134600
     12 C12         4.8050    2.3140   -1.9230 ca        1 ZH1      0.090100
     13 C13         0.1930    1.0360    3.8970 c         1 ZH1      0.644700
     14 C14         7.6870    3.7350   -4.8230 c3        1 ZH1      0.075100
     15 C15         8.3420    2.3450   -4.9260 c3        1 ZH1      0.087100
     16 C16         7.5970    4.1860   -3.3590 c3        1 ZH1      0.092100
     17 C17         7.5680    1.3570   -4.0400 c3        1 ZH1      0.137100
     18 C18         6.9830    3.0780   -2.4790 c3        1 ZH1      0.301900
     19 C19         0.2420    2.9670    5.2870 c3        1 ZH1      0.127700
     20 C20         8.2300   -0.0200   -4.0300 c3        1 ZH1      0.135400
     21 O21        -0.5880    0.5810    4.7390 o         1 ZH1     -0.543000
     22 O22         7.5980    1.8250   -2.6860 os        1 ZH1     -0.436600
     23 O23         8.4060    4.6580   -5.6140 oh        1 ZH1     -0.594800
     24 O24         8.3020    1.8580   -6.2550 oh        1 ZH1     -0.592800
     25 O25         8.8750    4.5410   -2.8660 oh        1 ZH1     -0.591800
     26 O26         7.2580   -0.9370   -3.5510 oh        1 ZH1     -0.601800
     27 O27         5.6180    2.9570   -2.8530 os        1 ZH1     -0.364900
     28 O28         0.6850    2.3000    4.1040 os        1 ZH1     -0.439900
     29 H1          0.2810   -2.5370    0.9580 ha        1 ZH1      0.141000
     30 H2          1.9030   -1.4050   -0.5560 ha        1 ZH1      0.142000
     31 H3          4.1470   -0.7500   -0.5930 ha        1 ZH1      0.140000
     32 H4          2.0370    2.9930   -0.0570 ha        1 ZH1      0.140000
     33 H5         -0.5120   -1.3850    3.0390 ha        1 ZH1      0.158000
     34 H6          5.7760    0.3800   -2.1240 ha        1 ZH1      0.162000
     35 H7          3.6640    4.1280   -1.5780 ha        1 ZH1      0.162000
     36 H8          1.9590    2.0350    2.0790 ha        1 ZH1      0.158000
     37 H14         6.6540    3.7000   -5.2720 h1        1 ZH1      0.109700
     38 H15         9.4170    2.4070   -4.5930 h1        1 ZH1      0.039700
     39 H16         6.9870    5.1280   -3.2830 h1        1 ZH1      0.110700
     40 H17         6.5010    1.2740   -4.3860 h1        1 ZH1      0.094700
     41 H18         7.1210    3.2910   -1.3820 h2        1 ZH1      0.102700
     42 H19         0.7640    3.9540    5.2430 h1        1 ZH1      0.051700
     43 H19A        0.5440    2.3830    6.1900 h1        1 ZH1      0.051700
     44 H19B       -0.8670    3.0880    5.2640 h1        1 ZH1      0.051700
     45 H20         9.1270   -0.0200   -3.3560 h1        1 ZH1      0.046700
     46 H20A        8.5320   -0.2830   -5.0790 h1        1 ZH1      0.046700
     47 HO23        9.1750    4.9470   -5.1010 ho        1 ZH1      0.417000
     48 HO24        8.4910    2.6120   -6.8320 ho        1 ZH1      0.425000
     49 HO25        9.3750    3.7220   -2.7380 ho        1 ZH1      0.412000
     50 HO26        7.6810   -1.8030   -3.5400 ho        1 ZH1      0.405000
@<TRIPOS>BOND
     1    1    2 ar  
     2    1    5 ar  
     3    1   29 1   
     4    2   10 ar  
     5    2   30 1   
     6    3    6 ar  
     7    3    9 ar  
     8    3   31 1   
     9    4    7 ar  
    10    4    9 ar  
    11    4   32 1   
    12    5   11 ar  
    13    5   33 1   
    14    6   12 ar  
    15    6   34 1   
    16    7   12 ar  
    17    7   35 1   
    18    8   10 ar  
    19    8   11 ar  
    20    8   36 1   
    21    9   10 1   
    22   11   13 1   
    23   12   27 1   
    24   13   21 2   
    25   13   28 1   
    26   14   15 1   
    27   14   16 1   
    28   14   23 1   
    29   14   37 1   
    30   15   17 1   
    31   15   24 1   
    32   15   38 1   
    33   16   18 1   
    34   16   25 1   
    35   16   39 1   
    36   17   20 1   
    37   17   22 1   
    38   17   40 1   
    39   18   22 1   
    40   18   27 1   
    41   18   41 1   
    42   19   28 1   
    43   19   42 1   
    44   19   43 1   
    45   19   44 1   
    46   20   26 1   
    47   20   45 1   
    48   20   46 1   
    49   23   47 1   
    50   24   48 1   
    51   25   49 1   
    52   26   50 1   
@<TRIPOS>SUBSTRUCTURE
     1 ZH1         1 TEMP              0 ****  ****    0 ROOT
