@<TRIPOS>MOLECULE
ZH1
   50    52     1     0     0
SMALL
bcc


@<TRIPOS>ATOM
      1 C1          5.1770    1.9610    1.4460 ca        1 ZH1     -0.147000
      2 C2          3.7950    1.9300    1.2740 ca        1 ZH1     -0.088000
      3 C3          1.0250    2.1390    0.1330 ca        1 ZH1     -0.091000
      4 C4          1.0760   -0.2810    0.1910 ca        1 ZH1     -0.091000
      5 C5          5.9910    1.0480    0.7770 ca        1 ZH1     -0.069000
      6 C6         -0.3530    2.1160   -0.0480 ca        1 ZH1     -0.165000
      7 C7         -0.3050   -0.3220    0.0230 ca        1 ZH1     -0.165000
      8 C8          4.0210    0.0600   -0.2430 ca        1 ZH1     -0.066000
      9 C9          1.7540    0.9450    0.2480 cp        1 ZH1     -0.064000
     10 C10         3.2040    0.9800    0.4280 cp        1 ZH1     -0.047000
     11 C11         5.4100    0.0960   -0.0690 ca        1 ZH1     -0.133600
     12 C12        -1.0140    0.8780   -0.1030 ca        1 ZH1      0.119100
     13 C13         6.2280   -0.8870   -0.7930 c         1 ZH1      0.644700
     14 C14        -5.3880    0.6850   -0.4630 c3        1 ZH1      0.115100
     15 C15        -5.5300   -0.5230    0.4790 c3        1 ZH1      0.090100
     16 C16        -4.3140    0.4080   -1.5230 c3        1 ZH1      0.093100
     17 C17        -4.1680   -0.8320    1.1110 c3        1 ZH1      0.106100
     18 C18        -3.0220   -0.1500   -0.8890 c3        1 ZH1      0.307900
     19 C19         8.4140   -1.7020   -1.2610 c3        1 ZH1      0.127700
     20 O21         5.8450   -1.7830   -1.5510 o         1 ZH1     -0.544000
     21 O22        -3.2160   -1.1440    0.0850 os        1 ZH1     -0.437600
     22 O23        -6.6340    0.9980   -1.0490 oh        1 ZH1     -0.594800
     23 O24        -6.4360   -0.2400    1.5310 oh        1 ZH1     -0.593800
     24 O25        -4.8630   -0.5430   -2.4200 oh        1 ZH1     -0.596800
     25 O27        -2.3930    0.9450   -0.2300 os        1 ZH1     -0.360900
     26 O28         7.5770   -0.7670   -0.5790 os        1 ZH1     -0.438900
     27 H1          5.6290    2.7080    2.1150 ha        1 ZH1      0.141000
     28 H2          3.1580    2.6500    1.8120 ha        1 ZH1      0.141000
     29 H3          1.5510    3.1050    0.1750 ha        1 ZH1      0.141000
     30 H4          1.6390   -1.2220    0.2940 ha        1 ZH1      0.141000
     31 H5          7.0840    1.0680    0.9090 ha        1 ZH1      0.156000
     32 H6         -0.9290    3.0470   -0.1390 ha        1 ZH1      0.152000
     33 H7         -0.8370   -1.2860    0.0070 ha        1 ZH1      0.152000
     34 H8          3.5800   -0.6930   -0.9180 ha        1 ZH1      0.159000
     35 H14        -5.1030    1.6030    0.1250 h1        1 ZH1      0.104700
     36 H15        -5.9000   -1.4120   -0.1060 h1        1 ZH1      0.061700
     37 H16        -4.0700    1.3620   -2.0680 h1        1 ZH1      0.072700
     38 H17        -3.7990    0.0520    1.6990 h1        1 ZH1      0.083700
     39 H18        -2.3590   -0.6310   -1.6630 h2        1 ZH1      0.087700
     40 H19         8.1590   -2.7420   -0.9450 h1        1 ZH1      0.051700
     41 H19A        8.2830   -1.5960   -2.3650 h1        1 ZH1      0.051700
     42 H19B        9.4450   -1.4150   -0.9400 h1        1 ZH1      0.051700
     43 HO23       -6.8480    0.2920   -1.6750 ho        1 ZH1      0.421000
     44 HO24       -7.1880    0.2200    1.1320 ho        1 ZH1      0.421000
     45 HO25       -4.2550   -0.6170   -3.1660 ho        1 ZH1      0.415000
     46 HO26       -2.3260   -2.3330    2.0530 ho        1 ZH1      0.407000
     47 C20        -4.2380   -2.0780    1.9980 c3        1 ZH1      0.140400
     48 O26        -3.0340   -2.2730    2.7070 oh        1 ZH1     -0.593800
     49 H20        -5.0280   -1.9240    2.7810 h1        1 ZH1      0.064700
     50 H20A       -4.4740   -2.9790    1.3740 h1        1 ZH1      0.064700
@<TRIPOS>BOND
     1    1    2 ar  
     2    1    5 ar  
     3    1   27 1   
     4    2   10 ar  
     5    2   28 1   
     6    3    6 ar  
     7    3    9 ar  
     8    3   29 1   
     9    4    7 ar  
    10    4    9 ar  
    11    4   30 1   
    12    5   11 ar  
    13    5   31 1   
    14    6   12 ar  
    15    6   32 1   
    16    7   12 ar  
    17    7   33 1   
    18    8   10 ar  
    19    8   11 ar  
    20    8   34 1   
    21    9   10 1   
    22   11   13 1   
    23   12   25 1   
    24   13   20 2   
    25   13   26 1   
    26   14   15 1   
    27   14   16 1   
    28   14   22 1   
    29   14   35 1   
    30   15   17 1   
    31   15   23 1   
    32   15   36 1   
    33   16   18 1   
    34   16   24 1   
    35   16   37 1   
    36   17   21 1   
    37   17   38 1   
    38   17   47 1   
    39   18   21 1   
    40   18   25 1   
    41   18   39 1   
    42   19   26 1   
    43   19   40 1   
    44   19   41 1   
    45   19   42 1   
    46   22   43 1   
    47   23   44 1   
    48   24   45 1   
    49   46   48 1   
    50   47   48 1   
    51   47   49 1   
    52   47   50 1   
@<TRIPOS>SUBSTRUCTURE
     1 ZH1         1 TEMP              0 ****  ****    0 ROOT
