@<TRIPOS>MOLECULE
ZH2
   47    48     1     0     0
SMALL
bcc


@<TRIPOS>ATOM
      1 C10         0.1020   -0.5230    0.2170 ca        1 ZH2     -0.062000
      2 C13        -0.8050    0.2040    3.7380 cg        1 ZH2     -0.074000
      3 C15        -2.0410    0.1110    5.9710 ch        1 ZH2      0.033000
      4 C17        -3.3160    0.0040    8.2410 ca        1 ZH2      0.097000
      5 C20        -4.6880   -0.1170   10.6710 ca        1 ZH2     -0.070400
      6 C22        -3.3500    0.3150   10.6500 ca        1 ZH2     -0.095000
      7 C24         0.9650    1.1070    2.3210 ca        1 ZH2     -0.103000
      8 C26         5.0440    1.2940   -3.0850 c3        1 ZH2      0.136100
      9 C28         4.2900    2.1590   -4.0740 c3        1 ZH2     -0.149100
     10 C02         4.9530   -0.9390   -1.9100 c         1 ZH2      0.533500
     11 N03         5.4480   -1.8970   -2.9470 ne        1 ZH2      0.038900
     12 O04         6.5340   -1.8560   -3.2970 o         1 ZH2     -0.005300
     13 C05         4.1050    0.2350   -2.4370 c3        1 ZH2      0.026500
     14 N06         3.2690    0.8290   -1.3410 n4        1 ZH2     -0.664800
     15 C07         1.8420    0.3160   -1.2770 c         1 ZH2      0.575700
     16 O08         1.3590   -0.0690   -2.3330 o         1 ZH2     -0.423100
     17 C09         1.2080    0.3290    0.0430 ca        1 ZH2     -0.193600
     18 C11        -0.5610   -0.5660    1.4390 ca        1 ZH2     -0.103000
     19 C12        -0.1350    0.2460    2.5030 ca        1 ZH2      0.097000
     20 C14        -1.3850    0.1620    4.7900 ch        1 ZH2      0.006000
     21 C16        -2.6280    0.0630    7.0190 cg        1 ZH2     -0.102000
     22 C18        -4.6560   -0.4240    8.2780 ca        1 ZH2     -0.084500
     23 C19        -5.3450   -0.4860    9.4850 ca        1 ZH2     -0.095000
     24 N21        -5.4030   -0.1900   11.9460 n4        1 ZH2     -0.701000
     25 C23        -2.6730    0.3720    9.4370 ca        1 ZH2     -0.084500
     26 C25         1.6310    1.1480    1.1020 ca        1 ZH2     -0.062000
     27 H10        -0.2410   -1.1560   -0.6210 ha        1 ZH2      0.158500
     28 H22        -2.8240    0.6100   11.5740 ha        1 ZH2      0.165000
     29 H24         1.2980    1.7530    3.1510 ha        1 ZH2      0.174000
     30 H26         5.8780    0.7450   -3.6100 h1        1 ZH2      0.086700
     31 H28         3.4960    2.7580   -3.5670 hc        1 ZH2      0.070700
     32 H28A        5.0000    2.8730   -4.5630 hc        1 ZH2      0.070700
     33 H28B        3.8220    1.5320   -4.8710 hc        1 ZH2      0.070700
     34 H05         3.4040   -0.1470   -3.2450 hx        1 ZH2      0.157700
     35 HN06        3.2500    1.8510   -1.4720 hn        1 ZH2      0.478800
     36 H11        -1.4260   -1.2390    1.5690 ha        1 ZH2      0.174000
     37 H18        -5.1680   -0.7130    7.3440 ha        1 ZH2      0.180500
     38 H19        -6.3960   -0.8240    9.4870 ha        1 ZH2      0.165000
     39 HN21       -5.2780   -1.1240   12.3570 hn        1 ZH2      0.467467
     40 HN2A       -5.0360    0.5150   12.5960 hn        1 ZH2      0.467467
     41 H23        -1.6230    0.7110    9.4150 ha        1 ZH2      0.180500
     42 H25         2.4730    1.8490    0.9950 ha        1 ZH2      0.158500
     43 HO27        6.2480    2.6540   -2.3870 ho        1 ZH2      0.459000
     44 O01         5.0670   -1.1490   -0.7010 o         1 ZH2     -0.469100
     45 H062        3.7370    0.6340   -0.4390 hn        1 ZH2      0.478800
     46 H213       -6.4050   -0.0210   11.7960 hn        1 ZH2      0.467467
     47 O27         5.5680    2.0720   -2.0180 oh        1 ZH2     -0.632800
@<TRIPOS>BOND
     1    1   17 ar  
     2    1   18 ar  
     3    1   27 1   
     4    2   19 1   
     5    2   20 3   
     6    3   20 1   
     7    3   21 3   
     8    4   21 1   
     9    4   22 ar  
    10    4   25 ar  
    11    5    6 ar  
    12    5   23 ar  
    13    5   24 1   
    14    6   25 ar  
    15    6   28 1   
    16    7   19 ar  
    17    7   26 ar  
    18    7   29 1   
    19    8    9 1   
    20    8   13 1   
    21    8   30 1   
    22    8   47 1   
    23    9   31 1   
    24    9   32 1   
    25    9   33 1   
    26   10   11 1   
    27   10   13 1   
    28   10   44 2   
    29   11   12 2   
    30   13   14 1   
    31   13   34 1   
    32   14   15 1   
    33   14   35 1   
    34   14   45 1   
    35   15   16 2   
    36   15   17 1   
    37   17   26 ar  
    38   18   19 ar  
    39   18   36 1   
    40   22   23 ar  
    41   22   37 1   
    42   23   38 1   
    43   24   39 1   
    44   24   40 1   
    45   24   46 1   
    46   25   41 1   
    47   26   42 1   
    48   43   47 1   
@<TRIPOS>SUBSTRUCTURE
     1 ZH2         1 TEMP              0 ****  ****    0 ROOT
