@<TRIPOS>MOLECULE
ZH2
   49    50     1     0     0
SMALL
bcc


@<TRIPOS>ATOM
      1 C10         0.2240   -0.3900    0.2550 ca        1 ZH2     -0.035000
      2 C13        -0.3380   -0.3010    3.9030 cg        1 ZH2     -0.267000
      3 C15        -1.5260   -0.4480    6.1520 ch        1 ZH2     -0.208000
      4 C17        -2.7550   -0.6050    8.4390 ca        1 ZH2     -0.143000
      5 C20        -4.0970   -0.7770   10.9270 ca        1 ZH2      0.264600
      6 C22        -4.7890   -1.0120    9.7020 ca        1 ZH2     -0.235500
      7 C24         1.6790    0.0980    2.5960 ca        1 ZH2     -0.146500
      8 C26         4.3770    1.8020   -3.1610 c3        1 ZH2      0.140100
      9 C28         3.2120    2.6960   -2.8020 c3        1 ZH2     -0.165100
     10 C02         5.6290   -0.3400   -2.6120 c         1 ZH2      0.522100
     11 N03         6.4920   -0.1010   -3.8340 ny        1 ZH2     -0.434300
     12 O04         7.4420   -1.0470   -4.0100 oh        1 ZH2     -0.328300
     13 C05         4.2680    0.3600   -2.5730 c3        1 ZH2      0.048500
     14 N06         3.7040    0.3170   -1.1950 ny        1 ZH2     -0.701800
     15 C07         2.1620   -0.0220   -1.1360 c         1 ZH2      0.598700
     16 O08         1.6740   -0.1990   -2.2440 o         1 ZH2     -0.475100
     17 C09         1.6070   -0.0680    0.1780 ca        1 ZH2     -0.275600
     18 C11        -0.4140   -0.4660    1.4750 ca        1 ZH2     -0.146500
     19 C12         0.2950   -0.2250    2.6780 ca        1 ZH2      0.230000
     20 C14        -0.9030   -0.3710    4.9730 ch        1 ZH2      0.204000
     21 C16        -2.0970   -0.5210    7.2180 cg        1 ZH2      0.132000
     22 C18        -2.0620   -0.3710    9.6470 ca        1 ZH2     -0.008500
     23 C19        -2.7080   -0.4530   10.8630 ca        1 ZH2     -0.235500
     24 N21        -4.7420   -0.8590   12.1250 nv        1 ZH2     -0.854200
     25 C23        -4.1290   -0.9260    8.4950 ca        1 ZH2     -0.008500
     26 C25         2.3170    0.1740    1.3800 ca        1 ZH2     -0.035000
     27 H1         -0.3380   -0.5820   -0.6780 ha        1 ZH2      0.141500
     28 H2         -5.8610   -1.2640    9.7190 ha        1 ZH2      0.150000
     29 H3          2.2340    0.2860    3.5320 ha        1 ZH2      0.182000
     30 H4          4.4240    1.6910   -4.2860 h1        1 ZH2      0.082700
     31 H5          3.1920    3.5760   -3.4980 hc        1 ZH2      0.093700
     32 H6          2.2420    2.1500   -2.9170 hc        1 ZH2      0.093700
     33 H7          3.3000    3.0950   -1.7610 hc        1 ZH2      0.093700
     34 H8          5.9150   -0.1360   -4.7030 hn        1 ZH2      0.510300
     35 H9          7.9240   -1.2010   -3.1590 ho        1 ZH2      0.496000
     36 H10         3.5630   -0.2330   -3.2530 hx        1 ZH2      0.188700
     37 H11         4.1810   -0.3970   -0.6280 hn        1 ZH2      0.469800
     38 H12        -1.4880   -0.7180    1.5240 ha        1 ZH2      0.182000
     39 H13        -0.9900   -0.1190    9.6160 ha        1 ZH2      0.143000
     40 H14        -2.1460   -0.2660   11.7910 ha        1 ZH2      0.150000
     41 H15        -5.7050   -1.0860   12.1600 hn        1 ZH2      0.445800
     42 H16        -4.2540   -0.6960   12.9690 hn        1 ZH2      0.445800
     43 H17        -4.6790   -1.1110    7.5580 ha        1 ZH2      0.143000
     44 H18         3.3880    0.4270    1.3770 ha        1 ZH2      0.141500
     45 H19         5.5930    3.2620   -2.6500 ho        1 ZH2      0.485000
     46 O01         6.0970   -1.0740   -1.7570 o         1 ZH2     -0.383100
     47 H032        6.9250    0.8510   -3.7540 hn        1 ZH2      0.510300
     48 H062        3.8400    1.2300   -0.7450 hn        1 ZH2      0.469800
     49 O27         5.6270    2.2940   -2.7070 oh        1 ZH2     -0.669800
@<TRIPOS>BOND
     1    1   17 ar  
     2    1   18 ar  
     3    1   27 1   
     4    2   19 1   
     5    2   20 3   
     6    3   20 1   
     7    3   21 3   
     8    4   21 1   
     9    4   22 ar  
    10    4   25 ar  
    11    5    6 ar  
    12    5   23 ar  
    13    5   24 1   
    14    6   25 ar  
    15    6   28 1   
    16    7   19 ar  
    17    7   26 ar  
    18    7   29 1   
    19    8    9 1   
    20    8   13 1   
    21    8   30 1   
    22    8   49 1   
    23    9   31 1   
    24    9   32 1   
    25    9   33 1   
    26   10   11 1   
    27   10   13 1   
    28   10   46 2   
    29   11   12 1   
    30   11   34 1   
    31   11   47 1   
    32   12   35 1   
    33   13   14 1   
    34   13   36 1   
    35   14   15 1   
    36   14   37 1   
    37   14   48 1   
    38   15   16 2   
    39   15   17 1   
    40   17   26 ar  
    41   18   19 ar  
    42   18   38 1   
    43   22   23 ar  
    44   22   39 1   
    45   23   40 1   
    46   24   41 1   
    47   24   42 1   
    48   25   43 1   
    49   26   44 1   
    50   45   49 1   
@<TRIPOS>SUBSTRUCTURE
     1 ZH2         1 TEMP              0 ****  ****    0 ROOT
