@<TRIPOS>MOLECULE
ZH2
   45    37     1     0     0
SMALL
bcc


@<TRIPOS>ATOM
      1 C10         0.3900   -0.4910   -2.0640 c1        1 ZH2     -0.110500
      2 C13        -0.2580   -0.2880    1.6640 c1        1 ZH2     -0.057500
      3 C15        -1.5290    0.0370    4.0370 c1        1 ZH2     -0.073000
      4 C17        -2.7990    0.3630    6.4090 c1        1 ZH2     -0.040000
      5 C20        -4.0960    0.6940    8.8380 c1        1 ZH2      0.088000
      6 C22        -4.3980   -0.3940    8.0330 c2        1 ZH2     -0.204000
      7 C24         1.8350   -0.5710    0.3020 c1        1 ZH2     -0.116000
      8 C26         1.8140   -0.6940   -7.0130 c3        1 ZH2      0.021000
      9 C28         2.9010   -1.0370   -8.0080 c3        1 ZH2     -0.253000
     10 O01         1.3070    1.9550   -6.5870 o         1 ZH2     -0.262000
     11 C02         2.2680    1.5080   -5.9930 c1        1 ZH2      0.127000
     12 N03         3.2660    2.3860   -5.4980 n2        1 ZH2      0.184000
     13 O04         3.1550    3.5930   -5.6610 o         1 ZH2     -0.124000
     14 C05         2.4240    0.0140   -5.8250 c2        1 ZH2     -0.050000
     15 N06         1.7640   -0.4010   -4.6360 n         1 ZH2     -0.360000
     16 C07         2.4990   -0.5460   -3.4290 c2        1 ZH2      0.340000
     17 O08         3.7110   -0.6260   -3.4620 o         1 ZH2     -0.349000
     18 C09         1.7730   -0.5910   -2.1000 c1        1 ZH2     -0.118000
     19 C11        -0.2700   -0.4300   -0.8450 c1        1 ZH2     -0.110500
     20 C12         0.4530   -0.4700    0.3380 c1        1 ZH2      0.061000
     21 C14        -0.8180   -0.1450    2.7110 c1        1 ZH2     -0.057500
     22 C16        -2.0890    0.1810    5.0830 c1        1 ZH2     -0.043000
     23 C18        -2.4980    1.4510    7.2140 c1        1 ZH2     -0.056000
     24 C19        -3.1460    1.6170    8.4280 c1        1 ZH2     -0.203000
     25 N21        -4.7790    0.8780   10.0680 n2        1 ZH2     -0.337000
     26 C23        -3.7500   -0.5590    6.8190 c1        1 ZH2     -0.056000
     27 C25         2.4950   -0.6310   -0.9170 c1        1 ZH2     -0.076000
     28 O27         1.1820   -1.8750   -6.5820 oh        1 ZH2     -0.325000
     29 H10        -0.1190   -0.4630   -2.8960 ha        1 ZH2      0.145000
     30 H22        -5.0680   -1.0430    8.3220 ha        1 ZH2      0.136000
     31 H24         2.3450   -0.5990    1.1340 ha        1 ZH2      0.150000
     32 H26         1.1560   -0.1080   -7.4380 h1        1 ZH2      0.133000
     33 H28         2.6380   -1.8330   -8.5160 hc        1 ZH2      0.096000
     34 H28A        3.7370   -1.2160   -7.5290 hc        1 ZH2      0.096000
     35 H28B        3.0300   -0.2850   -8.6220 hc        1 ZH2      0.096000
     36 H05         3.3730   -0.2100   -5.7650 h4        1 ZH2      0.158000
     37 HN06        0.8720   -0.5950   -4.6540 hn        1 ZH2      0.235000
     38 H11        -1.2430   -0.3600   -0.8200 ha        1 ZH2      0.145000
     39 H18        -1.8280    2.1010    6.9250 ha        1 ZH2      0.140000
     40 H19        -2.9330    2.3830    8.9940 ha        1 ZH2      0.136000
     41 HN21       -5.4820    0.3360   10.2860 hn        1 ZH2      0.196000
     42 HN2A       -4.5270    1.5500   10.6340 hn        1 ZH2      0.196000
     43 H23        -3.9620   -1.3250    6.2530 ha        1 ZH2      0.140000
     44 H25         3.4690   -0.7020   -0.9420 ha        1 ZH2      0.159000
     45 HO27        1.7360   -2.5630   -6.6870 ho        1 ZH2      0.206000
@<TRIPOS>BOND
     1    1   19 1   
     2    1   29 1   
     3    2   21 1   
     4    3   22 1   
     5    4   22 1   
     6    4   23 1   
     7    5    6 1   
     8    5   24 1   
     9    6   26 1   
    10    6   30 1   
    11    7   20 1   
    12    7   31 1   
    13    8    9 1   
    14    8   14 1   
    15    8   28 1   
    16    8   32 1   
    17    9   33 1   
    18    9   34 1   
    19    9   35 1   
    20   10   11 1   
    21   11   12 1   
    22   12   13 1   
    23   14   15 1   
    24   14   36 1   
    25   15   16 1   
    26   15   37 1   
    27   16   17 1   
    28   16   18 1   
    29   18   27 1   
    30   19   38 1   
    31   23   39 1   
    32   24   40 1   
    33   25   41 1   
    34   25   42 1   
    35   26   43 1   
    36   27   44 1   
    37   28   45 1   
@<TRIPOS>SUBSTRUCTURE
     1 ZH2         1 TEMP              0 ****  ****    0 ROOT
