@<TRIPOS>MOLECULE
ZH2
   45    46     1     0     0
SMALL
bcc


@<TRIPOS>ATOM
      1 C10         1.2770    1.8480   -0.7500 ca        1 ZH2     -0.091500
      2 C13        -2.0670    0.3050   -0.3190 cg        1 ZH2     -0.107000
      3 C15        -4.5990    0.0460   -0.1440 ch        1 ZH2     -0.073000
      4 C17        -7.1840   -0.2180    0.0340 ca        1 ZH2     -0.044000
      5 C20        -9.9890   -0.5050    0.2290 ca        1 ZH2      0.169600
      6 C22        -9.1310   -1.6190    0.4060 ca        1 ZH2     -0.203500
      7 C24         0.1650   -0.6720   -0.2730 ca        1 ZH2     -0.116000
      8 C26         6.5950    0.5720    1.3160 c3        1 ZH2      0.141100
      9 C28         6.5030    2.0660    1.5520 c3        1 ZH2     -0.130100
     10 C02         6.2710   -1.2410   -0.3740 c         1 ZH2      0.543500
     11 N03         7.5780   -1.3120   -1.0810 ne        1 ZH2     -0.016100
     12 O04         8.5370   -1.5790   -0.5040 o         1 ZH2     -0.077300
     13 C05         5.8080    0.1710    0.0320 c3        1 ZH2     -0.013300
     14 N06         4.3810    0.2480    0.2030 n         1 ZH2     -0.549900
     15 C07         3.5790    0.9260   -0.7110 c         1 ZH2      0.671700
     16 O08         4.0770    1.7130   -1.5380 o         1 ZH2     -0.590100
     17 C09         2.1070    0.7320   -0.5920 ca        1 ZH2     -0.140600
     18 C11        -0.1040    1.7100   -0.6570 ca        1 ZH2     -0.116000
     19 C12        -0.6730    0.4480   -0.4150 ca        1 ZH2      0.056000
     20 C14        -3.2590    0.1830   -0.2360 ch        1 ZH2     -0.004000
     21 C16        -5.7920   -0.0760   -0.0620 cg        1 ZH2     -0.039000
     22 C18        -8.0290    0.8890   -0.1490 ca        1 ZH2     -0.056000
     23 C19        -9.4060    0.7530   -0.0580 ca        1 ZH2     -0.203500
     24 N21       -11.3640   -0.6300    0.4090 nh        1 ZH2     -0.828200
     25 C23        -7.7560   -1.4710    0.3130 ca        1 ZH2     -0.056000
     26 C25         1.5470   -0.5290   -0.3600 ca        1 ZH2     -0.091500
     27 H10         1.7280    2.8320   -0.9580 ha        1 ZH2      0.151000
     28 H22        -9.5530   -2.6110    0.6280 ha        1 ZH2      0.136000
     29 H24        -0.2750   -1.6640   -0.0950 ha        1 ZH2      0.149000
     30 H26         7.6730    0.2670    1.1800 h1        1 ZH2      0.079700
     31 H28         7.0790    2.3340    2.4700 hc        1 ZH2      0.054367
     32 H28A        6.9280    2.6220    0.6820 hc        1 ZH2      0.054367
     33 H28B        5.4420    2.3840    1.6930 hc        1 ZH2      0.054367
     34 H05         6.1040    0.8970   -0.7890 h1        1 ZH2      0.122700
     35 HN06        3.9740   -0.4880    0.7360 hn        1 ZH2      0.321500
     36 H11        -0.7550    2.5900   -0.7790 ha        1 ZH2      0.149000
     37 H18        -7.5920    1.8760   -0.3680 ha        1 ZH2      0.140000
     38 H19       -10.0460    1.6370   -0.2030 ha        1 ZH2      0.136000
     39 HN21      -11.7270   -1.5490    0.3070 hn        1 ZH2      0.400800
     40 HN2A      -11.9160    0.0810   -0.0120 hn        1 ZH2      0.400800
     41 H23        -7.1030   -2.3460    0.4580 ha        1 ZH2      0.140000
     42 H25         2.1860   -1.4220   -0.2660 ha        1 ZH2      0.151000
     43 HO27        5.3470    0.2160    2.7610 ho        1 ZH2      0.408000
     44 O27         6.1710   -0.1720    2.4400 oh        1 ZH2     -0.588800
     45 O01         5.5690   -2.2480   -0.2460 o         1 ZH2     -0.494100
@<TRIPOS>BOND
     1    1   17 ar  
     2    1   18 ar  
     3    1   27 1   
     4    2   19 1   
     5    2   20 3   
     6    3   20 1   
     7    3   21 3   
     8    4   21 1   
     9    4   22 ar  
    10    4   25 ar  
    11    5    6 ar  
    12    5   23 ar  
    13    5   24 1   
    14    6   25 ar  
    15    6   28 1   
    16    7   19 ar  
    17    7   26 ar  
    18    7   29 1   
    19    8    9 1   
    20    8   13 1   
    21    8   30 1   
    22    8   44 1   
    23    9   31 1   
    24    9   32 1   
    25    9   33 1   
    26   10   11 1   
    27   10   13 1   
    28   10   45 2   
    29   11   12 2   
    30   13   14 1   
    31   13   34 1   
    32   14   15 1   
    33   14   35 1   
    34   15   16 2   
    35   15   17 1   
    36   17   26 ar  
    37   18   19 ar  
    38   18   36 1   
    39   22   23 ar  
    40   22   37 1   
    41   23   38 1   
    42   24   39 1   
    43   24   40 1   
    44   25   41 1   
    45   26   42 1   
    46   43   44 1   
@<TRIPOS>SUBSTRUCTURE
     1 ZH2         1 TEMP              0 ****  ****    0 ROOT
