@<TRIPOS>MOLECULE
ZH4
   45    46     1     0     0
SMALL
bcc


@<TRIPOS>ATOM
      1 C10         1.1840    1.8040   -0.8090 ca        1 ZH4     -0.092000
      2 C13        -2.1030    0.1740   -0.2730 cg        1 ZH4     -0.093000
      3 C15        -4.6230   -0.1580   -0.0500 ch        1 ZH4     -0.052000
      4 C17        -7.1990   -0.5000    0.1790 ca        1 ZH4      0.048000
      5 C20        -9.9620   -0.8760    0.4210 ca        1 ZH4     -0.177000
      6 C21        -9.4710    0.3500   -0.0870 ca        1 ZH4      0.137600
      7 C22        -8.0740    0.5210   -0.2090 ca        1 ZH4     -0.165000
      8 C24         0.1600   -0.7310   -0.2270 ca        1 ZH4     -0.114500
      9 C26         6.5310    0.6300    1.3010 c3        1 ZH4      0.136100
     10 C28         6.1980    2.0130    1.8240 c3        1 ZH4     -0.131100
     11 C02         6.3110   -1.0230   -0.5550 c         1 ZH4      0.544500
     12 N03         7.6620   -0.9730   -1.1780 ne        1 ZH4     -0.020100
     13 O04         8.5880   -1.3080   -0.5830 o         1 ZH4     -0.081300
     14 C05         5.7770    0.3240   -0.0230 c3        1 ZH4      0.035700
     15 N06         4.3510    0.3250    0.1340 n         1 ZH4     -0.547900
     16 C07         3.5140    0.9570   -0.7750 c         1 ZH4      0.675700
     17 O08         3.9740    1.7330   -1.6360 o         1 ZH4     -0.598100
     18 C09         2.0510    0.7210   -0.6250 ca        1 ZH4     -0.134600
     19 C11        -0.1910    1.6270   -0.6900 ca        1 ZH4     -0.114500
     20 C12        -0.7150    0.3570   -0.3950 ca        1 ZH4      0.049000
     21 C14        -3.2890    0.0180   -0.1680 ch        1 ZH4     -0.016000
     22 C16        -5.8100   -0.3150    0.0550 cg        1 ZH4     -0.057000
     23 C18        -7.7040   -1.7080    0.6880 ca        1 ZH4     -0.143000
     24 C19        -9.0800   -1.8800    0.8030 ca        1 ZH4     -0.097000
     25 N23       -10.3450    1.4010   -0.3840 nh        1 ZH4     -0.819200
     26 C25         1.5350   -0.5480   -0.3410 ca        1 ZH4     -0.092000
     27 H10         1.6000    2.7940   -1.0590 ha        1 ZH4      0.152500
     28 H20       -11.0460   -1.0370    0.5240 ha        1 ZH4      0.135000
     29 H22        -7.6620    1.4630   -0.6030 ha        1 ZH4      0.141000
     30 H24        -0.2460   -1.7300   -0.0070 ha        1 ZH4      0.148000
     31 H26         7.6390    0.5620    1.0950 h1        1 ZH4      0.042700
     32 H28         5.1390    2.0570    2.1750 hc        1 ZH4      0.054033
     33 H28A        6.8660    2.2650    2.6830 hc        1 ZH4      0.054033
     34 H28B        6.3430    2.7740    1.0210 hc        1 ZH4      0.054033
     35 H05         6.0520    1.1350   -0.7680 h1        1 ZH4      0.121700
     36 HN06        3.9800   -0.3600    0.7520 hn        1 ZH4      0.332500
     37 H11        -0.8720    2.4800   -0.8320 ha        1 ZH4      0.148000
     38 H18        -7.0140   -2.5080    0.9920 ha        1 ZH4      0.142000
     39 H19        -9.4780   -2.8260    1.2010 ha        1 ZH4      0.135000
     40 HN23      -11.2730    1.1140   -0.6030 hn        1 ZH4      0.391300
     41 HN2A       -9.9790    2.0740   -1.0200 hn        1 ZH4      0.391300
     42 H25         2.2040   -1.4150   -0.2250 ha        1 ZH4      0.152500
     43 HO27        6.4620   -0.0920    3.0990 ho        1 ZH4      0.414000
     44 O27         6.1800   -0.3890    2.2260 oh        1 ZH4     -0.601800
     45 O01         5.6410   -2.0570   -0.5900 o         1 ZH4     -0.487100
@<TRIPOS>BOND
     1    1   18 ar  
     2    1   19 ar  
     3    1   27 1   
     4    2   20 1   
     5    2   21 3   
     6    3   21 1   
     7    3   22 3   
     8    4    7 ar  
     9    4   22 1   
    10    4   23 ar  
    11    5    6 ar  
    12    5   24 ar  
    13    5   28 1   
    14    6    7 ar  
    15    6   25 1   
    16    7   29 1   
    17    8   20 ar  
    18    8   26 ar  
    19    8   30 1   
    20    9   10 1   
    21    9   14 1   
    22    9   31 1   
    23    9   44 1   
    24   10   32 1   
    25   10   33 1   
    26   10   34 1   
    27   11   12 1   
    28   11   14 1   
    29   11   45 2   
    30   12   13 2   
    31   14   15 1   
    32   14   35 1   
    33   15   16 1   
    34   15   36 1   
    35   16   17 2   
    36   16   18 1   
    37   18   26 ar  
    38   19   20 ar  
    39   19   37 1   
    40   23   24 ar  
    41   23   38 1   
    42   24   39 1   
    43   25   40 1   
    44   25   41 1   
    45   26   42 1   
    46   43   44 1   
@<TRIPOS>SUBSTRUCTURE
     1 ZH4         1 TEMP              0 ****  ****    0 ROOT
