@<TRIPOS>MOLECULE
ZH4
   47    48     1     0     0
SMALL
bcc


@<TRIPOS>ATOM
      1 C10        -0.0720   -0.0300    0.1950 ca        1 ZH4     -0.062000
      2 C13        -0.7510    0.4470    3.8100 cg        1 ZH4     -0.076000
      3 C15        -1.9040    0.3610    6.0870 ch        1 ZH4      0.025000
      4 C17        -3.0260    0.2920    8.4380 ca        1 ZH4      0.063000
      5 C20        -4.1880    0.2320   11.0020 ca        1 ZH4     -0.091000
      6 C21        -4.9360   -0.1220    9.8650 ca        1 ZH4     -0.069400
      7 C22        -4.3680   -0.0970    8.5820 ca        1 ZH4     -0.085000
      8 C24         1.1450    1.1260    2.4330 ca        1 ZH4     -0.104000
      9 C26         5.1060    1.0820   -3.0580 c3        1 ZH4      0.136100
     10 C28         4.5560    2.2070   -3.9110 c3        1 ZH4     -0.149100
     11 C02         4.5320   -1.2050   -2.1560 c         1 ZH4      0.533500
     12 N03         4.7940   -2.1110   -3.3170 ne        1 ZH4      0.038900
     13 O04         5.8600   -2.2660   -3.6980 o         1 ZH4     -0.005300
     14 C05         3.9610    0.1820   -2.5090 c3        1 ZH4      0.026500
     15 N06         3.2860    0.8050   -1.3210 n4        1 ZH4     -0.664800
     16 C07         1.7840    0.6010   -1.2620 c         1 ZH4      0.575700
     17 O08         1.2160    0.4560   -2.3360 o         1 ZH4     -0.422100
     18 C09         1.1850    0.5880    0.0750 ca        1 ZH4     -0.193600
     19 C11        -0.7120   -0.0800    1.4290 ca        1 ZH4     -0.104000
     20 C12        -0.1090    0.4950    2.5610 ca        1 ZH4      0.098000
     21 C14        -1.2990    0.4050    4.8790 ch        1 ZH4      0.006000
     22 C16        -2.4340    0.3250    7.1650 cg        1 ZH4     -0.100000
     23 C18        -2.2760    0.6480    9.5740 ca        1 ZH4     -0.048000
     24 C19        -2.8590    0.6150   10.8400 ca        1 ZH4     -0.095000
     25 N23        -6.3370   -0.5170   10.0270 n4        1 ZH4     -0.702000
     26 C25         1.7860    1.1710    1.2020 ca        1 ZH4     -0.062000
     27 H10        -0.5530   -0.4760   -0.6950 ha        1 ZH4      0.158500
     28 H20        -4.6280    0.2120   12.0140 ha        1 ZH4      0.167000
     29 H22        -4.9460   -0.3750    7.6850 ha        1 ZH4      0.164000
     30 H24         1.6180    1.5870    3.3170 ha        1 ZH4      0.173000
     31 H26         5.7940    0.4330   -3.6730 h1        1 ZH4      0.086700
     32 H28         3.9180    2.8980   -3.3090 hc        1 ZH4      0.070700
     33 H28A        5.4030    2.8040   -4.3350 hc        1 ZH4      0.070700
     34 H28B        3.9550    1.8010   -4.7610 hc        1 ZH4      0.070700
     35 H05         3.1870    0.0670   -3.3330 hx        1 ZH4      0.157700
     36 HN06        3.7140    0.4090   -0.4670 hn        1 ZH4      0.479300
     37 H11        -1.6960   -0.5700    1.5160 ha        1 ZH4      0.173000
     38 H18        -1.2210    0.9530    9.4600 ha        1 ZH4      0.180000
     39 H19        -2.2640    0.8950   11.7270 ha        1 ZH4      0.184000
     40 HN23       -6.4360   -1.1080   10.8610 hn        1 ZH4      0.467133
     41 HN2A       -6.6560   -1.0390    9.2030 hn        1 ZH4      0.467133
     42 H25         2.7550    1.6920    1.1410 ha        1 ZH4      0.158500
     43 HO27        6.5890    2.0460   -2.2450 ho        1 ZH4      0.459000
     44 O01         4.6060   -1.5830   -0.9860 o         1 ZH4     -0.469100
     45 H062        3.4860    1.8150   -1.3350 hn        1 ZH4      0.479300
     46 H233       -6.9190    0.3220   10.1400 hn        1 ZH4      0.467133
     47 O27         5.7980    1.5890   -1.9250 oh        1 ZH4     -0.632800
@<TRIPOS>BOND
     1    1   18 ar  
     2    1   19 ar  
     3    1   27 1   
     4    2   20 1   
     5    2   21 3   
     6    3   21 1   
     7    3   22 3   
     8    4    7 ar  
     9    4   22 1   
    10    4   23 ar  
    11    5    6 ar  
    12    5   24 ar  
    13    5   28 1   
    14    6    7 ar  
    15    6   25 1   
    16    7   29 1   
    17    8   20 ar  
    18    8   26 ar  
    19    8   30 1   
    20    9   10 1   
    21    9   14 1   
    22    9   31 1   
    23    9   47 1   
    24   10   32 1   
    25   10   33 1   
    26   10   34 1   
    27   11   12 1   
    28   11   14 1   
    29   11   44 2   
    30   12   13 2   
    31   14   15 1   
    32   14   35 1   
    33   15   16 1   
    34   15   36 1   
    35   15   45 1   
    36   16   17 2   
    37   16   18 1   
    38   18   26 ar  
    39   19   20 ar  
    40   19   37 1   
    41   23   24 ar  
    42   23   38 1   
    43   24   39 1   
    44   25   40 1   
    45   25   41 1   
    46   25   46 1   
    47   26   42 1   
    48   43   47 1   
@<TRIPOS>SUBSTRUCTURE
     1 ZH4         1 TEMP              0 ****  ****    0 ROOT
