@<TRIPOS>MOLECULE
ZH4
   46    47     1     0     0
SMALL
bcc


@<TRIPOS>ATOM
      1 C10         0.1980    0.7240    0.3210 ca        1 ZH4     -0.056500
      2 C13        -0.4880    0.0380    3.8950 cg        1 ZH4     -0.199000
      3 C15        -1.7600   -0.3250    6.0760 ch        1 ZH4     -0.131000
      4 C17        -3.0770   -0.7090    8.2960 ca        1 ZH4      0.012000
      5 C20        -4.5000   -1.1320   10.6660 ca        1 ZH4     -0.163000
      6 C21        -3.0830   -1.1250   10.7010 ca        1 ZH4      0.150600
      7 C22        -2.3790   -0.9010    9.4960 ca        1 ZH4     -0.160000
      8 C24         1.6120    0.1420    2.6630 ca        1 ZH4     -0.125000
      9 C26         4.8260    1.5280   -3.0410 c3        1 ZH4      0.148100
     10 C28         4.8270    1.5280   -4.5540 c3        1 ZH4     -0.144100
     11 C02         5.1690   -0.9410   -2.7060 c         1 ZH4      0.511500
     12 N03         6.2140   -1.0540   -1.6400 ne        1 ZH4     -0.045100
     13 O04         7.3110   -1.2110   -1.9300 o         1 ZH4      0.008700
     14 C05         4.1640    0.2060   -2.5260 c3        1 ZH4     -0.005500
     15 N06         3.6810    0.3200   -1.1160 ny        1 ZH4     -0.661800
     16 C07         2.2440    0.8340   -0.9980 c         1 ZH4      0.593700
     17 O08         1.7860    1.3590   -2.0040 o         1 ZH4     -0.446100
     18 C09         1.6020    0.6130    0.2890 ca        1 ZH4     -0.229600
     19 C11        -0.4930    0.5320    1.5100 ca        1 ZH4     -0.125000
     20 C12         0.2030    0.2350    2.6970 ca        1 ZH4      0.159000
     21 C14        -1.0870   -0.1320    4.9260 ch        1 ZH4      0.114000
     22 C16        -2.3640   -0.5000    7.1020 cg        1 ZH4      0.042000
     23 C18        -4.4800   -0.7250    8.2790 ca        1 ZH4     -0.133000
     24 C19        -5.1750   -0.9370    9.4680 ca        1 ZH4     -0.094000
     25 N23        -2.3990   -1.4150   11.8800 nv        1 ZH4     -0.826200
     26 C25         2.3020    0.3280    1.4760 ca        1 ZH4     -0.056500
     27 H10        -0.3520    0.9650   -0.6060 ha        1 ZH4      0.147500
     28 H20        -5.0740   -1.3020   11.5900 ha        1 ZH4      0.144000
     29 H22        -1.2790   -0.8870    9.4910 ha        1 ZH4      0.141000
     30 H24         2.1610   -0.0770    3.5940 ha        1 ZH4      0.174000
     31 H26         5.8760    1.6020   -2.6340 h1        1 ZH4      0.092700
     32 H28         5.3830    2.4260   -4.9220 hc        1 ZH4      0.076700
     33 H28A        3.7840    1.5680   -4.9550 hc        1 ZH4      0.076700
     34 H28B        5.3270    0.6080   -4.9460 hc        1 ZH4      0.076700
     35 H05         3.2630   -0.0190   -3.1810 hx        1 ZH4      0.147700
     36 HN06        4.2820    0.9930   -0.6200 hn        1 ZH4      0.466300
     37 H11        -1.5930    0.6160    1.5270 ha        1 ZH4      0.174000
     38 H18        -5.0250   -0.5720    7.3370 ha        1 ZH4      0.143000
     39 H19        -6.2760   -0.9500    9.4580 ha        1 ZH4      0.144000
     40 HN23       -2.9160   -1.2740   12.7180 hn        1 ZH4      0.402800
     41 HN2A       -1.4590   -1.0910   11.9190 hn        1 ZH4      0.402800
     42 H25         3.4010    0.2700    1.5020 ha        1 ZH4      0.147500
     43 HO27        3.3970    2.8570   -3.0430 ho        1 ZH4      0.442000
     44 O01         5.0370   -1.7320   -3.6350 o         1 ZH4     -0.401100
     45 H062        3.7350   -0.5880   -0.6450 hn        1 ZH4      0.466300
     46 O27         4.1570    2.6360   -2.4840 oh        1 ZH4     -0.599800
@<TRIPOS>BOND
     1    1   18 ar  
     2    1   19 ar  
     3    1   27 1   
     4    2   20 1   
     5    2   21 3   
     6    3   21 1   
     7    3   22 3   
     8    4    7 ar  
     9    4   22 1   
    10    4   23 ar  
    11    5    6 ar  
    12    5   24 ar  
    13    5   28 1   
    14    6    7 ar  
    15    6   25 1   
    16    7   29 1   
    17    8   20 ar  
    18    8   26 ar  
    19    8   30 1   
    20    9   10 1   
    21    9   14 1   
    22    9   31 1   
    23    9   46 1   
    24   10   32 1   
    25   10   33 1   
    26   10   34 1   
    27   11   12 1   
    28   11   14 1   
    29   11   44 2   
    30   12   13 2   
    31   14   15 1   
    32   14   35 1   
    33   15   16 1   
    34   15   36 1   
    35   15   45 1   
    36   16   17 2   
    37   16   18 1   
    38   18   26 ar  
    39   19   20 ar  
    40   19   37 1   
    41   23   24 ar  
    42   23   38 1   
    43   24   39 1   
    44   25   40 1   
    45   25   41 1   
    46   26   42 1   
    47   43   46 1   
@<TRIPOS>SUBSTRUCTURE
     1 ZH4         1 TEMP              0 ****  ****    0 ROOT
