@<TRIPOS>MOLECULE
ZHH
   25    25     1     0     0
SMALL
bcc


@<TRIPOS>ATOM
      1 N2         -0.0070   -0.1370   -0.0410 nz        1 ZHH     -0.840600
      2 CA          1.4830   -0.0630    0.0420 c3        1 ZHH      0.094800
      3 CB          1.9870    0.0860    1.4790 c3        1 ZHH     -0.036100
      4 CG          3.4730    0.1170    1.4580 ca        1 ZHH     -0.183300
      5 CD2         4.1970   -1.0850    1.4020 ca        1 ZHH     -0.076500
      6 CE2         5.5820   -1.0750    1.4030 ca        1 ZHH     -0.176000
      7 CZ          6.2650    0.1600    1.4670 ca        1 ZHH      0.166100
      8 O1          7.6330    0.0620    1.4580 os        1 ZHH     -0.310900
      9 CF1         8.3650    1.2820    1.5700 c3        1 ZHH      0.106700
     10 CE1         5.5500    1.3640    1.5300 ca        1 ZHH     -0.176000
     11 CD1         4.1580    1.3330    1.5260 ca        1 ZHH     -0.076500
     12 HN21       -0.3500   -0.9400    0.4960 hn        1 ZHH      0.459467
     13 HN22       -0.3020   -0.2380   -1.0170 hn        1 ZHH      0.459467
     14 HA1         1.9020   -1.0070   -0.4120 hx        1 ZHH      0.115700
     15 HA2         1.8190    0.8190   -0.5770 hx        1 ZHH      0.115700
     16 HB1         1.6330   -0.7760    2.1060 hc        1 ZHH      0.068700
     17 HB2         1.5860    1.0320    1.9340 hc        1 ZHH      0.068700
     18 HD2         3.6630   -2.0470    1.3690 ha        1 ZHH      0.131500
     19 HE2         6.1630   -2.0090    1.3630 ha        1 ZHH      0.162000
     20 HF11        9.4310    0.9390    1.5620 h1        1 ZHH      0.057033
     21 HF12        8.1220    1.8000    2.5290 h1        1 ZHH      0.057033
     22 HF13        8.1550    1.9450    0.6960 h1        1 ZHH      0.057033
     23 HE1         6.0740    2.3300    1.5890 ha        1 ZHH      0.162000
     24 HD1         3.5990    2.2800    1.5880 ha        1 ZHH      0.131500
     25 H23        -0.4240    0.7150    0.3470 hn        1 ZHH      0.459467
@<TRIPOS>BOND
     1    1    2 1   
     2    1   12 1   
     3    1   13 1   
     4    1   25 1   
     5    2    3 1   
     6    2   14 1   
     7    2   15 1   
     8    3    4 1   
     9    3   16 1   
    10    3   17 1   
    11    4    5 ar  
    12    4   11 ar  
    13    5    6 ar  
    14    5   18 1   
    15    6    7 ar  
    16    6   19 1   
    17    7    8 1   
    18    7   10 ar  
    19    8    9 1   
    20    9   20 1   
    21    9   21 1   
    22    9   22 1   
    23   10   11 ar  
    24   10   23 1   
    25   11   24 1   
@<TRIPOS>SUBSTRUCTURE
     1 ZHH         1 TEMP              0 ****  ****    0 ROOT
