@<TRIPOS>MOLECULE
ZHH
   24    24     1     0     0
SMALL
bcc


@<TRIPOS>ATOM
      1 N2          1.3840   -2.3850   -3.6780 n3        1 ZHH     -0.905800
      2 CA          1.4050   -2.3040   -2.2420 c3        1 ZHH      0.152800
      3 CB          1.8080   -0.9490   -1.6440 c3        1 ZHH     -0.074100
      4 CG          1.8180   -1.0040   -0.1590 ca        1 ZHH     -0.111300
      5 CD2         0.7930   -0.4020    0.5840 ca        1 ZHH     -0.094500
      6 CE2         0.7990   -0.4450    1.9720 ca        1 ZHH     -0.177000
      7 CZ          1.8520   -1.1030    2.6350 ca        1 ZHH      0.122100
      8 O1          1.7690   -1.0900    4.0140 os        1 ZHH     -0.327900
      9 CF1         2.8140   -1.7550    4.7120 c3        1 ZHH      0.113700
     10 CE1         2.8840   -1.7090    1.9070 ca        1 ZHH     -0.177000
     11 CD1         2.8570   -1.6530    0.5150 ca        1 ZHH     -0.094500
     12 HN21        2.2860   -2.1860   -4.0640 hn        1 ZHH      0.344800
     13 HN22        0.7200   -1.7440   -4.0660 hn        1 ZHH      0.344800
     14 HA1         2.1210   -3.0860   -1.8600 h1        1 ZHH      0.055700
     15 HA2         0.3770   -2.5710   -1.8650 h1        1 ZHH      0.055700
     16 HB1         2.8290   -0.6630   -2.0130 hc        1 ZHH      0.044200
     17 HB2         1.0940   -0.1560   -1.9940 hc        1 ZHH      0.044200
     18 HD2        -0.0290    0.1120    0.0630 ha        1 ZHH      0.132500
     19 HE2        -0.0000    0.0250    2.5610 ha        1 ZHH      0.143000
     20 HF11        3.8000   -1.2760    4.4970 h1        1 ZHH      0.044367
     21 HF12        2.8400   -2.8400    4.4460 h1        1 ZHH      0.044367
     22 HF13        2.5360   -1.6190    5.7880 h1        1 ZHH      0.044367
     23 HE1         3.7100   -2.2240    2.4160 ha        1 ZHH      0.143000
     24 HD1         3.6660   -2.1280   -0.0610 ha        1 ZHH      0.132500
@<TRIPOS>BOND
     1    1    2 1   
     2    1   12 1   
     3    1   13 1   
     4    2    3 1   
     5    2   14 1   
     6    2   15 1   
     7    3    4 1   
     8    3   16 1   
     9    3   17 1   
    10    4    5 ar  
    11    4   11 ar  
    12    5    6 ar  
    13    5   18 1   
    14    6    7 ar  
    15    6   19 1   
    16    7    8 1   
    17    7   10 ar  
    18    8    9 1   
    19    9   20 1   
    20    9   21 1   
    21    9   22 1   
    22   10   11 ar  
    23   10   23 1   
    24   11   24 1   
@<TRIPOS>SUBSTRUCTURE
     1 ZHH         1 TEMP              0 ****  ****    0 ROOT
