@<TRIPOS>MOLECULE
ZHH
   25    25     1     0     0
SMALL
bcc


@<TRIPOS>ATOM
      1 N2         -0.0100   -0.1260   -0.0370 n4        1 ZHH     -0.840600
      2 CA          1.4800   -0.0520    0.0440 c3        1 ZHH      0.094800
      3 CB          1.9880    0.0820    1.4810 c3        1 ZHH     -0.036100
      4 CG          3.4730    0.1130    1.4570 ca        1 ZHH     -0.183300
      5 CD2         4.1980   -1.0880    1.3840 ca        1 ZHH     -0.076500
      6 CE2         5.5830   -1.0780    1.3830 ca        1 ZHH     -0.176000
      7 CZ          6.2660    0.1560    1.4600 ca        1 ZHH      0.166100
      8 O1          7.6340    0.0580    1.4470 os        1 ZHH     -0.310900
      9 CF1         8.3660    1.2770    1.5720 c3        1 ZHH      0.106700
     10 CE1         5.5510    1.3590    1.5400 ca        1 ZHH     -0.176000
     11 CD1         4.1590    1.3280    1.5390 ca        1 ZHH     -0.076500
     12 HN21       -0.3510   -0.9340    0.4930 hn        1 ZHH      0.459467
     13 HN22       -0.3060   -0.2170   -1.0130 hn        1 ZHH      0.459467
     14 HA1         1.8990   -0.9910   -0.4220 hx        1 ZHH      0.115700
     15 HA2         1.8150    0.8370   -0.5660 hx        1 ZHH      0.115700
     16 HB1         1.6350   -0.7870    2.0990 hc        1 ZHH      0.068700
     17 HB2         1.5880    1.0220    1.9470 hc        1 ZHH      0.068700
     18 HD2         3.6640   -2.0490    1.3400 ha        1 ZHH      0.131500
     19 HE2         6.1630   -2.0120    1.3300 ha        1 ZHH      0.162000
     20 HF11        9.4330    0.9340    1.5580 h1        1 ZHH      0.057033
     21 HF12        8.1250    1.7820    2.5390 h1        1 ZHH      0.057033
     22 HF13        8.1540    1.9500    0.7070 h1        1 ZHH      0.057033
     23 HE1         6.0750    2.3240    1.6100 ha        1 ZHH      0.162000
     24 HD1         3.6010    2.2740    1.6140 ha        1 ZHH      0.131500
     25 H23        -0.4260    0.7220    0.3610 hn        1 ZHH      0.459467
@<TRIPOS>BOND
     1    1    2 1   
     2    1   12 1   
     3    1   13 1   
     4    1   25 1   
     5    2    3 1   
     6    2   14 1   
     7    2   15 1   
     8    3    4 1   
     9    3   16 1   
    10    3   17 1   
    11    4    5 ar  
    12    4   11 ar  
    13    5    6 ar  
    14    5   18 1   
    15    6    7 ar  
    16    6   19 1   
    17    7    8 1   
    18    7   10 ar  
    19    8    9 1   
    20    9   20 1   
    21    9   21 1   
    22    9   22 1   
    23   10   11 ar  
    24   10   23 1   
    25   11   24 1   
@<TRIPOS>SUBSTRUCTURE
     1 ZHH         1 TEMP              0 ****  ****    0 ROOT
