@<TRIPOS>MOLECULE
ZHK
   50    52     1     0     0
SMALL
bcc


@<TRIPOS>ATOM
      1 C1          0.0460    2.9920    1.4930 c3        1 ZHK     -0.108100
      2 C2          0.1770    1.9520    0.3970 c3        1 ZHK     -0.091600
      3 C3          0.3430    0.5860    1.0120 c         1 ZHK      0.574100
      4 O4         -0.4990   -0.0500    1.6190 o         1 ZHK     -0.390100
      5 N5          1.7020   -0.0970    0.8340 n4        1 ZHK     -0.580200
      6 C6          2.2320   -0.7050    2.0530 ca        1 ZHK      0.078600
      7 C7          1.5690   -1.7980    2.6390 ca        1 ZHK     -0.117500
      8 C8          2.0830   -2.3660    3.8030 ca        1 ZHK      0.024000
      9 C9          3.2580   -1.8770    4.4020 ca        1 ZHK     -0.470500
     10 C10         3.9090   -0.7880    3.7920 ca        1 ZHK      0.024000
     11 C11         3.4120   -0.2010    2.6320 ca        1 ZHK     -0.117500
     12 S12         3.7630   -2.4500    5.8560 sy        1 ZHK      1.464200
     13 O13         4.6640   -1.6150    6.4730 o         1 ZHK     -0.532800
     14 O14         2.8000   -3.1850    6.5050 o         1 ZHK     -0.532800
     15 N15         4.9100   -3.8270    5.2660 n4        1 ZHK     -0.801500
     16 S16         1.4710    2.5500   -0.6550 ss        1 ZHK     -0.113300
     17 C17         1.2740    1.5990   -2.1190 cc        1 ZHK      0.494800
     18 N18         1.3640    2.2270   -3.3320 n         1 ZHK     -0.437400
     19 C20         1.2530    1.4670   -4.5400 c         1 ZHK      0.695700
     20 O21         1.3610    2.0700   -5.6080 o         1 ZHK     -0.504500
     21 C22         1.0160    0.0190   -4.3520 cc        1 ZHK     -0.050900
     22 C23         0.9280   -0.5090   -3.0790 cd        1 ZHK      0.260400
     23 N24         1.0730    0.2940   -1.9490 nd        1 ZHK     -0.752300
     24 C25         0.6970   -1.9410   -2.8230 ca        1 ZHK     -0.071800
     25 C26        -0.3570   -2.6190   -3.4480 ca        1 ZHK     -0.074000
     26 C27        -0.5750   -3.9680   -3.1810 ca        1 ZHK     -0.095000
     27 C28         0.2490   -4.6570   -2.2810 ca        1 ZHK      0.044400
     28 C29         1.3080   -3.9750   -1.6580 ca        1 ZHK      0.002400
     29 C30         1.5340   -2.6250   -1.9330 ca        1 ZHK     -0.128000
     30 CL1         2.3430   -4.7650   -0.5670 cl        1 ZHK     -0.082400
     31 CL2        -0.0420   -6.2880   -1.9680 cl        1 ZHK     -0.008400
     32 C33         0.9030   -0.7620   -5.5250 cg        1 ZHK      0.166500
     33 N34         0.8210   -1.3910   -6.5010 n1        1 ZHK     -0.255800
     34 H1          1.0190    3.1600    2.0140 hc        1 ZHK      0.091700
     35 H2         -0.2930    3.9630    1.0460 hc        1 ZHK      0.091700
     36 H3         -0.7210    2.6720    2.2440 hc        1 ZHK      0.091700
     37 H4         -0.7990    1.8940   -0.1760 h1        1 ZHK      0.167700
     38 H5          1.5790   -0.8420    0.1180 hn        1 ZHK      0.494800
     39 H6          0.6300   -2.2000    2.2090 ha        1 ZHK      0.197500
     40 H7          1.5280   -3.2050    4.2730 ha        1 ZHK      0.198000
     41 H8          4.8250   -0.3640    4.2530 ha        1 ZHK      0.198000
     42 H9          3.9550    0.6570    2.1930 ha        1 ZHK      0.197500
     43 H10         4.6010   -4.7320    5.6350 hn        1 ZHK      0.471133
     44 H11         5.8610   -3.6730    5.6120 hn        1 ZHK      0.471133
     45 H19         1.5020    3.2170   -3.3970 hn        1 ZHK      0.372500
     46 H12        -1.0130   -2.0900   -4.1610 ha        1 ZHK      0.171000
     47 H13        -1.4000   -4.5000   -3.6880 ha        1 ZHK      0.185000
     48 H14         2.4060   -2.1180   -1.4940 ha        1 ZHK      0.122000
     49 H52         2.3650    0.6080    0.4570 hn        1 ZHK      0.494800
     50 H153        4.9680   -3.9180    4.2550 hn        1 ZHK      0.471133
@<TRIPOS>BOND
     1    1    2 1   
     2    1   34 1   
     3    1   35 1   
     4    1   36 1   
     5    2    3 1   
     6    2   16 1   
     7    2   37 1   
     8    3    4 2   
     9    3    5 1   
    10    5    6 1   
    11    5   38 1   
    12    5   49 1   
    13    6    7 ar  
    14    6   11 ar  
    15    7    8 ar  
    16    7   39 1   
    17    8    9 ar  
    18    8   40 1   
    19    9   10 ar  
    20    9   12 1   
    21   10   11 ar  
    22   10   41 1   
    23   11   42 1   
    24   12   13 2   
    25   12   14 2   
    26   12   15 1   
    27   15   43 1   
    28   15   44 1   
    29   15   50 1   
    30   16   17 1   
    31   17   18 1   
    32   17   23 2   
    33   18   19 1   
    34   18   45 1   
    35   19   20 2   
    36   19   21 1   
    37   21   22 2   
    38   21   32 1   
    39   22   23 1   
    40   22   24 1   
    41   24   25 ar  
    42   24   29 ar  
    43   25   26 ar  
    44   25   46 1   
    45   26   27 ar  
    46   26   47 1   
    47   27   28 ar  
    48   27   31 1   
    49   28   29 ar  
    50   28   30 1   
    51   29   48 1   
    52   32   33 3   
@<TRIPOS>SUBSTRUCTURE
     1 ZHK         1 TEMP              0 ****  ****    0 ROOT
