@<TRIPOS>MOLECULE
ZHK
   48    50     1     0     0
SMALL
bcc


@<TRIPOS>ATOM
      1 C1         -0.3050   -3.2050    3.8610 c3        1 ZHK     -0.091100
      2 C2         -0.1360   -2.4470    2.5640 c3        1 ZHK     -0.077600
      3 C3         -1.4950   -1.9490    2.0740 c         1 ZHK      0.671100
      4 O4         -2.5330   -2.5690    2.3580 o         1 ZHK     -0.560100
      5 N5         -1.4820   -0.7870    1.3140 n         1 ZHK     -0.465100
      6 C6         -2.5920   -0.1320    0.7630 ca        1 ZHK      0.129600
      7 C7         -2.3950    1.1490    0.1830 ca        1 ZHK     -0.201000
      8 C8         -3.4580    1.8250   -0.3920 ca        1 ZHK      0.011500
      9 C9         -4.7460    1.2770   -0.4220 ca        1 ZHK     -0.417500
     10 C10        -4.9370    0.0210    0.1630 ca        1 ZHK      0.011500
     11 C11        -3.8920   -0.6840    0.7460 ca        1 ZHK     -0.201000
     12 S12        -6.0340    2.1260   -1.1030 sy        1 ZHK      1.532200
     13 O13        -7.2270    1.7000   -0.4820 o         1 ZHK     -0.659800
     14 O14        -5.7270    3.5040   -1.0620 o         1 ZHK     -0.659800
     15 N15        -6.0340    1.6360   -2.6290 n3        1 ZHK     -1.026700
     16 S16         0.5130   -3.6600    1.4310 ss        1 ZHK     -0.097300
     17 C17         1.5150   -2.8340    0.2930 cc        1 ZHK      0.510800
     18 N18         2.1410   -3.6460   -0.6360 n         1 ZHK     -0.462400
     19 C20         3.0140   -3.0940   -1.6080 c         1 ZHK      0.711700
     20 O21         3.5390   -3.8670   -2.4210 o         1 ZHK     -0.584500
     21 C22         3.2000   -1.6380   -1.5290 cc        1 ZHK     -0.143900
     22 C23         2.5320   -0.9090   -0.5560 cd        1 ZHK      0.302400
     23 N24         1.6680   -1.5070    0.3480 nd        1 ZHK     -0.693300
     24 C25         2.7230    0.5480   -0.4320 ca        1 ZHK     -0.065800
     25 C26         4.0180    1.0770   -0.3520 ca        1 ZHK     -0.088000
     26 C27         4.2040    2.4510   -0.2300 ca        1 ZHK     -0.115000
     27 C28         3.1010    3.3120   -0.1880 ca        1 ZHK      0.036400
     28 C29         1.8030    2.7830   -0.2670 ca        1 ZHK      0.006400
     29 C30         1.6170    1.4010   -0.3860 ca        1 ZHK     -0.086000
     30 CL1         0.4420    3.7910   -0.2200 cl        1 ZHK     -0.058400
     31 CL2         3.3590    4.9780   -0.0400 cl        1 ZHK     -0.049400
     32 C33         4.0610   -1.0500   -2.4830 cg        1 ZHK      0.211500
     33 N34         4.7680   -0.5810   -3.2800 n1        1 ZHK     -0.340800
     34 H1         -0.9650   -4.0970    3.7140 hc        1 ZHK      0.069033
     35 H2          0.6880   -3.5370    4.2500 hc        1 ZHK      0.069033
     36 H3         -0.7900   -2.5430    4.6220 hc        1 ZHK      0.069033
     37 H4          0.5800   -1.5990    2.7190 h1        1 ZHK      0.117700
     38 H5         -0.6030   -0.3310    1.1840 hn        1 ZHK      0.334500
     39 H6         -1.4010    1.6240    0.1930 ha        1 ZHK      0.159500
     40 H7         -3.2920    2.8310   -0.8210 ha        1 ZHK      0.156500
     41 H8         -5.9530   -0.4160    0.1790 ha        1 ZHK      0.156500
     42 H9         -4.0970   -1.6690    1.1970 ha        1 ZHK      0.159500
     43 H10        -5.5350    2.0920   -3.3500 hn        1 ZHK      0.446800
     44 H11        -6.5560    0.8620   -2.9550 hn        1 ZHK      0.446800
     45 H19         1.9830   -4.6330   -0.6360 hn        1 ZHK      0.353500
     46 H12         4.8920    0.4070   -0.3880 ha        1 ZHK      0.156000
     47 H13         5.2250    2.8620   -0.1710 ha        1 ZHK      0.162000
     48 H14         0.5980    0.9890   -0.4540 ha        1 ZHK      0.152000
@<TRIPOS>BOND
     1    1    2 1   
     2    1   34 1   
     3    1   35 1   
     4    1   36 1   
     5    2    3 1   
     6    2   16 1   
     7    2   37 1   
     8    3    4 2   
     9    3    5 1   
    10    5    6 1   
    11    5   38 1   
    12    6    7 ar  
    13    6   11 ar  
    14    7    8 ar  
    15    7   39 1   
    16    8    9 ar  
    17    8   40 1   
    18    9   10 ar  
    19    9   12 1   
    20   10   11 ar  
    21   10   41 1   
    22   11   42 1   
    23   12   13 2   
    24   12   14 2   
    25   12   15 1   
    26   15   43 1   
    27   15   44 1   
    28   16   17 1   
    29   17   18 1   
    30   17   23 2   
    31   18   19 1   
    32   18   45 1   
    33   19   20 2   
    34   19   21 1   
    35   21   22 2   
    36   21   32 1   
    37   22   23 1   
    38   22   24 1   
    39   24   25 ar  
    40   24   29 ar  
    41   25   26 ar  
    42   25   46 1   
    43   26   27 ar  
    44   26   47 1   
    45   27   28 ar  
    46   27   31 1   
    47   28   29 ar  
    48   28   30 1   
    49   29   48 1   
    50   32   33 3   
@<TRIPOS>SUBSTRUCTURE
     1 ZHK         1 TEMP              0 ****  ****    0 ROOT
