@<TRIPOS>MOLECULE
ZHK
   49    51     1     0     0
SMALL
bcc


@<TRIPOS>ATOM
      1 C1          0.0000    0.0000    0.0000 c3        1 ZHK     -0.001100
      2 C2          1.5300    0.0000    0.0000 c3        1 ZHK      0.002400
      3 C3          2.0320    0.0000    1.4210 c         1 ZHK      0.543100
      4 O4          2.3200    1.0460    1.9630 o         1 ZHK     -0.576100
      5 N5          2.1610   -1.1630    2.0900 ns        1 ZHK     -0.061100
      6 C6          2.7180   -1.1740    3.3730 ca        1 ZHK      0.067600
      7 C7          2.2830   -2.0990    4.3130 ca        1 ZHK     -0.156000
      8 C8          2.8400   -2.1100    5.5770 ca        1 ZHK      0.070500
      9 C9          3.8300   -1.2030    5.9070 ca        1 ZHK     -0.316500
     10 C10         4.2650   -0.2810    4.9730 ca        1 ZHK      0.070500
     11 C11         3.7130   -0.2640    3.7070 ca        1 ZHK     -0.156000
     12 S12         4.5380   -1.2210    7.5200 sy        1 ZHK      0.937200
     13 O13         5.0620    0.0800    7.7430 o         1 ZHK     -0.496300
     14 O14         3.5760   -1.8270    8.3730 o         1 ZHK     -0.496300
     15 N15         5.8360   -2.2470    7.4750 nz        1 ZHK     -0.144500
     16 S16         2.1330    1.4780   -0.8520 ss        1 ZHK     -0.214300
     17 C17         1.5440    1.1540   -2.4810 cc        1 ZHK      0.348800
     18 N18         1.7950    2.0580   -3.4680 ns        1 ZHK      0.075600
     19 C20         1.3560    1.8330   -4.7250 c         1 ZHK      0.589700
     20 O21         1.5770    2.6380   -5.6140 o         1 ZHK     -0.632500
     21 C22         0.6310    0.6430   -4.9890 cc        1 ZHK     -0.109900
     22 C23         0.4040   -0.2510   -3.9250 cd        1 ZHK      0.264400
     23 N24         0.8760    0.0400   -2.7110 nd        1 ZHK     -0.595300
     24 C25        -0.3460   -1.5050   -4.1530 ca        1 ZHK     -0.077800
     25 C26        -1.5540   -1.4810   -4.8520 ca        1 ZHK     -0.088000
     26 C27        -2.2510   -2.6520   -5.0620 ca        1 ZHK     -0.082000
     27 C28        -1.7540   -3.8520   -4.5790 ca        1 ZHK     -0.034600
     28 C29        -0.5560   -3.8820   -3.8830 ca        1 ZHK     -0.029600
     29 C30         0.1530   -2.7170   -3.6730 ca        1 ZHK     -0.073000
     30 Cl1         0.0600   -5.3900   -3.2820 cl        1 ZHK      0.000600
     31 Cl2        -2.6380   -5.3230   -4.8450 cl        1 ZHK      0.021600
     32 C33         0.1420    0.3570   -6.3050 cg        1 ZHK      0.221500
     33 N34        -0.2640    0.1300   -7.3410 n1        1 ZHK     -0.355800
     34 H1         -0.4490    0.7180    0.6760 hc        1 ZHK      0.028033
     35 H2         -0.4550   -0.0660   -0.9810 hc        1 ZHK      0.028033
     36 H3         -0.2910   -0.8730    0.5720 hc        1 ZHK      0.028033
     37 H4          1.8910   -0.8840   -0.5110 h1        1 ZHK      0.081700
     38 H5          1.4390   -1.5440    1.5100 hn        1 ZHK      0.223500
     39 H6          1.2010   -2.1320    4.3370 ha        1 ZHK      0.156000
     40 H7          2.6350   -2.5060    6.5640 ha        1 ZHK      0.120500
     41 H8          5.1910    0.2310    5.2040 ha        1 ZHK      0.120500
     42 H9          3.9670    0.4260    2.9110 ha        1 ZHK      0.156000
     43 H10         5.5800   -3.1930    7.6760 hn        1 ZHK      0.317467
     44 H11         6.2140   -2.0380    6.5720 hn        1 ZHK      0.317467
     45 H19         2.1400    2.9720   -3.2500 hn        1 ZHK      0.197500
     46 H12        -1.7270   -0.8220   -5.6950 ha        1 ZHK      0.142000
     47 H13        -3.1330   -2.6750   -5.6900 ha        1 ZHK      0.129000
     48 H14         1.1920   -2.5660   -3.4080 ha        1 ZHK      0.124000
     49 H153        6.4600   -2.0820    8.2390 hn        1 ZHK      0.317467
@<TRIPOS>BOND
     1    1    2 1   
     2    1   34 1   
     3    1   35 1   
     4    1   36 1   
     5    2    3 1   
     6    2   16 1   
     7    2   37 1   
     8    3    4 2   
     9    3    5 1   
    10    5    6 1   
    11    5   38 1   
    12    6    7 ar  
    13    6   11 ar  
    14    7    8 ar  
    15    7   39 1   
    16    8    9 ar  
    17    8   40 1   
    18    9   10 ar  
    19    9   12 1   
    20   10   11 ar  
    21   10   41 1   
    22   11   42 1   
    23   12   13 2   
    24   12   14 2   
    25   12   15 1   
    26   15   43 1   
    27   15   44 1   
    28   15   49 1   
    29   16   17 1   
    30   17   18 1   
    31   17   23 2   
    32   18   19 1   
    33   18   45 1   
    34   19   20 2   
    35   19   21 1   
    36   21   22 2   
    37   21   32 1   
    38   22   23 1   
    39   22   24 1   
    40   24   25 ar  
    41   24   29 ar  
    42   25   26 ar  
    43   25   46 1   
    44   26   27 ar  
    45   26   47 1   
    46   27   28 ar  
    47   27   31 1   
    48   28   29 ar  
    49   28   30 1   
    50   29   48 1   
    51   32   33 3   
@<TRIPOS>SUBSTRUCTURE
     1 ZHK         1 TEMP              0 ****  ****    0 ROOT
