@<TRIPOS>MOLECULE
ZHN
   61    61     1     0     0
SMALL
bcc


@<TRIPOS>ATOM
      1 O28         3.0030    0.2650    1.5870 o         1 ZHN     -0.536000
      2 C20         1.8630    0.7330    1.5640 c         1 ZHN      0.633100
      3 O27         0.9270    0.2080    2.4100 os        1 ZHN     -0.441900
      4 C22         1.3610   -0.8660    3.2640 c3        1 ZHN      0.138400
      5 C23         0.1600   -1.2390    4.1120 c3        1 ZHN     -0.086400
      6 C24         0.5160   -2.3720    5.0500 c3        1 ZHN     -0.078400
      7 C25        -0.6690   -2.7620    5.9070 c3        1 ZHN     -0.079400
      8 C26        -0.3230   -3.8890    6.8450 c3        1 ZHN     -0.093100
      9 C19         1.3400    1.8720    0.7400 c3        1 ZHN     -0.095100
     10 C4          0.8290    1.4500   -0.5950 ca        1 ZHN      0.042700
     11 C3          0.4090    0.1360   -0.7900 ca        1 ZHN     -0.197000
     12 C2         -0.1020   -0.2540   -2.0380 ca        1 ZHN      0.192100
     13 O8         -0.4980   -1.5620   -2.1550 oh        1 ZHN     -0.485100
     14 C5          0.7530    2.3950   -1.6410 ca        1 ZHN     -0.230600
     15 C6          0.2350    1.9740   -2.8820 ca        1 ZHN      0.202100
     16 O7          0.1550    2.9090   -3.8880 oh        1 ZHN     -0.497100
     17 C1         -0.1980    0.6570   -3.0940 ca        1 ZHN     -0.315000
     18 C9          1.1890    3.7940   -1.4290 c         1 ZHN      0.598700
     19 O18         0.9590    4.3890   -0.3680 o         1 ZHN     -0.546100
     20 C10         1.9270    4.4460   -2.5640 c3        1 ZHN     -0.169400
     21 C11         2.8840    5.5160   -2.0860 c3        1 ZHN     -0.076400
     22 C12         3.5340    6.2230   -3.2550 c3        1 ZHN     -0.077400
     23 C13         4.5040    7.2840   -2.7790 c3        1 ZHN     -0.079400
     24 C14         5.1520    7.9980   -3.9460 c3        1 ZHN     -0.078400
     25 C15         6.1220    9.0580   -3.4720 c3        1 ZHN     -0.079400
     26 C16         6.7710    9.7730   -4.6380 c3        1 ZHN     -0.080400
     27 C17         7.7380   10.8290   -4.1700 c3        1 ZHN     -0.092100
     28 H1          2.2200   -0.5070    3.8890 h1        1 ZHN      0.052200
     29 H2          1.7040   -1.7190    2.6230 h1        1 ZHN      0.052200
     30 H3         -0.1780   -0.3440    4.6960 hc        1 ZHN      0.055200
     31 H4         -0.6890   -1.5410    3.4450 hc        1 ZHN      0.055200
     32 H5          1.3710   -2.0630    5.7080 hc        1 ZHN      0.042700
     33 H6          0.8590   -3.2600    4.4570 hc        1 ZHN      0.042700
     34 H7         -1.5230   -3.0680    5.2470 hc        1 ZHN      0.040700
     35 H8         -1.0120   -1.8710    6.4980 hc        1 ZHN      0.040700
     36 H9         -0.0030   -4.7940    6.2740 hc        1 ZHN      0.033700
     37 H10        -1.2100   -4.1610    7.4680 hc        1 ZHN      0.033700
     38 H11         0.5100   -3.5940    7.5280 hc        1 ZHN      0.033700
     39 H12         2.1810    2.6130    0.6250 hc        1 ZHN      0.107700
     40 H13         0.5060    2.3900    1.2940 hc        1 ZHN      0.107700
     41 H14         0.4600   -0.6040    0.0240 ha        1 ZHN      0.167000
     42 H15        -0.8250   -1.7020   -3.0560 ho        1 ZHN      0.424000
     43 H16        -0.2700    2.4950   -4.6550 ho        1 ZHN      0.426000
     44 H17        -0.6020    0.3520   -4.0680 ha        1 ZHN      0.141000
     45 H18         1.1580    4.8950   -3.2520 hc        1 ZHN      0.075200
     46 H19         2.4770    3.6640   -3.1510 hc        1 ZHN      0.075200
     47 H20         3.6730    5.0510   -1.4370 hc        1 ZHN      0.052700
     48 H21         2.3290    6.2550   -1.4490 hc        1 ZHN      0.052700
     49 H22         2.7440    6.6960   -3.8960 hc        1 ZHN      0.038700
     50 H23         4.0760    5.4770   -3.8930 hc        1 ZHN      0.038700
     51 H24         3.9620    8.0280   -2.1370 hc        1 ZHN      0.042200
     52 H25         5.2960    6.8110   -2.1410 hc        1 ZHN      0.042200
     53 H26         4.3600    8.4710   -4.5850 hc        1 ZHN      0.038700
     54 H27         5.6930    7.2540   -4.5890 hc        1 ZHN      0.038700
     55 H28         5.5820    9.8020   -2.8290 hc        1 ZHN      0.040200
     56 H29         6.9150    8.5840   -2.8340 hc        1 ZHN      0.040200
     57 H30         7.3100    9.0270   -5.2800 hc        1 ZHN      0.037700
     58 H31         5.9770   10.2450   -5.2750 hc        1 ZHN      0.037700
     59 H32         7.2150   11.5960   -3.5480 hc        1 ZHN      0.032367
     60 H33         8.2050   11.3440   -5.0440 hc        1 ZHN      0.032367
     61 H34         8.5510   10.3750   -3.5530 hc        1 ZHN      0.032367
@<TRIPOS>BOND
     1    1    2 2   
     2    2    3 1   
     3    2    9 1   
     4    3    4 1   
     5    4    5 1   
     6    4   28 1   
     7    4   29 1   
     8    5    6 1   
     9    5   30 1   
    10    5   31 1   
    11    6    7 1   
    12    6   32 1   
    13    6   33 1   
    14    7    8 1   
    15    7   34 1   
    16    7   35 1   
    17    8   36 1   
    18    8   37 1   
    19    8   38 1   
    20    9   10 1   
    21    9   39 1   
    22    9   40 1   
    23   10   11 ar  
    24   10   14 ar  
    25   11   12 ar  
    26   11   41 1   
    27   12   13 1   
    28   12   17 ar  
    29   13   42 1   
    30   14   15 ar  
    31   14   18 1   
    32   15   16 1   
    33   15   17 ar  
    34   16   43 1   
    35   17   44 1   
    36   18   19 2   
    37   18   20 1   
    38   20   21 1   
    39   20   45 1   
    40   20   46 1   
    41   21   22 1   
    42   21   47 1   
    43   21   48 1   
    44   22   23 1   
    45   22   49 1   
    46   22   50 1   
    47   23   24 1   
    48   23   51 1   
    49   23   52 1   
    50   24   25 1   
    51   24   53 1   
    52   24   54 1   
    53   25   26 1   
    54   25   55 1   
    55   25   56 1   
    56   26   27 1   
    57   26   57 1   
    58   26   58 1   
    59   27   59 1   
    60   27   60 1   
    61   27   61 1   
@<TRIPOS>SUBSTRUCTURE
     1 ZHN         1 TEMP              0 ****  ****    0 ROOT
