@<TRIPOS>MOLECULE
ZHP
   30    30     1     0     0
SMALL
bcc


@<TRIPOS>ATOM
      1 P           2.4880    1.6200    1.2120 p5        1 ZHP      1.321900
      2 O1P         3.6880    1.6030    2.1020 o         1 ZHP     -0.920833
      3 O2P         2.3320    2.7510    0.2350 o         1 ZHP     -0.920833
      4 O3G         2.7040    0.2470    0.1630 os        1 ZHP     -0.563200
      5 C3G         2.0150    0.2840   -1.0190 c3        1 ZHP      0.192400
      6 C2G         0.5790   -0.3100   -0.8870 c3        1 ZHP      0.110100
      7 O2G         0.4800   -1.1680    0.2250 oh        1 ZHP     -0.654800
      8 C1G        -0.3920    0.8800   -0.7280 c3        1 ZHP      0.093800
      9 N1         -1.8050    0.5280   -0.6580 na        1 ZHP     -0.421200
     10 C2         -2.5140    0.5400    0.5410 cc        1 ZHP      0.166800
     11 C2M        -1.8340    0.9200    1.8110 c3        1 ZHP     -0.094900
     12 C3         -3.8630    0.2080    0.5240 cd        1 ZHP     -0.135100
     13 O3         -4.5640    0.2700    1.7200 oh        1 ZHP     -0.513100
     14 C6         -2.4370    0.1230   -1.8040 cc        1 ZHP      0.093000
     15 C5         -3.7650   -0.2260   -1.8630 cd        1 ZHP     -0.368200
     16 C4         -4.5780   -0.2020   -0.6760 c         1 ZHP      0.551500
     17 O4         -5.8010   -0.5030   -0.6410 o         1 ZHP     -0.711100
     18 OXT         1.1630    1.1540    1.7870 o         1 ZHP     -0.920833
     19 HA1         1.9520    1.3420   -1.4050 h1        1 ZHP      0.001200
     20 HB2         2.5590   -0.3530   -1.7760 h1        1 ZHP      0.001200
     21 HA          0.3120   -0.9330   -1.7820 h1        1 ZHP      0.002700
     22 H2G         0.9390   -0.6960    0.9640 ho        1 ZHP      0.480000
     23 HB1        -0.0360    1.4200    0.2290 h1        1 ZHP      0.122700
     24 HC2        -0.2690    1.5810   -1.6000 h1        1 ZHP      0.122700
     25 H6         -1.7990    0.0990   -2.7090 h4        1 ZHP      0.142000
     26 H2M1       -1.6270    2.0200    1.8250 hc        1 ZHP      0.091367
     27 H2M2       -2.4860    0.6560    2.6770 hc        1 ZHP      0.091367
     28 H2M3       -0.8280    0.4120    1.9200 hc        1 ZHP      0.091367
     29 H3         -5.4400   -0.1010    1.5290 ho        1 ZHP      0.417000
     30 H5         -4.2220   -0.5310   -2.8100 ha        1 ZHP      0.131000
@<TRIPOS>BOND
     1    1    2 1   
     2    1    3 1   
     3    1    4 1   
     4    1   18 1   
     5    4    5 1   
     6    5    6 1   
     7    5   19 1   
     8    5   20 1   
     9    6    7 1   
    10    6    8 1   
    11    6   21 1   
    12    7   22 1   
    13    8    9 1   
    14    8   23 1   
    15    8   24 1   
    16    9   10 1   
    17    9   14 1   
    18   10   11 1   
    19   10   12 2   
    20   11   26 1   
    21   11   27 1   
    22   11   28 1   
    23   12   13 1   
    24   12   16 1   
    25   13   29 1   
    26   14   15 2   
    27   14   25 1   
    28   15   16 1   
    29   15   30 1   
    30   16   17 2   
@<TRIPOS>SUBSTRUCTURE
     1 ZHP         1 TEMP              0 ****  ****    0 ROOT
