@<TRIPOS>MOLECULE
ZHZ
   24    24     1     0     0
SMALL
bcc


@<TRIPOS>ATOM
      1 O2          2.1510    0.6830    1.3710 o         1 ZHZ     -0.399100
      2 CA          1.7620    0.5070    0.2300 c         1 ZHZ      0.547100
      3 N2          0.4720   -0.2880    0.1140 nz        1 ZHZ     -0.761400
      4 CB          2.3770    0.9560   -1.0640 c3        1 ZHZ     -0.084100
      5 CG          1.5800    0.6190   -2.2650 ca        1 ZHZ     -0.241300
      6 CD2         1.6660   -0.6670   -2.8290 ca        1 ZHZ     -0.087000
      7 CE2         0.9700   -0.9820   -3.9830 ca        1 ZHZ     -0.178500
      8 CZ          0.1770    0.0100   -4.6060 ca        1 ZHZ      0.178100
      9 O1         -0.4760   -0.4030   -5.7340 os        1 ZHZ     -0.304900
     10 CF1        -1.2020    0.5900   -6.4640 c3        1 ZHZ      0.104700
     11 CE1         0.0980    1.3000   -4.0610 ca        1 ZHZ     -0.178500
     12 CD1         0.8040    1.5960   -2.8980 ca        1 ZHZ     -0.087000
     13 HN21        0.6180   -1.0730   -0.5320 hn        1 ZHZ      0.469800
     14 HN22       -0.2580    0.3150   -0.2790 hn        1 ZHZ      0.469800
     15 HB1         2.5360    2.0710   -0.9780 hc        1 ZHZ      0.132200
     16 HB2         3.4010    0.4810   -1.1160 hc        1 ZHZ      0.132200
     17 HD2         2.3240   -1.4240   -2.3720 ha        1 ZHZ      0.142500
     18 HE2         1.0370   -1.9810   -4.4410 ha        1 ZHZ      0.171000
     19 HF11       -2.0440    0.9860   -5.8470 h1        1 ZHZ      0.063033
     20 HF12       -0.5210    1.4130   -6.7890 h1        1 ZHZ      0.063033
     21 HF13       -1.5880    0.0190   -7.3470 h1        1 ZHZ      0.063033
     22 HE1        -0.5000    2.0840   -4.5510 ha        1 ZHZ      0.171000
     23 HD1         0.7610    2.6190   -2.4900 ha        1 ZHZ      0.142500
     24 H23         0.1730   -0.6380    1.0300 hn        1 ZHZ      0.469800
@<TRIPOS>BOND
     1    1    2 2   
     2    2    3 1   
     3    2    4 1   
     4    3   13 1   
     5    3   14 1   
     6    3   24 1   
     7    4    5 1   
     8    4   15 1   
     9    4   16 1   
    10    5    6 ar  
    11    5   12 ar  
    12    6    7 ar  
    13    6   17 1   
    14    7    8 ar  
    15    7   18 1   
    16    8    9 1   
    17    8   11 ar  
    18    9   10 1   
    19   10   19 1   
    20   10   20 1   
    21   10   21 1   
    22   11   12 ar  
    23   11   22 1   
    24   12   23 1   
@<TRIPOS>SUBSTRUCTURE
     1 ZHZ         1 TEMP              0 ****  ****    0 ROOT
