@<TRIPOS>MOLECULE
ZHZ
   24    24     1     0     0
SMALL
bcc


@<TRIPOS>ATOM
      1 O2          2.4960    0.5490    1.2420 o         1 ZHZ     -0.399100
      2 CA          2.0060    0.4090    0.1360 c         1 ZHZ      0.547100
      3 N2          0.6550   -0.2850    0.1220 n4        1 ZHZ     -0.761400
      4 CB          2.5500    0.8190   -1.2030 c3        1 ZHZ     -0.084100
      5 CG          1.6380    0.5480   -2.3380 ca        1 ZHZ     -0.241300
      6 CD2         1.5830   -0.7380   -2.9060 ca        1 ZHZ     -0.087000
      7 CE2         0.7770   -0.9940   -4.0010 ca        1 ZHZ     -0.178500
      8 CZ          0.0140    0.0580   -4.5610 ca        1 ZHZ      0.178100
      9 O1         -0.7550   -0.2990   -5.6340 os        1 ZHZ     -0.304900
     10 CF1        -1.4590    0.7490   -6.3050 c3        1 ZHZ      0.104700
     11 CE1         0.0740    1.3480   -4.0120 ca        1 ZHZ     -0.178500
     12 CD1         0.8900    1.5840   -2.9090 ca        1 ZHZ     -0.087000
     13 HN21        0.6900   -1.0750   -0.5340 hn        1 ZHZ      0.469800
     14 HN22       -0.0560    0.3730   -0.2120 hn        1 ZHZ      0.469800
     15 HB1         2.7970    1.9180   -1.1310 hc        1 ZHZ      0.132200
     16 HB2         3.5290    0.2690   -1.3360 hc        1 ZHZ      0.132200
     17 HD2         2.2160   -1.5440   -2.5010 ha        1 ZHZ      0.142500
     18 HE2         0.7330   -1.9930   -4.4620 ha        1 ZHZ      0.171000
     19 HF11       -2.2180    1.2030   -5.6240 h1        1 ZHZ      0.063033
     20 HF12       -0.7460    1.5200   -6.6830 h1        1 ZHZ      0.063033
     21 HF13       -1.9560    0.2130   -7.1550 h1        1 ZHZ      0.063033
     22 HE1        -0.5000    2.1760   -4.4540 ha        1 ZHZ      0.171000
     23 HD1         0.9560    2.6050   -2.4990 ha        1 ZHZ      0.142500
     24 H23         0.4040   -0.6180    1.0590 hn        1 ZHZ      0.469800
@<TRIPOS>BOND
     1    1    2 2   
     2    2    3 1   
     3    2    4 1   
     4    3   13 1   
     5    3   14 1   
     6    3   24 1   
     7    4    5 1   
     8    4   15 1   
     9    4   16 1   
    10    5    6 ar  
    11    5   12 ar  
    12    6    7 ar  
    13    6   17 1   
    14    7    8 ar  
    15    7   18 1   
    16    8    9 1   
    17    8   11 ar  
    18    9   10 1   
    19   10   19 1   
    20   10   20 1   
    21   10   21 1   
    22   11   12 ar  
    23   11   22 1   
    24   12   23 1   
@<TRIPOS>SUBSTRUCTURE
     1 ZHZ         1 TEMP              0 ****  ****    0 ROOT
