@<TRIPOS>MOLECULE
ZHZ
   23    23     1     0     0
SMALL
bcc


@<TRIPOS>ATOM
      1 O2          0.5180   -1.4220   -3.5910 o         1 ZHZ     -0.617100
      2 CA          1.2220   -1.6020   -2.5770 c         1 ZHZ      0.655100
      3 N2          1.6800   -2.8590   -2.2660 n         1 ZHZ     -0.667000
      4 CB          1.6440   -0.4310   -1.7040 c3        1 ZHZ     -0.105100
      5 CG          1.7230   -0.7540   -0.2570 ca        1 ZHZ     -0.131300
      6 CD2         0.6040   -0.5720    0.5680 ca        1 ZHZ     -0.093500
      7 CE2         0.6690   -0.8540    1.9260 ca        1 ZHZ     -0.178500
      8 CZ          1.8770   -1.3260    2.4740 ca        1 ZHZ      0.129100
      9 O1          1.8390   -1.5790    3.8310 os        1 ZHZ     -0.324900
     10 CF1         3.0530   -2.0260    4.4220 c3        1 ZHZ      0.112700
     11 CE1         3.0030   -1.5100    1.6640 ca        1 ZHZ     -0.178500
     12 CD1         2.9160   -1.2210    0.3020 ca        1 ZHZ     -0.093500
     13 HN21        2.1210   -3.0270   -1.3980 hn        1 ZHZ      0.310500
     14 HN22        1.3660   -3.6330   -2.7970 hn        1 ZHZ      0.310500
     15 HB1         0.9040    0.3960   -1.8790 hc        1 ZHZ      0.082200
     16 HB2         2.6420   -0.0770   -2.0810 hc        1 ZHZ      0.082200
     17 HD2        -0.3380   -0.2000    0.1350 ha        1 ZHZ      0.138000
     18 HE2        -0.2040   -0.7140    2.5800 ha        1 ZHZ      0.146500
     19 HF11        3.8580   -1.2620    4.2970 h1        1 ZHZ      0.045700
     20 HF12        3.3680   -3.0040    3.9830 h1        1 ZHZ      0.045700
     21 HF13        2.7860   -2.1460    5.5030 h1        1 ZHZ      0.045700
     22 HE1         3.9510   -1.8720    2.0830 ha        1 ZHZ      0.146500
     23 HD1         3.8030   -1.3570   -0.3350 ha        1 ZHZ      0.138000
@<TRIPOS>BOND
     1    1    2 2   
     2    2    3 1   
     3    2    4 1   
     4    3   13 1   
     5    3   14 1   
     6    4    5 1   
     7    4   15 1   
     8    4   16 1   
     9    5    6 ar  
    10    5   12 ar  
    11    6    7 ar  
    12    6   17 1   
    13    7    8 ar  
    14    7   18 1   
    15    8    9 1   
    16    8   11 ar  
    17    9   10 1   
    18   10   19 1   
    19   10   20 1   
    20   10   21 1   
    21   11   12 ar  
    22   11   22 1   
    23   12   23 1   
@<TRIPOS>SUBSTRUCTURE
     1 ZHZ         1 TEMP              0 ****  ****    0 ROOT
