@<TRIPOS>MOLECULE
ZHZ
   23    20     1     0     0
SMALL
bcc


@<TRIPOS>ATOM
      1 O2         -1.6490   -2.6210   -0.8300 o         1 ZHZ     -0.378000
      2 CA         -0.8030   -3.0210   -0.0550 c1        1 ZHZ      0.299000
      3 N2         -0.3670   -4.3700   -0.1160 n2        1 ZHZ     -0.427000
      4 CB         -0.2350   -2.0890    0.9930 c3        1 ZHZ     -0.141000
      5 CG         -0.1400   -0.6900    0.4250 c2        1 ZHZ     -0.124000
      6 CD2        -1.1160    0.2470    0.7260 c2        1 ZHZ     -0.087000
      7 CE2        -1.0160    1.5360    0.2260 c1        1 ZHZ     -0.153000
      8 CZ          0.0600    1.8880   -0.5750 c1        1 ZHZ      0.084000
      9 O1          0.1280    3.1760   -1.1320 os        1 ZHZ     -0.208000
     10 CF1         0.8620    4.0970   -0.3550 c3        1 ZHZ     -0.077000
     11 CE1         1.0350    0.9500   -0.8750 c1        1 ZHZ     -0.204000
     12 CD1         0.9350   -0.3390   -0.3760 c1        1 ZHZ     -0.100000
     13 HN21       -0.7400   -4.9440   -0.7220 hn        1 ZHZ      0.224000
     14 HN22        0.2760   -4.6690    0.4610 hn        1 ZHZ      0.224000
     15 HB1         0.6560   -2.3960    1.2530 hc        1 ZHZ      0.121500
     16 HB2        -0.8200   -2.0840    1.7760 hc        1 ZHZ      0.121500
     17 HD2        -1.8730   -0.0000    1.2890 ha        1 ZHZ      0.142000
     18 HE2        -1.7030    2.1970    0.4380 ha        1 ZHZ      0.153000
     19 HF11        0.3570    4.3130    0.4590 h1        1 ZHZ      0.085000
     20 HF12        1.7260    3.7020   -0.1090 h1        1 ZHZ      0.085000
     21 HF13        1.0120    4.9170   -0.8740 h1        1 ZHZ      0.085000
     22 HE1         1.7930    1.1980   -1.4390 ha        1 ZHZ      0.140000
     23 HD1         1.6220   -0.9990   -0.5880 ha        1 ZHZ      0.134000
@<TRIPOS>BOND
     1    1    2 1   
     2    2    4 1   
     3    3   13 1   
     4    3   14 1   
     5    4    5 1   
     6    4   15 1   
     7    4   16 1   
     8    5    6 1   
     9    5   12 1   
    10    6    7 1   
    11    6   17 1   
    12    7   18 1   
    13    8    9 1   
    14    8   11 1   
    15    9   10 1   
    16   10   19 1   
    17   10   20 1   
    18   10   21 1   
    19   11   22 1   
    20   12   23 1   
@<TRIPOS>SUBSTRUCTURE
     1 ZHZ         1 TEMP              0 ****  ****    0 ROOT
