@<TRIPOS>MOLECULE
ZIG
   53    56     1     0     0
SMALL
bcc


@<TRIPOS>ATOM
      1 C1         -0.2180   -1.4920    0.3670 c3        1 ZIG     -0.063000
      2 C2          4.8270    0.9980    5.0860 ca        1 ZIG     -0.114000
      3 C3          5.8030   -4.6060   -0.9900 ca        1 ZIG     -0.207000
      4 C4          5.4480    0.7290    6.2990 ca        1 ZIG     -0.133000
      5 C5          5.6920   -3.2260   -0.9870 ca        1 ZIG      0.015000
      6 C6          0.2900   -0.5670    9.2420 c2        1 ZIG     -0.130000
      7 C7          2.7820   -2.0970    8.5960 c2        1 ZIG     -0.170000
      8 C8         -0.6460    0.3060    9.8260 c2        1 ZIG     -0.139000
      9 C9          5.9110   -0.3680    9.5740 c1        1 ZIG      0.145000
     10 C10         2.7590    0.0790    5.9240 ca        1 ZIG     -0.079000
     11 C11         5.4880   -4.6140    1.4300 ca        1 ZIG     -0.240000
     12 C12         3.6340    0.5780    2.4040 c2        1 ZIG     -0.111000
     13 C13         1.6750    1.3750    9.0210 c2        1 ZIG     -0.120000
     14 C14         1.3910    0.4620    3.5690 c1        1 ZIG     -0.014000
     15 C15         3.4830    0.6650    4.8820 ca        1 ZIG     -0.044000
     16 C16         5.7010   -5.3080    0.2300 ca        1 ZIG      0.187000
     17 C17         1.5100   -0.0160    8.8190 c2        1 ZIG     -0.040000
     18 C18         2.5600   -0.8310    8.2140 c2        1 ZIG     -0.045000
     19 C19         4.7290    0.1210    7.3520 ca        1 ZIG      0.097000
     20 C20         5.4790   -2.4870    0.1900 ca        1 ZIG     -0.883000
     21 C21         2.8090    0.9670    3.5800 c3        1 ZIG     -0.149000
     22 C22         3.3620   -0.1980    7.1560 ca        1 ZIG     -0.059000
     23 C23         3.1060   -0.1050    1.3450 c2        1 ZIG     -0.028000
     24 C24         5.3780   -3.2120    1.3980 ca        1 ZIG      0.245000
     25 C25         1.6630   -0.4660    1.4500 c2        1 ZIG      0.252000
     26 N26         5.3600   -0.1460    8.5500 n2        1 ZIG     -0.299000
     27 N27        -0.3950    1.6390    9.9850 n2        1 ZIG     -0.047000
     28 N28         0.8990   -0.1920    2.5210 n2        1 ZIG     -0.291000
     29 N29         0.7100    2.1440    9.6010 n2        1 ZIG     -0.047000
     30 O31         6.1560   -0.2090    1.0900 o         1 ZIG     -0.921000
     31 O32         5.7950   -0.4670   -1.2680 o         1 ZIG     -0.921000
     32 O33         1.1670   -1.1030    0.3600 os        1 ZIG     -0.202000
     33 F35         5.1670   -2.5660    2.5640 f         1 ZIG     -0.080000
     34 S36         5.4190   -0.7980    0.0500 s6        1 ZIG      2.859000
     35 H1          5.7880   -2.6800   -1.9470 ha        1 ZIG      0.177000
     36 H1A        -0.8690   -0.5900    0.4640 h1        1 ZIG      0.106000
     37 H1B        -0.3380   -1.9790   -0.6330 h1        1 ZIG      0.106000
     38 H2          5.4110    1.4800    4.2860 ha        1 ZIG      0.145000
     39 H3         -0.4090   -2.2110    1.1980 h1        1 ZIG      0.106000
     40 H4          6.5090    0.9950    6.4320 ha        1 ZIG      0.150000
     41 H5          5.9730   -5.1600   -1.9250 ha        1 ZIG      0.166000
     42 H6          0.0670   -1.6340    9.1170 ha        1 ZIG      0.151000
     43 H7          3.5730   -2.7120    8.1470 ha        1 ZIG      0.125500
     44 H8         -1.6270   -0.0480   10.1810 h4        1 ZIG      0.170000
     45 H9          2.1920   -2.5850    9.3830 ha        1 ZIG      0.125500
     46 H10         1.6880   -0.1580    5.7820 ha        1 ZIG      0.181000
     47 H11         5.4110   -5.1530    2.3850 ha        1 ZIG      0.176000
     48 H12         4.7030    0.8600    2.4290 ha        1 ZIG      0.180000
     49 H13         2.5970    1.8970    8.7150 h4        1 ZIG      0.176000
     50 H14         2.6810    2.1020    3.5250 hc        1 ZIG      0.173000
     51 HN30        3.2420   -0.5370   -0.6050 hn        1 ZIG      0.261000
     52 N30         3.8290   -0.4660    0.2000 n3        1 ZIG     -0.818000
     53 F34         5.8070   -6.6520    0.2430 f         1 ZIG     -0.084000
@<TRIPOS>BOND
     1    1   32 1   
     2    1   36 1   
     3    1   37 1   
     4    1   39 1   
     5    2    4 1   
     6    2   15 1   
     7    2   38 1   
     8    3    5 1   
     9    3   16 1   
    10    3   41 1   
    11    4   19 1   
    12    4   40 1   
    13    5   20 1   
    14    5   35 1   
    15    6    8 1   
    16    6   17 1   
    17    6   42 1   
    18    7   18 1   
    19    7   43 1   
    20    7   45 1   
    21    8   27 1   
    22    8   44 1   
    23    9   26 1   
    24   10   15 1   
    25   10   22 1   
    26   10   46 1   
    27   11   16 1   
    28   11   24 1   
    29   11   47 1   
    30   12   21 1   
    31   12   23 1   
    32   12   48 1   
    33   13   17 1   
    34   13   29 1   
    35   13   49 1   
    36   14   21 1   
    37   14   28 1   
    38   15   21 1   
    39   16   53 1   
    40   17   18 1   
    41   18   22 1   
    42   19   22 1   
    43   19   26 1   
    44   20   24 1   
    45   20   34 1   
    46   21   50 1   
    47   23   25 1   
    48   23   52 1   
    49   24   33 1   
    50   25   28 1   
    51   25   32 1   
    52   27   29 1   
    53   30   34 1   
    54   31   34 1   
    55   34   52 1   
    56   51   52 1   
@<TRIPOS>SUBSTRUCTURE
     1 ZIG         1 TEMP              0 ****  ****    0 ROOT
