@<TRIPOS>MOLECULE
ZIG
   53    57     1     0     0
SMALL
bcc


@<TRIPOS>ATOM
      1 C1          2.3450    4.6780    1.1630 c3        1 ZIG      0.130700
      2 C2         -1.4300   -1.5850    2.1650 ca        1 ZIG     -0.109000
      3 C3          5.6250   -0.2350   -2.6380 ca        1 ZIG     -0.207000
      4 C4         -2.4540   -2.4930    2.2300 ca        1 ZIG     -0.160300
      5 C5          5.3720   -0.2990   -1.2780 ca        1 ZIG      0.017000
      6 C6         -5.4560    0.1490   -2.2800 ca        1 ZIG     -0.189300
      7 C7         -5.9640   -1.8810    0.0030 ca        1 ZIG     -0.231300
      8 C8         -5.6530    1.3460   -2.9930 ca        1 ZIG      0.327200
      9 C9         -5.7600   -3.0190    0.8420 ca        1 ZIG      0.410200
     10 C10        -2.6840   -0.2030    0.6240 ca        1 ZIG     -0.112000
     11 C11         3.3850   -1.0980   -3.0710 ca        1 ZIG     -0.241000
     12 C12         0.9080    0.0730    1.3260 ca        1 ZIG     -0.111000
     13 C13        -5.1190    1.5660   -0.3750 ca        1 ZIG      0.336200
     14 C14        -0.6570    1.9100    1.2360 ca        1 ZIG      0.421200
     15 C15        -1.5320   -0.4220    1.3540 cp        1 ZIG     -0.017000
     16 C16         4.6210   -0.6380   -3.5440 ca        1 ZIG      0.219900
     17 C17        -5.1720    0.2570   -0.9100 cp        1 ZIG     -0.115300
     18 C18        -4.9740   -0.9240   -0.0750 cp        1 ZIG     -0.001000
     19 C19        -3.6580   -2.2910    1.4800 ca        1 ZIG      0.395600
     20 C20         4.1470   -0.7500   -0.7580 ca        1 ZIG     -0.433500
     21 C21        -0.4210    0.5220    1.3030 cp        1 ZIG     -0.159300
     22 C22        -3.7660   -1.1150    0.6720 ca        1 ZIG     -0.130300
     23 C23         1.9660    0.9980    1.2720 ca        1 ZIG      0.042300
     24 C24         3.1590   -1.1490   -1.6830 ca        1 ZIG      0.280900
     25 C25         1.5980    2.3920    1.2020 ca        1 ZIG      0.600600
     26 N26        -4.6690   -3.2300    1.5550 nb        1 ZIG     -0.645000
     27 N27        -5.5790    2.5700   -2.3910 nb        1 ZIG     -0.306000
     28 N28         0.3200    2.8310    1.1890 nb        1 ZIG     -0.705000
     29 N29        -5.3270    2.6710   -1.1470 nb        1 ZIG     -0.308000
     30 O31         3.1700   -1.8930    1.2810 o         1 ZIG     -0.642300
     31 O32         5.2990   -0.7990    1.4770 o         1 ZIG     -0.642300
     32 O33         2.6540    3.2830    1.1570 os        1 ZIG     -0.462100
     33 F35         1.9590   -1.5930   -1.2520 f         1 ZIG     -0.111900
     34 S36         3.9970   -0.8150    0.9310 sy        1 ZIG      1.520200
     35 H1          1.7560    4.9520    0.2560 h1        1 ZIG      0.053033
     36 H1A         1.7920    4.9550    2.0910 h1        1 ZIG      0.053033
     37 H1B         3.3580    5.1550    1.1420 h1        1 ZIG      0.053033
     38 H2         -0.5090   -1.7490    2.7480 ha        1 ZIG      0.150000
     39 H3          6.5940    0.1200   -3.0190 ha        1 ZIG      0.164000
     40 H4         -2.3660   -3.3940    2.8590 ha        1 ZIG      0.158000
     41 H5          6.1710   -0.0010   -0.5700 ha        1 ZIG      0.172000
     42 H6         -5.5190   -0.8270   -2.7770 ha        1 ZIG      0.158000
     43 H7         -6.9060   -1.7820   -0.5540 ha        1 ZIG      0.149000
     44 H8         -5.8770    1.3490   -4.0720 h4        1 ZIG      0.037100
     45 H9         -6.5520   -3.7880    0.9170 h4        1 ZIG      0.028100
     46 H10        -2.7700    0.6870   -0.0210 ha        1 ZIG      0.142000
     47 H11         2.5990   -1.4180   -3.7710 ha        1 ZIG      0.174000
     48 H12         1.1100   -1.0130    1.3690 ha        1 ZIG      0.185000
     49 H13        -4.9140    1.7460    0.6930 h4        1 ZIG      0.042100
     50 H14        -1.6860    2.3160    1.2250 h4        1 ZIG      0.032100
     51 HN30        3.9080    1.3750    1.5660 hn        1 ZIG      0.470800
     52 N30         3.3110    0.6140    1.3080 nh        1 ZIG     -0.762500
     53 F34         4.8520   -0.5810   -4.8720 f         1 ZIG     -0.120900
@<TRIPOS>BOND
     1    1   32 1   
     2    1   35 1   
     3    1   36 1   
     4    1   37 1   
     5    2    4 ar  
     6    2   15 ar  
     7    2   38 1   
     8    3    5 ar  
     9    3   16 ar  
    10    3   39 1   
    11    4   19 ar  
    12    4   40 1   
    13    5   20 ar  
    14    5   41 1   
    15    6    8 ar  
    16    6   17 ar  
    17    6   42 1   
    18    7    9 ar  
    19    7   18 ar  
    20    7   43 1   
    21    8   27 ar  
    22    8   44 1   
    23    9   26 ar  
    24    9   45 1   
    25   10   15 ar  
    26   10   22 ar  
    27   10   46 1   
    28   11   16 ar  
    29   11   24 ar  
    30   11   47 1   
    31   12   21 ar  
    32   12   23 ar  
    33   12   48 1   
    34   13   17 ar  
    35   13   29 ar  
    36   13   49 1   
    37   14   21 ar  
    38   14   28 ar  
    39   14   50 1   
    40   15   21 1   
    41   16   53 1   
    42   17   18 1   
    43   18   22 ar  
    44   19   22 ar  
    45   19   26 ar  
    46   20   24 ar  
    47   20   34 1   
    48   23   25 ar  
    49   23   52 1   
    50   24   33 1   
    51   25   28 ar  
    52   25   32 1   
    53   27   29 ar  
    54   30   34 2   
    55   31   34 2   
    56   34   52 1   
    57   51   52 1   
@<TRIPOS>SUBSTRUCTURE
     1 ZIG         1 TEMP              0 ****  ****    0 ROOT
