@<TRIPOS>MOLECULE
ZIG
   53    55     1     0     0
SMALL
bcc


@<TRIPOS>ATOM
      1 C1          1.2680   -1.7950   -3.3990 c2        1 ZIG      0.144000
      2 C2          3.9260   -0.3380    5.2000 ca        1 ZIG     -0.090000
      3 C3          6.5250   -2.2680    1.8260 c3        1 ZIG     -0.048000
      4 C4          4.1430   -1.3920    6.0790 ca        1 ZIG     -0.128000
      5 C5          5.5590   -1.7510    0.8250 c2        1 ZIG     -0.339000
      6 C6          0.5590   -0.0260   10.8510 c3        1 ZIG     -0.291000
      7 C7          0.4090   -1.8290    8.5590 c2        1 ZIG     -0.146000
      8 C8          0.7320    0.9970   11.9140 c1        1 ZIG      0.022000
      9 C9          3.7460   -3.5180    8.8140 c1        1 ZIG      0.168000
     10 C10         2.0310    0.3830    6.5210 ca        1 ZIG     -0.093000
     11 C11         6.2030   -4.5030    0.7370 c2        1 ZIG     -0.237000
     12 C12         4.8540   -0.5960    1.1660 c2        1 ZIG      0.234000
     13 C13         2.3070    1.1690    9.6410 c2        1 ZIG     -0.228000
     14 C14         2.6020    1.3050    3.1240 c1        1 ZIG      0.069000
     15 C15         2.8710    0.5560    5.4200 ca        1 ZIG     -0.118000
     16 C16         6.5940   -3.7650    1.8090 c2        1 ZIG      0.110000
     17 C17         1.4250    0.1210    9.6500 c2        1 ZIG     -0.018000
     18 C18         1.3120   -0.8340    8.5560 c2        1 ZIG     -0.067000
     19 C19         3.3030   -1.5750    7.2020 ca        1 ZIG      0.122000
     20 C20         5.3670   -2.4850   -0.4000 c2        1 ZIG     -0.588000
     21 C21         2.6670    1.7180    4.5060 c3        1 ZIG     -0.004000
     22 C22         2.2310   -0.6710    7.4170 ca        1 ZIG     -0.064000
     23 C23         3.7130   -0.1760    0.2510 c2        1 ZIG      0.193000
     24 C24         5.6580   -3.8260   -0.4250 c2        1 ZIG      0.173000
     25 C25         2.5990    0.5300    0.7450 c2        1 ZIG     -0.291000
     26 N26         3.5320   -2.6210    8.0700 n2        1 ZIG     -0.309000
     27 N27         1.6870    2.0060   11.7120 n2        1 ZIG     -0.133000
     28 N28         2.5010    0.9670    2.0140 n2        1 ZIG      0.118000
     29 N29         2.4000    2.0980   10.7060 n2        1 ZIG      0.072000
     30 O31         5.0600    0.1120    2.1960 o         1 ZIG     -0.501000
     31 O32         4.2560   -2.2970   -2.7410 o         1 ZIG     -0.800000
     32 O33         1.1870   -0.8060   -2.6660 o         1 ZIG     -0.338000
     33 F35         5.4910   -4.5830   -1.5340 f         1 ZIG     -0.095000
     34 S36         4.9600   -1.4990   -1.7110 s4        1 ZIG      1.602000
     35 H1          1.7200    0.7700    0.1190 h4        1 ZIG      0.188000
     36 H1A         2.2120   -2.3730   -3.5140 h4        1 ZIG      0.100500
     37 H1B         0.3900   -2.1500   -3.9800 h4        1 ZIG      0.100500
     38 H2          4.5870   -0.2140    4.3180 ha        1 ZIG      0.199000
     39 H3          7.5580   -1.8690    1.6210 hc        1 ZIG      0.097000
     40 H4          4.9780   -2.0860    5.8890 ha        1 ZIG      0.164000
     41 H5          6.2410   -1.9110    2.8560 hc        1 ZIG      0.097000
     42 H6         -0.5340   -0.0110   10.5630 hc        1 ZIG      0.180500
     43 H7          0.3320   -2.5460    7.7290 ha        1 ZIG      0.131000
     44 H8          0.7360   -1.0290   11.3440 hc        1 ZIG      0.180500
     45 H9         -0.2980   -1.9890    9.3840 ha        1 ZIG      0.131000
     46 H10         1.1980    1.0820    6.6980 ha        1 ZIG      0.142000
     47 H11         6.2820   -5.5980    0.7100 ha        1 ZIG      0.156000
     48 H12         3.5380    2.4340    4.6080 hc        1 ZIG      0.146500
     49 H13         3.0050    1.3660    8.8100 h4        1 ZIG      0.177000
     50 H14         1.7220    2.2770    4.7600 hc        1 ZIG      0.146500
     51 HN30        2.9380   -0.3190   -1.6130 hn        1 ZIG      0.258000
     52 N30         3.7490   -0.5240   -1.0570 n7        1 ZIG     -0.586000
     53 F34         7.0880   -4.3530    2.9220 f         1 ZIG     -0.111000
@<TRIPOS>BOND
     1    1   32 1   
     2    1   36 1   
     3    1   37 1   
     4    2    4 1   
     5    2   15 1   
     6    2   38 1   
     7    3    5 1   
     8    3   16 1   
     9    3   39 1   
    10    3   41 1   
    11    4   19 1   
    12    4   40 1   
    13    5   12 1   
    14    5   20 1   
    15    6    8 1   
    16    6   17 1   
    17    6   42 1   
    18    6   44 1   
    19    7   18 1   
    20    7   43 1   
    21    7   45 1   
    22    8   27 1   
    23    9   26 1   
    24   10   15 1   
    25   10   22 1   
    26   10   46 1   
    27   11   16 1   
    28   11   24 1   
    29   11   47 1   
    30   12   23 1   
    31   12   30 1   
    32   13   17 1   
    33   13   29 1   
    34   13   49 1   
    35   14   21 1   
    36   14   28 1   
    37   15   21 1   
    38   16   53 1   
    39   17   18 1   
    40   18   22 1   
    41   19   22 1   
    42   19   26 1   
    43   20   24 1   
    44   20   34 1   
    45   21   48 1   
    46   21   50 1   
    47   23   25 1   
    48   23   52 1   
    49   24   33 1   
    50   25   28 1   
    51   25   35 1   
    52   27   29 1   
    53   31   34 1   
    54   34   52 1   
    55   51   52 1   
@<TRIPOS>SUBSTRUCTURE
     1 ZIG         1 TEMP              0 ****  ****    0 ROOT
