@<TRIPOS>MOLECULE
ZIL
   56    56     1     0     0
SMALL
bcc


@<TRIPOS>ATOM
      1 C12         0.4960   -0.1540   -0.2370 c         1 ZIL      0.726100
      2 O3          1.7140    0.0720   -0.1380 o         1 ZIL     -0.595000
      3 O4         -0.3040    0.1210    0.8630 os        1 ZIL     -0.448900
      4 C13         0.4070    0.5850    2.0220 c3        1 ZIL      0.194700
      5 C14        -0.5930    0.8710    3.0920 ca        1 ZIL     -0.085300
      6 C15        -0.1860    0.8010    4.4300 ca        1 ZIL     -0.114000
      7 C16        -1.0860    1.1010    5.4500 ca        1 ZIL     -0.134500
      8 C17        -2.3970    1.4650    5.1430 ca        1 ZIL     -0.135000
      9 C18        -2.8060    1.5300    3.8120 ca        1 ZIL     -0.134500
     10 C19        -1.9080    1.2370    2.7870 ca        1 ZIL     -0.114000
     11 N1         -0.2050   -0.7530   -1.2680 n         1 ZIL     -0.484900
     12 C4          0.3310   -0.6670   -2.6210 c3        1 ZIL      0.008700
     13 C5         -0.4440    0.3920   -3.4590 c         1 ZIL      0.619100
     14 O          -1.6430    0.6370   -3.1810 o         1 ZIL     -0.657100
     15 C2          0.2670   -2.0440   -3.3250 c3        1 ZIL     -0.053700
     16 C1          1.1830   -2.1150   -4.5380 c3        1 ZIL     -0.110400
     17 C3         -1.1490   -2.3980   -3.7260 c3        1 ZIL     -0.096100
     18 C           2.6400   -1.9290   -4.2000 c3        1 ZIL     -0.086100
     19 N           0.2700    1.0750   -4.4080 n         1 ZIL     -0.485900
     20 C6         -0.3910    1.7440   -5.5180 c3        1 ZIL     -0.066300
     21 C11        -0.0060    1.1000   -6.9030 c         1 ZIL      0.906600
     22 O1          0.8810    0.1980   -6.9190 o         1 ZIL     -0.830300
     23 C7         -0.0610    3.2360   -5.5960 c3        1 ZIL     -0.061400
     24 C8         -0.5040    4.0510   -4.3910 c3        1 ZIL     -0.066700
     25 C9         -0.1100    5.5020   -4.5850 c3        1 ZIL     -0.090100
     26 C10        -1.9950    3.9390   -4.1520 c3        1 ZIL     -0.090100
     27 O2         -0.6240    1.5270   -7.9100 o         1 ZIL     -0.830300
     28 H23         0.9750    1.5160    1.7500 h1        1 ZIL      0.061700
     29 H24         1.1350   -0.2090    2.3380 h1        1 ZIL      0.061700
     30 H25         0.8460    0.5080    4.6730 ha        1 ZIL      0.143000
     31 H26        -0.7610    1.0470    6.4990 ha        1 ZIL      0.127500
     32 H27        -3.1060    1.6990    5.9500 ha        1 ZIL      0.124000
     33 H28        -3.8400    1.8150    3.5660 ha        1 ZIL      0.127500
     34 H29        -2.2270    1.2830    1.7330 ha        1 ZIL      0.143000
     35 H22        -1.2030   -0.6700   -1.2200 hn        1 ZIL      0.327500
     36 H9          1.4210   -0.3680   -2.5400 h1        1 ZIL      0.097700
     37 H5          0.6300   -2.8150   -2.5840 hc        1 ZIL      0.046700
     38 H3          1.0470   -3.1330   -4.9970 hc        1 ZIL      0.076700
     39 H4          0.8770   -1.3720   -5.3300 hc        1 ZIL      0.076700
     40 H6         -1.5410   -1.6670   -4.4760 hc        1 ZIL      0.039700
     41 H7         -1.1750   -3.4180   -4.1790 hc        1 ZIL      0.039700
     42 H8         -1.8270   -2.3870   -2.8390 hc        1 ZIL      0.039700
     43 H           2.9300   -2.5380   -3.3100 hc        1 ZIL      0.027700
     44 H1          2.8690   -0.8570   -3.9840 hc        1 ZIL      0.027700
     45 H2          3.2700   -2.2410   -5.0670 hc        1 ZIL      0.027700
     46 H10         1.1460    0.6650   -4.6840 hn        1 ZIL      0.317500
     47 H11        -1.5080    1.6280   -5.4010 h1        1 ZIL      0.072700
     48 H12        -0.5690    3.6200   -6.5220 hc        1 ZIL      0.050700
     49 H13         1.0440    3.3680   -5.7370 hc        1 ZIL      0.050700
     50 H14         0.0290    3.6630   -3.4780 hc        1 ZIL      0.043700
     51 H15        -0.3890    6.1060   -3.6880 hc        1 ZIL      0.027367
     52 H16         0.9920    5.5890   -4.7420 hc        1 ZIL      0.027367
     53 H17        -0.6280    5.9320   -5.4760 hc        1 ZIL      0.027367
     54 H18        -2.2530    2.9010   -3.8230 hc        1 ZIL      0.027367
     55 H19        -2.5610    4.1700   -5.0860 hc        1 ZIL      0.027367
     56 H20        -2.3160    4.6540   -3.3560 hc        1 ZIL      0.027367
@<TRIPOS>BOND
     1    1    2 2   
     2    1    3 1   
     3    1   11 1   
     4    3    4 1   
     5    4    5 1   
     6    4   28 1   
     7    4   29 1   
     8    5    6 ar  
     9    5   10 ar  
    10    6    7 ar  
    11    6   30 1   
    12    7    8 ar  
    13    7   31 1   
    14    8    9 ar  
    15    8   32 1   
    16    9   10 ar  
    17    9   33 1   
    18   10   34 1   
    19   11   12 1   
    20   11   35 1   
    21   12   13 1   
    22   12   15 1   
    23   12   36 1   
    24   13   14 2   
    25   13   19 1   
    26   15   16 1   
    27   15   17 1   
    28   15   37 1   
    29   16   18 1   
    30   16   38 1   
    31   16   39 1   
    32   17   40 1   
    33   17   41 1   
    34   17   42 1   
    35   18   43 1   
    36   18   44 1   
    37   18   45 1   
    38   19   20 1   
    39   19   46 1   
    40   20   21 1   
    41   20   23 1   
    42   20   47 1   
    43   21   22 1   
    44   21   27 1   
    45   23   24 1   
    46   23   48 1   
    47   23   49 1   
    48   24   25 1   
    49   24   26 1   
    50   24   50 1   
    51   25   51 1   
    52   25   52 1   
    53   25   53 1   
    54   26   54 1   
    55   26   55 1   
    56   26   56 1   
@<TRIPOS>SUBSTRUCTURE
     1 ZIL         1 TEMP              0 ****  ****    0 ROOT
