@<TRIPOS>MOLECULE
ZIL
   58    58     1     0     0
SMALL
bcc


@<TRIPOS>ATOM
      1 C12         0.0310   -0.5070    0.2210 c         1 ZIL      0.624100
      2 O3          0.8690    0.3760    0.3440 o         1 ZIL     -0.431000
      3 O4         -0.3290   -1.4090    1.1480 os        1 ZIL     -0.409900
      4 C13         0.1410   -1.1800    2.5230 c3        1 ZIL      0.213700
      5 C14        -0.7180   -0.1880    3.2120 ca        1 ZIL     -0.186300
      6 C15        -0.3040    1.1460    3.3180 ca        1 ZIL     -0.093500
      7 C16        -2.7050    0.3310    4.4910 ca        1 ZIL     -0.130000
      8 C17        -2.2890    1.6590    4.5970 ca        1 ZIL     -0.085000
      9 C18        -1.0890    2.0660    4.0100 ca        1 ZIL     -0.130000
     10 C19        -1.9230   -0.5930    3.8010 ca        1 ZIL     -0.093500
     11 N1         -0.7260   -0.7450   -1.0460 ny        1 ZIL     -0.641800
     12 C4          0.0730   -0.4310   -2.2910 c3        1 ZIL      0.048500
     13 C5         -0.7670    0.5140   -3.1940 c         1 ZIL      0.652100
     14 O          -1.9950    0.6160   -2.9920 o         1 ZIL     -0.602100
     15 C2          0.4610   -1.7300   -3.0310 c3        1 ZIL     -0.075700
     16 C1          1.5880   -1.5160   -4.0340 c3        1 ZIL     -0.100400
     17 C3         -0.7310   -2.3460   -3.7340 c3        1 ZIL     -0.122100
     18 C           2.8120   -0.8560   -3.4590 c3        1 ZIL     -0.110100
     19 N          -0.0860    1.2650   -4.1170 ns        1 ZIL     -0.493900
     20 C6         -0.7970    1.8920   -5.2180 c3        1 ZIL     -0.004300
     21 C11        -1.0410    0.9000   -6.3600 c         1 ZIL      0.602100
     22 O1         -0.5280   -0.2150   -6.4690 o         1 ZIL     -0.503000
     23 C7         -0.0460    3.1090   -5.7820 c3        1 ZIL     -0.085400
     24 C8         -0.1110    4.3220   -4.8650 c3        1 ZIL     -0.067700
     25 C9          0.9620    5.3160   -5.2640 c3        1 ZIL     -0.098100
     26 C10        -1.4740    4.9820   -4.9160 c3        1 ZIL     -0.098100
     27 O2         -1.9020    1.2280   -7.3550 oh        1 ZIL     -0.543100
     28 H23         1.2160   -0.8670    2.4830 h1        1 ZIL      0.100700
     29 H24         0.0280   -2.2180    2.9440 h1        1 ZIL      0.100700
     30 H25         0.6450    1.4650    2.8580 ha        1 ZIL      0.142500
     31 H26        -3.6490    0.0100    4.9590 ha        1 ZIL      0.152500
     32 H27        -2.9050    2.3870    5.1500 ha        1 ZIL      0.153000
     33 H28        -0.7580    3.1120    4.1010 ha        1 ZIL      0.152500
     34 H29        -2.2460   -1.6420    3.7270 ha        1 ZIL      0.142500
     35 H22        -1.0390   -1.7270   -1.0730 hn        1 ZIL      0.488300
     36 H9          1.0140    0.1070   -1.9570 hx        1 ZIL      0.143700
     37 H5          0.8510   -2.4560   -2.2570 hc        1 ZIL      0.065700
     38 H3          1.2120   -0.9560   -4.9330 hc        1 ZIL      0.082200
     39 H4          1.8730   -2.5380   -4.4130 hc        1 ZIL      0.082200
     40 H6         -1.0820   -1.6880   -4.5700 hc        1 ZIL      0.064367
     41 H7         -1.5830   -2.5200   -3.0340 hc        1 ZIL      0.064367
     42 H8         -0.4370   -3.3310   -4.1760 hc        1 ZIL      0.064367
     43 H           3.1110   -1.3330   -2.4940 hc        1 ZIL      0.045700
     44 H1          3.6660   -0.9630   -4.1760 hc        1 ZIL      0.045700
     45 H2          2.6560    0.2360   -3.2820 hc        1 ZIL      0.045700
     46 H10         0.8740    1.0490   -4.2920 hn        1 ZIL      0.332500
     47 H11        -1.8100    2.2240   -4.8280 h1        1 ZIL      0.118700
     48 H12         1.0270    2.8400   -5.9760 hc        1 ZIL      0.067200
     49 H13        -0.5040    3.3690   -6.7740 hc        1 ZIL      0.067200
     50 H14         0.0880    3.9930   -3.8070 hc        1 ZIL      0.051700
     51 H15         1.9770    4.8610   -5.1640 hc        1 ZIL      0.044200
     52 H16         0.9120    6.2170   -4.6070 hc        1 ZIL      0.044200
     53 H17         0.8220    5.6420   -6.3230 hc        1 ZIL      0.044200
     54 H18        -2.2740    4.2780   -4.5860 hc        1 ZIL      0.044200
     55 H19        -1.4910    5.8710   -4.2390 hc        1 ZIL      0.044200
     56 H20        -1.7070    5.3280   -5.9520 hc        1 ZIL      0.044200
     57 H121       -1.5760   -0.1460   -1.0310 hn        1 ZIL      0.488300
     58 HN3        -2.2830    2.1060   -7.2000 ho        1 ZIL      0.439000
@<TRIPOS>BOND
     1    1    2 2   
     2    1    3 1   
     3    1   11 1   
     4    3    4 1   
     5    4    5 1   
     6    4   28 1   
     7    4   29 1   
     8    5    6 ar  
     9    5   10 ar  
    10    6    9 ar  
    11    6   30 1   
    12    7    8 ar  
    13    7   10 ar  
    14    7   31 1   
    15    8    9 ar  
    16    8   32 1   
    17    9   33 1   
    18   10   34 1   
    19   11   12 1   
    20   11   35 1   
    21   11   57 1   
    22   12   13 1   
    23   12   15 1   
    24   12   36 1   
    25   13   14 2   
    26   13   19 1   
    27   15   16 1   
    28   15   17 1   
    29   15   37 1   
    30   16   18 1   
    31   16   38 1   
    32   16   39 1   
    33   17   40 1   
    34   17   41 1   
    35   17   42 1   
    36   18   43 1   
    37   18   44 1   
    38   18   45 1   
    39   19   20 1   
    40   19   46 1   
    41   20   21 1   
    42   20   23 1   
    43   20   47 1   
    44   21   22 2   
    45   21   27 1   
    46   23   24 1   
    47   23   48 1   
    48   23   49 1   
    49   24   25 1   
    50   24   26 1   
    51   24   50 1   
    52   25   51 1   
    53   25   52 1   
    54   25   53 1   
    55   26   54 1   
    56   26   55 1   
    57   26   56 1   
    58   27   58 1   
@<TRIPOS>SUBSTRUCTURE
     1 ZIL         1 TEMP              0 ****  ****    0 ROOT
