@<TRIPOS>MOLECULE
ZIN
   30    32     1     0     0
SMALL
bcc


@<TRIPOS>ATOM
      1 CAA         0.1370    0.1620    0.6190 ca        1 ZIN     -0.098300
      2 CAB        -0.9910   -0.4500    1.1650 ca        1 ZIN      0.091800
      3 CAC         1.4690   -0.0500    1.2470 c3        1 ZIN     -0.078400
      4 CAD        -2.2950   -0.2500    0.5900 ca        1 ZIN      0.335600
      5 CAF        -0.0120    1.0000   -0.5090 ca        1 ZIN     -0.078000
      6 NAG        -3.4020   -0.8720    1.1380 nb        1 ZIN     -0.676000
      7 CAH         2.6180    0.0240    0.2800 ca        1 ZIN      0.409600
      8 NAI         2.7020   -0.8930   -0.7170 nb        1 ZIN     -0.656000
      9 CAJ        -2.3990    0.6010   -0.5530 ca        1 ZIN     -0.114300
     10 CAK        -1.2410    1.2160   -1.0830 ca        1 ZIN     -0.150000
     11 OAM        -0.7890   -1.2280    2.2780 oh        1 ZIN     -0.499100
     12 CAT        -4.5760   -0.6600    0.5750 ca        1 ZIN      0.412200
     13 CAU         3.7580   -0.8190   -1.5450 ca        1 ZIN      0.396200
     14 CAV         3.5950    1.0280    0.4640 ca        1 ZIN     -0.248300
     15 CAW        -3.6910    0.7980   -1.1250 ca        1 ZIN     -0.082000
     16 CAY        -4.7790    0.1750   -0.5710 ca        1 ZIN     -0.244300
     17 CAZ         4.7760    0.1470   -1.4350 ca        1 ZIN     -0.251300
     18 CBA         4.6840    1.0840   -0.4070 ca        1 ZIN     -0.093000
     19 HAC         1.6120    0.7270    2.0480 hc        1 ZIN      0.074700
     20 HACA        1.4860   -1.0560    1.7550 hc        1 ZIN      0.074700
     21 HAF         0.8880    1.4770   -0.9300 ha        1 ZIN      0.141000
     22 HAK        -1.3440    1.8690   -1.9620 ha        1 ZIN      0.136000
     23 HOAM       -1.6180   -1.6720    2.5130 ho        1 ZIN      0.446000
     24 HAT        -5.4400   -1.1730    1.0370 h4        1 ZIN      0.023100
     25 HAU         3.7890   -1.5830   -2.3420 h4        1 ZIN      0.022100
     26 HAV         3.4960    1.7520    1.2830 ha        1 ZIN      0.143000
     27 HAW        -3.7860    1.4500   -2.0060 ha        1 ZIN      0.140000
     28 HAY        -5.7910    0.2970   -0.9760 ha        1 ZIN      0.145000
     29 HAZ         5.6160    0.1540   -2.1410 ha        1 ZIN      0.143000
     30 HBA         5.4580    1.8560   -0.2820 ha        1 ZIN      0.137000
@<TRIPOS>BOND
     1    1    2 ar  
     2    1    3 1   
     3    1    5 ar  
     4    2    4 ar  
     5    2   11 1   
     6    3    7 1   
     7    3   19 1   
     8    3   20 1   
     9    4    6 ar  
    10    4    9 ar  
    11    5   10 ar  
    12    5   21 1   
    13    6   12 ar  
    14    7    8 ar  
    15    7   14 ar  
    16    8   13 ar  
    17    9   10 ar  
    18    9   15 ar  
    19   10   22 1   
    20   11   23 1   
    21   12   16 ar  
    22   12   24 1   
    23   13   17 ar  
    24   13   25 1   
    25   14   18 ar  
    26   14   26 1   
    27   15   16 ar  
    28   15   27 1   
    29   16   28 1   
    30   17   18 ar  
    31   17   29 1   
    32   18   30 1   
@<TRIPOS>SUBSTRUCTURE
     1 ZIN         1 TEMP              0 ****  ****    0 ROOT
