@<TRIPOS>MOLECULE
ZIN
   30    26     1     0     0
SMALL
bcc


@<TRIPOS>ATOM
      1 CAA        -0.3180    0.8890   -0.1300 c1        1 ZIN     -0.105000
      2 CAB         1.0700    0.8870   -0.1670 c2        1 ZIN      0.114000
      3 CAC        -1.1020    0.9650   -1.4210 c2        1 ZIN     -0.071000
      4 CAD         1.8070    0.8710    1.0320 c1        1 ZIN     -0.060000
      5 CAF        -0.9820    0.8760    1.0940 c1        1 ZIN     -0.077000
      6 NAG         3.1910    0.8740    0.9960 n2        1 ZIN     -0.151000
      7 CAH        -1.5850   -0.4180   -1.7980 c2        1 ZIN     -0.011000
      8 NAI        -1.2030   -1.4980   -1.0610 n2        1 ZIN     -0.145000
      9 CAJ         1.1520    0.8580    2.2410 c1        1 ZIN     -0.047000
     10 CAK        -0.2560    0.8610    2.2780 c1        1 ZIN     -0.152000
     11 OAM         1.9000    0.7330   -1.2930 oh        1 ZIN     -0.258000
     12 CAT         3.9070    0.8650    2.1580 c1        1 ZIN     -0.053000
     13 CAU        -1.6670   -2.7390   -1.3780 c1        1 ZIN     -0.071000
     14 CAV        -2.4470   -0.5810   -2.8720 c1        1 ZIN     -0.170000
     15 CAW         1.8790    0.8490    3.4220 c2        1 ZIN     -0.082000
     16 CAY         3.2460    0.8520    3.3830 c1        1 ZIN     -0.178000
     17 CAZ        -2.5290   -2.9050   -2.4500 c1        1 ZIN     -0.139500
     18 CBA        -2.9130   -1.8240   -3.1900 c1        1 ZIN     -0.139500
     19 HAC        -1.8710    1.5580   -1.3010 ha        1 ZIN      0.112000
     20 HACA       -0.5280    1.3140   -2.1310 ha        1 ZIN      0.112000
     21 HAF        -1.9570    0.8780    1.1190 ha        1 ZIN      0.151000
     22 HAK        -0.7220    0.8520    3.1350 ha        1 ZIN      0.138000
     23 HOAM        2.3650    1.4800   -1.4220 ho        1 ZIN      0.245000
     24 HAT         4.8820    0.8670    2.1310 ha        1 ZIN      0.160000
     25 HAU        -1.3920   -3.5120   -0.8490 ha        1 ZIN      0.156000
     26 HAV        -2.7210    0.1930   -3.4000 ha        1 ZIN      0.156000
     27 HAW         1.4150    0.8400    4.2810 ha        1 ZIN      0.142000
     28 HAY         3.7580    0.8450    4.2140 ha        1 ZIN      0.146000
     29 HAZ        -2.8610   -3.7940   -2.6770 ha        1 ZIN      0.139000
     30 HBA        -3.5190   -1.9390   -3.9450 ha        1 ZIN      0.139000
@<TRIPOS>BOND
     1    1    2 1   
     2    1    5 1   
     3    2    4 1   
     4    2   11 1   
     5    3    7 1   
     6    3   19 1   
     7    3   20 1   
     8    4    6 1   
     9    5   21 1   
    10    6   12 1   
    11    7    8 1   
    12    7   14 1   
    13    8   13 1   
    14    9   10 1   
    15    9   15 1   
    16   10   22 1   
    17   11   23 1   
    18   12   24 1   
    19   13   25 1   
    20   14   26 1   
    21   15   16 1   
    22   15   27 1   
    23   16   28 1   
    24   17   18 1   
    25   17   29 1   
    26   18   30 1   
@<TRIPOS>SUBSTRUCTURE
     1 ZIN         1 TEMP              0 ****  ****    0 ROOT
