@<TRIPOS>MOLECULE
ZIN
   30    32     1     0     0
SMALL
bcc


@<TRIPOS>ATOM
      1 CAA         0.5170   -0.3660   -0.2350 ca        1 ZIN     -0.098300
      2 CAB         1.6950    0.3410    0.0020 ca        1 ZIN      0.091800
      3 CAC        -0.0530   -0.4140   -1.6090 c3        1 ZIN     -0.078400
      4 CAD         2.2600    0.4190    1.3230 ca        1 ZIN      0.335600
      5 CAF        -0.1350   -1.0030    0.8460 ca        1 ZIN     -0.078000
      6 NAG         3.4350    1.1160    1.5390 nb        1 ZIN     -0.676000
      7 CAH        -0.8240   -1.6700   -1.9070 ca        1 ZIN      0.409600
      8 NAI        -0.1730   -2.8620   -1.8970 nb        1 ZIN     -0.656000
      9 CAJ         1.5720   -0.2430    2.3850 ca        1 ZIN     -0.114300
     10 CAK         0.3740   -0.9460    2.1210 ca        1 ZIN     -0.150000
     11 OAM         2.2660    0.9630   -1.0810 oh        1 ZIN     -0.499100
     12 CAT         3.9150    1.1580    2.7670 ca        1 ZIN      0.412200
     13 CAU        -0.8850   -3.9620   -2.2000 ca        1 ZIN      0.396200
     14 CAV        -2.1970   -1.5640   -2.2210 ca        1 ZIN     -0.248300
     15 CAW         2.1320   -0.1680    3.6950 ca        1 ZIN     -0.082000
     16 CAY         3.2960    0.5270    3.8940 ca        1 ZIN     -0.244300
     17 CAZ        -2.2540   -3.9480   -2.5250 ca        1 ZIN     -0.251300
     18 CBA        -2.9140   -2.7200   -2.5340 ca        1 ZIN     -0.093000
     19 HAC         0.7800   -0.3130   -2.3620 hc        1 ZIN      0.074700
     20 HACA       -0.7300    0.4740   -1.7450 hc        1 ZIN      0.074700
     21 HAF        -1.0650   -1.5580    0.6430 ha        1 ZIN      0.141000
     22 HAK        -0.1410   -1.4480    2.9530 ha        1 ZIN      0.136000
     23 HOAM        3.1190    1.3410   -0.8190 ho        1 ZIN      0.446000
     24 HAT         4.8560    1.7230    2.9050 h4        1 ZIN      0.023100
     25 HAU        -0.3180   -4.9110   -2.1810 h4        1 ZIN      0.022100
     26 HAV        -2.6900   -0.5830   -2.2210 ha        1 ZIN      0.143000
     27 HAW         1.6130   -0.6740    4.5230 ha        1 ZIN      0.140000
     28 HAY         3.7640    0.6120    4.8830 ha        1 ZIN      0.145000
     29 HAZ        -2.7790   -4.8810   -2.7650 ha        1 ZIN      0.143000
     30 HBA        -3.9830   -2.6600   -2.7840 ha        1 ZIN      0.137000
@<TRIPOS>BOND
     1    1    2 ar  
     2    1    3 1   
     3    1    5 ar  
     4    2    4 ar  
     5    2   11 1   
     6    3    7 1   
     7    3   19 1   
     8    3   20 1   
     9    4    6 ar  
    10    4    9 ar  
    11    5   10 ar  
    12    5   21 1   
    13    6   12 ar  
    14    7    8 ar  
    15    7   14 ar  
    16    8   13 ar  
    17    9   10 ar  
    18    9   15 ar  
    19   10   22 1   
    20   11   23 1   
    21   12   16 ar  
    22   12   24 1   
    23   13   17 ar  
    24   13   25 1   
    25   14   18 ar  
    26   14   26 1   
    27   15   16 ar  
    28   15   27 1   
    29   16   28 1   
    30   17   18 ar  
    31   17   29 1   
    32   18   30 1   
@<TRIPOS>SUBSTRUCTURE
     1 ZIN         1 TEMP              0 ****  ****    0 ROOT
