@<TRIPOS>MOLECULE
ZIP
   28    29     1     0     0
SMALL
bcc


@<TRIPOS>ATOM
      1 C14        -1.1110   -0.0040    5.4280 c3        1 ZIP     -0.064400
      2 C13        -0.2140   -0.1270    4.2540 c2        1 ZIP     -0.101400
      3 C15         1.1860   -0.5210    4.5440 c3        1 ZIP     -0.064400
      4 C12        -0.6510    0.1060    3.0060 c2        1 ZIP     -0.205200
      5 C11         0.2540    0.0010    1.8220 c3        1 ZIP      0.256000
      6 N10        -0.4280    0.1080    0.5570 nh        1 ZIP     -0.858900
      7 C6          0.2310    0.0280   -0.6440 ca        1 ZIP      0.765200
      8 C5         -0.5220    0.0670   -1.8690 ca        1 ZIP     -0.234200
      9 N9         -1.8930    0.1550   -2.1460 nc        1 ZIP     -0.542100
     10 C4          0.2330    0.0100   -3.1160 ca        1 ZIP      0.454800
     11 N7         -0.7270    0.0670   -4.1320 na        1 ZIP     -0.379000
     12 C8         -1.9800    0.1530   -3.4850 cd        1 ZIP      0.396700
     13 N3          1.5970   -0.0820   -3.1770 nb        1 ZIP     -0.737000
     14 C2          2.1670   -0.1150   -1.9510 ca        1 ZIP      0.687900
     15 N1          1.6010   -0.0710   -0.7150 nb        1 ZIP     -0.796000
     16 H141       -1.1400   -0.9720    5.9890 hc        1 ZIP      0.045367
     17 H142       -0.7290    0.7890    6.1190 hc        1 ZIP      0.045367
     18 H143       -2.1540    0.2620    5.1270 hc        1 ZIP      0.045367
     19 H151        1.9020    0.2020    4.0770 hc        1 ZIP      0.045367
     20 H152        1.3800   -0.5500    5.6440 hc        1 ZIP      0.045367
     21 H153        1.3970   -1.5360    4.1210 hc        1 ZIP      0.045367
     22 H12        -1.6980    0.3990    2.8270 ha        1 ZIP      0.130000
     23 H111        1.0330    0.8210    1.8840 h1        1 ZIP      0.061700
     24 H112        0.8110   -0.9840    1.8650 h1        1 ZIP      0.061700
     25 H10        -1.4220    0.1080    0.5430 hn        1 ZIP      0.456800
     26 H7         -0.5520    0.0520   -5.1010 hn        1 ZIP      0.317700
     27 H8         -2.9120    0.2110   -4.0590 h5        1 ZIP      0.072800
     28 H2          3.2760   -0.1920   -1.9460 h5        1 ZIP      0.051100
@<TRIPOS>BOND
     1    1    2 1   
     2    1   16 1   
     3    1   17 1   
     4    1   18 1   
     5    2    3 1   
     6    2    4 2   
     7    3   19 1   
     8    3   20 1   
     9    3   21 1   
    10    4    5 1   
    11    4   22 1   
    12    5    6 1   
    13    5   23 1   
    14    5   24 1   
    15    6    7 1   
    16    6   25 1   
    17    7    8 ar  
    18    7   15 ar  
    19    8    9 1   
    20    8   10 ar  
    21    9   12 2   
    22   10   11 1   
    23   10   13 ar  
    24   11   12 1   
    25   11   26 1   
    26   12   27 1   
    27   13   14 ar  
    28   14   15 ar  
    29   14   28 1   
@<TRIPOS>SUBSTRUCTURE
     1 ZIP         1 TEMP              0 ****  ****    0 ROOT
