@<TRIPOS>MOLECULE
ZIP
   28    29     1     0     0
SMALL
bcc


@<TRIPOS>ATOM
      1 C14        -0.0050    0.2700    0.1130 c3        1 ZIP     -0.064400
      2 C13         1.4680    0.1040    0.1420 c2        1 ZIP     -0.101400
      3 C15         2.1590    0.6400    1.3390 c3        1 ZIP     -0.064400
      4 C12         2.1290   -0.4980   -0.8600 c2        1 ZIP     -0.205200
      5 C11         3.6150   -0.6520   -0.8430 c3        1 ZIP      0.256000
      6 N10         4.1250   -1.4810   -1.9050 nu        1 ZIP     -0.858900
      7 C6          5.4630   -1.7480   -2.0520 ca        1 ZIP      0.765200
      8 C5          5.8970   -2.6470   -3.0870 ca        1 ZIP     -0.234200
      9 N9          5.2100   -3.3980   -4.0510 nc        1 ZIP     -0.542100
     10 C4          7.3330   -2.8680   -3.2190 ca        1 ZIP      0.454800
     11 N7          7.4730   -3.7650   -4.2830 na        1 ZIP     -0.379000
     12 C8          6.1650   -4.0430   -4.7380 cd        1 ZIP      0.396700
     13 N3          8.2720   -2.2760   -2.4180 nb        1 ZIP     -0.737000
     14 C2          7.7180   -1.4640   -1.4890 ca        1 ZIP      0.687900
     15 N1          6.4130   -1.1630   -1.2470 nb        1 ZIP     -0.796000
     16 H141       -0.4560   -0.1890   -0.8000 hc        1 ZIP      0.045367
     17 H142       -0.2670    1.3580    0.1290 hc        1 ZIP      0.045367
     18 H143       -0.4610   -0.2120    1.0140 hc        1 ZIP      0.045367
     19 H151        2.6010   -0.1970    1.9380 hc        1 ZIP      0.045367
     20 H152        2.9930    1.3240    1.0380 hc        1 ZIP      0.045367
     21 H153        1.4550    1.2080    1.9950 hc        1 ZIP      0.045367
     22 H12         1.5830   -0.8840   -1.7360 ha        1 ZIP      0.130000
     23 H111        4.0890    0.3740   -0.9250 h1        1 ZIP      0.061700
     24 H112        3.9340   -1.0810    0.1550 h1        1 ZIP      0.061700
     25 H10         3.4860   -1.9900   -2.4700 hn        1 ZIP      0.456800
     26 H7          8.3200   -4.1230   -4.6370 hn        1 ZIP      0.317700
     27 H8          5.9890   -4.7280   -5.5760 h5        1 ZIP      0.072800
     28 H2          8.4390   -0.9590   -0.8100 h5        1 ZIP      0.051100
@<TRIPOS>BOND
     1    1    2 1   
     2    1   16 1   
     3    1   17 1   
     4    1   18 1   
     5    2    3 1   
     6    2    4 2   
     7    3   19 1   
     8    3   20 1   
     9    3   21 1   
    10    4    5 1   
    11    4   22 1   
    12    5    6 1   
    13    5   23 1   
    14    5   24 1   
    15    6    7 1   
    16    6   25 1   
    17    7    8 ar  
    18    7   15 ar  
    19    8    9 1   
    20    8   10 ar  
    21    9   12 2   
    22   10   11 1   
    23   10   13 ar  
    24   11   12 1   
    25   11   26 1   
    26   12   27 1   
    27   13   14 ar  
    28   14   15 ar  
    29   14   28 1   
@<TRIPOS>SUBSTRUCTURE
     1 ZIP         1 TEMP              0 ****  ****    0 ROOT
