@<TRIPOS>MOLECULE
ZIP
   29    30     1     0     0
SMALL
bcc


@<TRIPOS>ATOM
      1 C14         0.1180    0.3170    0.0930 c3        1 ZIP     -0.096900
      2 C13         1.5820    0.1180   -0.0430 c2        1 ZIP      0.018600
      3 C15         2.3740    0.3840    1.1810 c3        1 ZIP     -0.096900
      4 C12         2.1190   -0.2580   -1.2190 c2        1 ZIP     -0.317200
      5 C11         3.5730   -0.3970   -1.4690 c3        1 ZIP      0.176000
      6 N10         3.9930   -1.8430   -1.3560 n4        1 ZIP     -0.750700
      7 C6          5.4240   -2.0270   -1.6640 ca        1 ZIP      0.543200
      8 C5          5.7960   -2.6120   -2.8900 ca        1 ZIP     -0.141200
      9 N9          5.0940   -3.1120   -3.9930 nc        1 ZIP     -0.577100
     10 C4          7.2530   -2.7600   -3.1140 ca        1 ZIP      0.452800
     11 N7          7.3600   -3.3580   -4.3750 na        1 ZIP     -0.360000
     12 C8          6.0460   -3.5420   -4.8440 cd        1 ZIP      0.498700
     13 N3          8.1880   -2.3630   -2.2150 nb        1 ZIP     -0.620000
     14 C2          7.6640   -1.8190   -1.0870 ca        1 ZIP      0.672900
     15 N1          6.3520   -1.6270   -0.7590 nb        1 ZIP     -0.687000
     16 H141       -0.0880    1.3430    0.4940 hc        1 ZIP      0.068367
     17 H142       -0.3000   -0.4280    0.8170 hc        1 ZIP      0.068367
     18 H143       -0.4150    0.2030   -0.8820 hc        1 ZIP      0.068367
     19 H151        2.6990    1.4560    1.1910 hc        1 ZIP      0.068367
     20 H152        3.2850   -0.2600    1.2420 hc        1 ZIP      0.068367
     21 H153        1.7580    0.2040    2.0990 hc        1 ZIP      0.068367
     22 H12         1.4750   -0.4230   -2.1000 ha        1 ZIP      0.156000
     23 H111        3.8290   -0.0570   -2.5140 hx        1 ZIP      0.111200
     24 H112        4.1910    0.1940   -0.7330 hx        1 ZIP      0.111200
     25 H10         3.8000   -2.1700   -0.3990 hn        1 ZIP      0.468800
     26 H7          8.2050   -3.6010   -4.8340 hn        1 ZIP      0.351700
     27 H8          5.8460   -4.0010   -5.8280 h5        1 ZIP      0.109800
     28 H2          8.4000   -1.4810   -0.3200 h5        1 ZIP      0.098100
     29 H102        3.4390   -2.4100   -2.0130 hn        1 ZIP      0.468800
@<TRIPOS>BOND
     1    1    2 1   
     2    1   16 1   
     3    1   17 1   
     4    1   18 1   
     5    2    3 1   
     6    2    4 2   
     7    3   19 1   
     8    3   20 1   
     9    3   21 1   
    10    4    5 1   
    11    4   22 1   
    12    5    6 1   
    13    5   23 1   
    14    5   24 1   
    15    6    7 1   
    16    6   25 1   
    17    6   29 1   
    18    7    8 ar  
    19    7   15 ar  
    20    8    9 1   
    21    8   10 ar  
    22    9   12 2   
    23   10   11 1   
    24   10   13 ar  
    25   11   12 1   
    26   11   26 1   
    27   12   27 1   
    28   13   14 ar  
    29   14   15 ar  
    30   14   28 1   
@<TRIPOS>SUBSTRUCTURE
     1 ZIP         1 TEMP              0 ****  ****    0 ROOT
