@<TRIPOS>MOLECULE
ZIR
   45    47     1     0     0
SMALL
bcc


@<TRIPOS>ATOM
      1 N1          2.2970   -1.5540   -0.9170 nb        1 ZIR     -0.792000
      2 C2          1.2170   -2.2440   -1.3670 ca        1 ZIR      0.690900
      3 N3         -0.0970   -2.1070   -1.0680 nb        1 ZIR     -0.734000
      4 C4         -0.3270   -1.1030   -0.1710 ca        1 ZIR      0.476800
      5 C5          0.7260   -0.2760    0.4050 ca        1 ZIR     -0.238200
      6 C6          2.0770   -0.5470   -0.0050 ca        1 ZIR      0.765200
      7 N7          0.1700    0.6610    1.2900 nc        1 ZIR     -0.532100
      8 C8         -1.1480    0.4290    1.2640 cd        1 ZIR      0.393700
      9 N9         -1.5230   -0.6490    0.4170 na        1 ZIR     -0.287000
     10 C1'        -2.8470   -1.0750    0.0470 c3        1 ZIR      0.252800
     11 N10         3.1080    0.1790    0.5350 nh        1 ZIR     -0.856900
     12 C11         4.4750    0.0120    0.1100 c3        1 ZIR      0.255000
     13 C12         5.4380    0.9110    0.8150 c2        1 ZIR     -0.206200
     14 C13         6.7210    1.0130    0.4320 c2        1 ZIR     -0.100400
     15 C14         7.6780    1.8920    1.1460 c3        1 ZIR     -0.064400
     16 C15         7.2670    0.2610   -0.7240 c3        1 ZIR     -0.064400
     17 C2'        -3.8490   -1.0900    1.2440 c3        1 ZIR      0.076100
     18 O2'        -4.4610   -2.3640    1.2200 oh        1 ZIR     -0.585800
     19 C3'        -4.8780    0.0230    0.9370 c3        1 ZIR      0.086100
     20 O3'        -6.1880   -0.4950    0.9290 oh        1 ZIR     -0.584800
     21 C4'        -4.4620    0.6010   -0.4260 c3        1 ZIR      0.054100
     22 O4'        -3.4140   -0.2180   -0.9580 os        1 ZIR     -0.415600
     23 C5'        -3.9780    2.0480   -0.3290 c3        1 ZIR      0.121400
     24 O5'        -3.6670    2.5650   -1.6020 oh        1 ZIR     -0.588800
     25 H2          1.4530   -3.0470   -2.1000 h5        1 ZIR      0.053100
     26 H8         -1.8960    0.9790    1.8460 h5        1 ZIR      0.066800
     27 H1'        -2.7740   -2.0950   -0.4420 h2        1 ZIR      0.144700
     28 HN10        2.8780    0.9450    1.1250 hn        1 ZIR      0.456800
     29 H11         4.7810   -1.0630    0.2890 h1        1 ZIR      0.062200
     30 H11A        4.5460    0.1920   -1.0060 h1        1 ZIR      0.062200
     31 H12         5.0670    1.4830    1.6800 ha        1 ZIR      0.130000
     32 H14         8.5120    1.2800    1.5740 hc        1 ZIR      0.045700
     33 H14A        8.1200    2.6340    0.4340 hc        1 ZIR      0.045700
     34 H14B        7.1860    2.4510    1.9790 hc        1 ZIR      0.045700
     35 H15         6.8040    0.6260   -1.6760 hc        1 ZIR      0.045700
     36 H15A        8.3750    0.3830   -0.8010 hc        1 ZIR      0.045700
     37 H15B        7.0370   -0.8300   -0.6260 hc        1 ZIR      0.045700
     38 H2'        -3.3500   -0.9230    2.2350 h1        1 ZIR      0.069700
     39 HO2'       -5.1320   -2.3640    1.9170 ho        1 ZIR      0.425000
     40 H3'        -4.8890    0.8110    1.7380 h1        1 ZIR      0.095700
     41 HO3'       -6.2360   -1.1620    0.2280 ho        1 ZIR      0.421000
     42 H4'        -5.2970    0.5300   -1.1770 h1        1 ZIR      0.099700
     43 H5'        -4.8010    2.7040    0.0620 h1        1 ZIR      0.050700
     44 H5'A       -3.0820    2.1120    0.3460 h1        1 ZIR      0.050700
     45 HO5'       -3.0200    1.9680   -2.0030 ho        1 ZIR      0.418000
@<TRIPOS>BOND
     1    1    2 ar  
     2    1    6 ar  
     3    2    3 ar  
     4    2   25 1   
     5    3    4 ar  
     6    4    5 ar  
     7    4    9 1   
     8    5    6 ar  
     9    5    7 1   
    10    6   11 1   
    11    7    8 2   
    12    8    9 1   
    13    8   26 1   
    14    9   10 1   
    15   10   17 1   
    16   10   22 1   
    17   10   27 1   
    18   11   12 1   
    19   11   28 1   
    20   12   13 1   
    21   12   29 1   
    22   12   30 1   
    23   13   14 2   
    24   13   31 1   
    25   14   15 1   
    26   14   16 1   
    27   15   32 1   
    28   15   33 1   
    29   15   34 1   
    30   16   35 1   
    31   16   36 1   
    32   16   37 1   
    33   17   18 1   
    34   17   19 1   
    35   17   38 1   
    36   18   39 1   
    37   19   20 1   
    38   19   21 1   
    39   19   40 1   
    40   20   41 1   
    41   21   22 1   
    42   21   23 1   
    43   21   42 1   
    44   23   24 1   
    45   23   43 1   
    46   23   44 1   
    47   24   45 1   
@<TRIPOS>SUBSTRUCTURE
     1 ZIR         1 TEMP              0 ****  ****    0 ROOT
