@<TRIPOS>MOLECULE
ZIR
   46    48     1     0     0
SMALL
bcc


@<TRIPOS>ATOM
      1 N1          0.0150    1.5970    0.1810 nb        1 ZIR     -0.689000
      2 C2          1.3780    1.6140    0.1470 ca        1 ZIR      0.662900
      3 N3          2.2590    1.1880    1.0890 nb        1 ZIR     -0.620000
      4 C4          1.6710    0.6820    2.2000 ca        1 ZIR      0.446800
      5 C5          0.2010    0.6000    2.3720 ca        1 ZIR     -0.131200
      6 C6         -0.5670    1.0890    1.2980 ca        1 ZIR      0.528200
      7 N7         -0.1020    0.0300    3.6120 nc        1 ZIR     -0.594100
      8 C8          1.0930   -0.2310    4.1780 cd        1 ZIR      0.511700
      9 N9          2.1980    0.1510    3.3870 na        1 ZIR     -0.276000
     10 C1'         3.6110   -0.1070    3.6380 c3        1 ZIR      0.216800
     11 N10        -2.0380    1.0440    1.3860 n4        1 ZIR     -0.746700
     12 C11        -2.6160   -0.0660    0.5410 c3        1 ZIR      0.174000
     13 C12        -4.0890   -0.1220    0.6920 c2        1 ZIR     -0.314200
     14 C13        -4.9640    0.4170   -0.1780 c2        1 ZIR      0.013600
     15 C14        -6.4250    0.2390    0.0050 c3        1 ZIR     -0.095900
     16 C15        -4.5650    1.1950   -1.3750 c3        1 ZIR     -0.095900
     17 C2'         4.4750    1.1840    3.8230 c3        1 ZIR      0.087100
     18 O2'         5.5750    1.1610    2.9520 oh        1 ZIR     -0.564800
     19 C3'         4.9090    1.1600    5.3090 c3        1 ZIR      0.088100
     20 O3'         6.3140    1.0400    5.4040 oh        1 ZIR     -0.583800
     21 C4'         4.3050   -0.1240    5.9000 c3        1 ZIR      0.083100
     22 O4'         3.7480   -0.8920    4.8170 os        1 ZIR     -0.397600
     23 C5'         3.2250    0.1680    6.9420 c3        1 ZIR      0.110400
     24 O5'         2.2790   -0.8780    7.0150 oh        1 ZIR     -0.601800
     25 H2          1.8260    2.0370   -0.7820 h5        1 ZIR      0.094100
     26 H8          1.2440   -0.6980    5.1760 h5        1 ZIR      0.140800
     27 H1'         4.0030   -0.7410    2.7850 h2        1 ZIR      0.123700
     28 HN10       -2.4330    1.9400    1.0710 hn        1 ZIR      0.467300
     29 H11        -2.3040    0.1230   -0.5270 hx        1 ZIR      0.111200
     30 H11A       -2.1460   -1.0300    0.8910 hx        1 ZIR      0.111200
     31 H12        -4.4490   -0.7070    1.5560 ha        1 ZIR      0.156000
     32 H14        -6.8720   -0.1990   -0.9250 hc        1 ZIR      0.067700
     33 H14A       -6.6630   -0.4350    0.8640 hc        1 ZIR      0.067700
     34 H14B       -6.9090    1.2320    0.1870 hc        1 ZIR      0.067700
     35 H15        -5.3740    1.9090   -1.6740 hc        1 ZIR      0.067700
     36 H15A       -4.3910    0.4950   -2.2340 hc        1 ZIR      0.067700
     37 H15B       -3.6300    1.7810   -1.2030 hc        1 ZIR      0.067700
     38 H2'         3.9180    2.1220    3.5580 h1        1 ZIR      0.109700
     39 HO2'        6.1810    0.4610    3.2450 ho        1 ZIR      0.429000
     40 H3'         4.5530    2.0760    5.8490 h1        1 ZIR      0.074700
     41 HO3'        6.6950    1.8780    5.1060 ho        1 ZIR      0.431000
     42 H4'         5.1070   -0.7890    6.3300 h1        1 ZIR      0.117700
     43 H5'         2.6180    1.0730    6.6680 h1        1 ZIR      0.064700
     44 H5'A        3.7120    0.3320    7.9400 h1        1 ZIR      0.064700
     45 HO5'        2.7580   -1.6970    7.1970 ho        1 ZIR      0.422000
     46 H102       -2.3040    0.8950    2.3690 hn        1 ZIR      0.467300
@<TRIPOS>BOND
     1    1    2 ar  
     2    1    6 ar  
     3    2    3 ar  
     4    2   25 1   
     5    3    4 ar  
     6    4    5 ar  
     7    4    9 1   
     8    5    6 ar  
     9    5    7 1   
    10    6   11 1   
    11    7    8 2   
    12    8    9 1   
    13    8   26 1   
    14    9   10 1   
    15   10   17 1   
    16   10   22 1   
    17   10   27 1   
    18   11   12 1   
    19   11   28 1   
    20   11   46 1   
    21   12   13 1   
    22   12   29 1   
    23   12   30 1   
    24   13   14 2   
    25   13   31 1   
    26   14   15 1   
    27   14   16 1   
    28   15   32 1   
    29   15   33 1   
    30   15   34 1   
    31   16   35 1   
    32   16   36 1   
    33   16   37 1   
    34   17   18 1   
    35   17   19 1   
    36   17   38 1   
    37   18   39 1   
    38   19   20 1   
    39   19   21 1   
    40   19   40 1   
    41   20   41 1   
    42   21   22 1   
    43   21   23 1   
    44   21   42 1   
    45   23   24 1   
    46   23   43 1   
    47   23   44 1   
    48   24   45 1   
@<TRIPOS>SUBSTRUCTURE
     1 ZIR         1 TEMP              0 ****  ****    0 ROOT
