@<TRIPOS>MOLECULE
ZIR
   45    47     1     0     0
SMALL
bcc


@<TRIPOS>ATOM
      1 N1          0.1450    1.0220    0.2390 nb        1 ZIR     -0.794000
      2 C2          1.4970    1.1490    0.2670 ca        1 ZIR      0.691900
      3 N3          2.3880    0.8180    1.2320 nb        1 ZIR     -0.761000
      4 C4          1.7840    0.2700    2.3310 ca        1 ZIR      0.450800
      5 C5          0.3470    0.0690    2.4550 ca        1 ZIR     -0.228200
      6 C6         -0.4700    0.4750    1.3430 ca        1 ZIR      0.768200
      7 N7          0.0500   -0.5130    3.6970 nc        1 ZIR     -0.542100
      8 C8          1.2350   -0.6640    4.3070 cd        1 ZIR      0.418700
      9 N9          2.3290   -0.2020    3.5350 na        1 ZIR     -0.294000
     10 C1'         3.7430   -0.2790    3.8230 c3        1 ZIR      0.229800
     11 N10        -1.8290    0.3120    1.4060 nu        1 ZIR     -0.856900
     12 C11        -2.7080    0.6880    0.3290 c3        1 ZIR      0.257000
     13 C12        -4.1490    0.3990    0.5960 c2        1 ZIR     -0.207200
     14 C13        -5.1160    0.7840   -0.2520 c2        1 ZIR     -0.099400
     15 C14        -6.5450    0.4860    0.0100 c3        1 ZIR     -0.064900
     16 C15        -4.8250    1.5300   -1.5000 c3        1 ZIR     -0.064900
     17 C2'         4.4580    1.1130    3.8140 c3        1 ZIR      0.082100
     18 O2'         5.6420    1.0110    3.0530 oh        1 ZIR     -0.593800
     19 C3'         4.8450    1.3790    5.2860 c3        1 ZIR      0.134100
     20 O3'         6.2040    1.6840    5.4690 oh        1 ZIR     -0.572800
     21 C4'         4.4330    0.1080    6.0520 c3        1 ZIR      0.051100
     22 O4'         3.9610   -0.8680    5.1070 os        1 ZIR     -0.418600
     23 C5'         3.3280    0.3770    7.0720 c3        1 ZIR      0.115400
     24 O5'         3.0150   -0.7860    7.8100 oh        1 ZIR     -0.589800
     25 H2          1.9370    1.5970   -0.6510 h5        1 ZIR      0.051100
     26 H8          1.3980   -1.0970    5.3020 h5        1 ZIR      0.079800
     27 H1'         4.2260   -0.9830    3.0790 h2        1 ZIR      0.106700
     28 HN10       -2.2130   -0.0960    2.2270 hn        1 ZIR      0.459800
     29 H11        -2.3940    0.1410   -0.6120 h1        1 ZIR      0.062200
     30 H11A       -2.5830    1.7940    0.1210 h1        1 ZIR      0.062200
     31 H12        -4.4010   -0.1540    1.5160 ha        1 ZIR      0.130000
     32 H14        -7.1330    1.4370    0.0480 hc        1 ZIR      0.045700
     33 H14A       -6.9600   -0.1480   -0.8140 hc        1 ZIR      0.045700
     34 H14B       -6.6860   -0.0550    0.9770 hc        1 ZIR      0.045700
     35 H15        -4.3940    2.5350   -1.2580 hc        1 ZIR      0.045700
     36 H15A       -4.0770    0.9760   -2.1220 hc        1 ZIR      0.045700
     37 H15B       -5.7500    1.6800   -2.1090 hc        1 ZIR      0.045700
     38 H2'         3.8000    1.9310    3.4200 h1        1 ZIR      0.086700
     39 HO2'        5.3890    1.1150    2.1260 ho        1 ZIR      0.434000
     40 H3'         4.2990    2.2810    5.6790 h1        1 ZIR      0.094700
     41 HO3'        6.7290    1.0570    4.9520 ho        1 ZIR      0.426000
     42 H4'         5.3170   -0.3750    6.5540 h1        1 ZIR      0.101700
     43 H5'         3.6780    1.1220    7.8350 h1        1 ZIR      0.057200
     44 H5'A        2.4080    0.7590    6.5530 h1        1 ZIR      0.057200
     45 HO5'        2.8540   -1.4950    7.1730 ho        1 ZIR      0.408000
@<TRIPOS>BOND
     1    1    2 ar  
     2    1    6 ar  
     3    2    3 ar  
     4    2   25 1   
     5    3    4 ar  
     6    4    5 ar  
     7    4    9 1   
     8    5    6 ar  
     9    5    7 1   
    10    6   11 1   
    11    7    8 2   
    12    8    9 1   
    13    8   26 1   
    14    9   10 1   
    15   10   17 1   
    16   10   22 1   
    17   10   27 1   
    18   11   12 1   
    19   11   28 1   
    20   12   13 1   
    21   12   29 1   
    22   12   30 1   
    23   13   14 2   
    24   13   31 1   
    25   14   15 1   
    26   14   16 1   
    27   15   32 1   
    28   15   33 1   
    29   15   34 1   
    30   16   35 1   
    31   16   36 1   
    32   16   37 1   
    33   17   18 1   
    34   17   19 1   
    35   17   38 1   
    36   18   39 1   
    37   19   20 1   
    38   19   21 1   
    39   19   40 1   
    40   20   41 1   
    41   21   22 1   
    42   21   23 1   
    43   21   42 1   
    44   23   24 1   
    45   23   43 1   
    46   23   44 1   
    47   24   45 1   
@<TRIPOS>SUBSTRUCTURE
     1 ZIR         1 TEMP              0 ****  ****    0 ROOT
