@<TRIPOS>MOLECULE
ZJ0
   49    49     1     0     0
SMALL
bcc


@<TRIPOS>ATOM
      1 O8         -0.0640   -0.8750    0.1160 o         1 ZJ0     -0.525100
      2 C1          1.1330   -0.5700    0.0590 c         1 ZJ0      0.576700
      3 C2          1.9290   -0.3380    1.2900 ca        1 ZJ0     -0.112600
      4 C7          1.2510   -0.0620    2.4800 ca        1 ZJ0     -0.149000
      5 C6          1.9860    0.1680    3.6550 ca        1 ZJ0      0.146100
      6 O19         1.2180    0.4410    4.7700 os        1 ZJ0     -0.323400
      7 C21         1.9220    0.6570    5.9870 c3        1 ZJ0      0.113200
      8 C5          3.3850    0.1170    3.6600 ca        1 ZJ0     -0.255000
      9 C4          4.0400   -0.1700    2.4550 ca        1 ZJ0      0.146100
     10 O18         5.4130   -0.2540    2.3220 os        1 ZJ0     -0.323400
     11 C20         6.1770   -0.0490    3.5040 c3        1 ZJ0      0.113200
     12 C3          3.3250   -0.3960    1.2680 ca        1 ZJ0     -0.149000
     13 C9          1.8590   -0.4060   -1.2470 c3        1 ZJ0     -0.176400
     14 C10         0.9140   -0.3500   -2.4280 c3        1 ZJ0     -0.076400
     15 C11         1.6770   -0.2310   -3.7290 c3        1 ZJ0     -0.078400
     16 C12         0.7330   -0.1680   -4.9110 c3        1 ZJ0     -0.078400
     17 C13         1.4930   -0.0520   -6.2150 c3        1 ZJ0     -0.078400
     18 C14         0.5490    0.0110   -7.3960 c3        1 ZJ0     -0.079400
     19 C15         1.3090    0.1280   -8.7010 c3        1 ZJ0     -0.079400
     20 C16         0.3660    0.1910   -9.8830 c3        1 ZJ0     -0.080400
     21 C17         1.1170    0.3070  -11.1840 c3        1 ZJ0     -0.092100
     22 H1          0.1510   -0.0300    2.5020 ha        1 ZJ0      0.162500
     23 H2          2.5900    1.5490    5.9050 h1        1 ZJ0      0.045700
     24 H3          1.1050    0.8430    6.7290 h1        1 ZJ0      0.045700
     25 H4          2.5110   -0.2490    6.2690 h1        1 ZJ0      0.045700
     26 H5          3.9530    0.2950    4.5810 ha        1 ZJ0      0.145000
     27 H6          7.2340   -0.1730    3.1540 h1        1 ZJ0      0.045700
     28 H7          6.0140    0.9810    3.9060 h1        1 ZJ0      0.045700
     29 H8          5.9260   -0.8160    4.2760 h1        1 ZJ0      0.045700
     30 H9          3.8800   -0.6200    0.3460 ha        1 ZJ0      0.162500
     31 H10         2.4770    0.5300   -1.2060 hc        1 ZJ0      0.068700
     32 H11         2.5640   -1.2730   -1.3650 hc        1 ZJ0      0.068700
     33 H12         0.2760   -1.2730   -2.4390 hc        1 ZJ0      0.055200
     34 H13         0.2200    0.5230   -2.3100 hc        1 ZJ0      0.055200
     35 H14         2.3170    0.6900   -3.7090 hc        1 ZJ0      0.038200
     36 H15         2.3660   -1.1100   -3.8450 hc        1 ZJ0      0.038200
     37 H16         0.0460    0.7110   -4.7960 hc        1 ZJ0      0.042200
     38 H17         0.0920   -1.0890   -4.9290 hc        1 ZJ0      0.042200
     39 H18         2.1340    0.8690   -6.1960 hc        1 ZJ0      0.038700
     40 H19         2.1810   -0.9310   -6.3300 hc        1 ZJ0      0.038700
     41 H20        -0.1380    0.8910   -7.2820 hc        1 ZJ0      0.040200
     42 H21        -0.0920   -0.9090   -7.4150 hc        1 ZJ0      0.040200
     43 H22         1.9960   -0.7510   -8.8160 hc        1 ZJ0      0.038700
     44 H23         1.9500    1.0480   -8.6820 hc        1 ZJ0      0.038700
     45 H24        -0.3220    1.0700   -9.7660 hc        1 ZJ0      0.038700
     46 H25        -0.2760   -0.7300   -9.8990 hc        1 ZJ0      0.038700
     47 H26         1.7430    1.2310  -11.1970 hc        1 ZJ0      0.032700
     48 H27         1.7900   -0.5730  -11.3310 hc        1 ZJ0      0.032700
     49 H28         0.4040    0.3520  -12.0420 hc        1 ZJ0      0.032700
@<TRIPOS>BOND
     1    1    2 2   
     2    2    3 1   
     3    2   13 1   
     4    3    4 ar  
     5    3   12 ar  
     6    4    5 ar  
     7    4   22 1   
     8    5    6 1   
     9    5    8 ar  
    10    6    7 1   
    11    7   23 1   
    12    7   24 1   
    13    7   25 1   
    14    8    9 ar  
    15    8   26 1   
    16    9   10 1   
    17    9   12 ar  
    18   10   11 1   
    19   11   27 1   
    20   11   28 1   
    21   11   29 1   
    22   12   30 1   
    23   13   14 1   
    24   13   31 1   
    25   13   32 1   
    26   14   15 1   
    27   14   33 1   
    28   14   34 1   
    29   15   16 1   
    30   15   35 1   
    31   15   36 1   
    32   16   17 1   
    33   16   37 1   
    34   16   38 1   
    35   17   18 1   
    36   17   39 1   
    37   17   40 1   
    38   18   19 1   
    39   18   41 1   
    40   18   42 1   
    41   19   20 1   
    42   19   43 1   
    43   19   44 1   
    44   20   21 1   
    45   20   45 1   
    46   20   46 1   
    47   21   47 1   
    48   21   48 1   
    49   21   49 1   
@<TRIPOS>SUBSTRUCTURE
     1 ZJ0         1 TEMP              0 ****  ****    0 ROOT
