@<TRIPOS>MOLECULE
ZJ0
   49    49     1     0     0
SMALL
bcc


@<TRIPOS>ATOM
      1 O8          0.9260   -2.2550    0.8750 o         1 ZJ0     -0.525100
      2 C1          1.0770   -1.0670    0.5640 c         1 ZJ0      0.576700
      3 C2          2.4280   -0.4970    0.3320 ca        1 ZJ0     -0.112600
      4 C7          3.4820   -1.3720    0.0590 ca        1 ZJ0     -0.149500
      5 C6          4.7680   -0.8520   -0.1720 ca        1 ZJ0      0.146100
      6 O19         5.7330   -1.8020   -0.4420 os        1 ZJ0     -0.323400
      7 C21         7.0540   -1.3210   -0.6580 c3        1 ZJ0      0.113200
      8 C5          5.0140    0.5250   -0.1240 ca        1 ZJ0     -0.255000
      9 C4          3.9420    1.3790    0.1600 ca        1 ZJ0      0.146100
     10 O18         4.0490    2.7550    0.2400 os        1 ZJ0     -0.323400
     11 C20         5.3450    3.3020    0.0340 c3        1 ZJ0      0.113200
     12 C3          2.6480    0.8810    0.3870 ca        1 ZJ0     -0.149500
     13 C9         -0.0830   -0.1270    0.3940 c3        1 ZJ0     -0.176400
     14 C10        -1.4090   -0.8530    0.3380 c3        1 ZJ0     -0.076400
     15 C11        -2.5580    0.1230    0.2130 c3        1 ZJ0     -0.078400
     16 C12        -3.8860   -0.6030    0.1480 c3        1 ZJ0     -0.078400
     17 C13        -5.0380    0.3710    0.0250 c3        1 ZJ0     -0.078400
     18 C14        -6.3650   -0.3540   -0.0400 c3        1 ZJ0     -0.079400
     19 C15        -7.5180    0.6190   -0.1630 c3        1 ZJ0     -0.079400
     20 C16        -8.8460   -0.1060   -0.2280 c3        1 ZJ0     -0.080400
     21 C17        -9.9960    0.8590   -0.3500 c3        1 ZJ0     -0.092100
     22 H1          3.3130   -2.4600    0.0300 ha        1 ZJ0      0.162500
     23 H2          7.6430   -2.2550   -0.8410 h1        1 ZJ0      0.045700
     24 H3          7.0880   -0.6520   -1.5520 h1        1 ZJ0      0.045700
     25 H4          7.4330   -0.7870    0.2470 h1        1 ZJ0      0.045700
     26 H5          6.0210    0.9240   -0.3030 ha        1 ZJ0      0.145000
     27 H6          5.1840    4.4030    0.1550 h1        1 ZJ0      0.045700
     28 H7          6.0620    2.9220    0.8020 h1        1 ZJ0      0.045700
     29 H8          5.7130    3.0690   -0.9950 h1        1 ZJ0      0.045700
     30 H9          1.8360    1.5880    0.6080 ha        1 ZJ0      0.162500
     31 H10        -0.0790    0.5900    1.2590 hc        1 ZJ0      0.068700
     32 H11         0.0670    0.4710   -0.5440 hc        1 ZJ0      0.068700
     33 H12        -1.4110   -1.5610   -0.5330 hc        1 ZJ0      0.055700
     34 H13        -1.5320   -1.4770    1.2630 hc        1 ZJ0      0.055700
     35 H14        -2.5560    0.8240    1.0890 hc        1 ZJ0      0.038200
     36 H15        -2.4260    0.7460   -0.7110 hc        1 ZJ0      0.038200
     37 H16        -3.8890   -1.3030   -0.7280 hc        1 ZJ0      0.042200
     38 H17        -4.0170   -1.2280    1.0710 hc        1 ZJ0      0.042200
     39 H18        -5.0350    1.0710    0.9020 hc        1 ZJ0      0.038700
     40 H19        -4.9060    0.9960   -0.8970 hc        1 ZJ0      0.038700
     41 H20        -6.3680   -1.0550   -0.9160 hc        1 ZJ0      0.040200
     42 H21        -6.4970   -0.9800    0.8830 hc        1 ZJ0      0.040200
     43 H22        -7.5150    1.3190    0.7140 hc        1 ZJ0      0.038700
     44 H23        -7.3860    1.2440   -1.0850 hc        1 ZJ0      0.038700
     45 H24        -8.8460   -0.8070   -1.1040 hc        1 ZJ0      0.038700
     46 H25        -8.9750   -0.7320    0.6950 hc        1 ZJ0      0.038700
     47 H26       -10.0270    1.5500    0.5270 hc        1 ZJ0      0.032700
     48 H27        -9.8980    1.4750   -1.2770 hc        1 ZJ0      0.032700
     49 H28       -10.9650    0.3050   -0.3960 hc        1 ZJ0      0.032700
@<TRIPOS>BOND
     1    1    2 2   
     2    2    3 1   
     3    2   13 1   
     4    3    4 ar  
     5    3   12 ar  
     6    4    5 ar  
     7    4   22 1   
     8    5    6 1   
     9    5    8 ar  
    10    6    7 1   
    11    7   23 1   
    12    7   24 1   
    13    7   25 1   
    14    8    9 ar  
    15    8   26 1   
    16    9   10 1   
    17    9   12 ar  
    18   10   11 1   
    19   11   27 1   
    20   11   28 1   
    21   11   29 1   
    22   12   30 1   
    23   13   14 1   
    24   13   31 1   
    25   13   32 1   
    26   14   15 1   
    27   14   33 1   
    28   14   34 1   
    29   15   16 1   
    30   15   35 1   
    31   15   36 1   
    32   16   17 1   
    33   16   37 1   
    34   16   38 1   
    35   17   18 1   
    36   17   39 1   
    37   17   40 1   
    38   18   19 1   
    39   18   41 1   
    40   18   42 1   
    41   19   20 1   
    42   19   43 1   
    43   19   44 1   
    44   20   21 1   
    45   20   45 1   
    46   20   46 1   
    47   21   47 1   
    48   21   48 1   
    49   21   49 1   
@<TRIPOS>SUBSTRUCTURE
     1 ZJ0         1 TEMP              0 ****  ****    0 ROOT
