@<TRIPOS>MOLECULE
ZJ0
   49    43     1     0     0
SMALL
bcc


@<TRIPOS>ATOM
      1 O8         -1.3090    1.3730    2.6840 o         1 ZJ0     -0.293000
      2 C1         -0.2510    0.7770    2.5120 c1        1 ZJ0      0.267000
      3 C2          0.8560    0.8260    3.6060 c1        1 ZJ0      0.036000
      4 C7          2.0230    0.0540    3.4540 c1        1 ZJ0     -0.184667
      5 C6          2.9630    0.0380    4.4350 c1        1 ZJ0      0.036000
      6 O19         4.0890   -0.8440    4.3280 o         1 ZJ0     -0.210500
      7 C21         5.2630   -0.2190    3.8320 c3        1 ZJ0     -0.078000
      8 C5          2.7730    0.7910    5.6010 c1        1 ZJ0     -0.184667
      9 C4          1.6310    1.5490    5.7520 c1        1 ZJ0      0.036000
     10 O18         1.3890    2.2630    7.0060 o         1 ZJ0     -0.210500
     11 C20         1.8340    3.6140    6.9970 c3        1 ZJ0     -0.078000
     12 C3          0.6650    1.5630    4.7420 c1        1 ZJ0     -0.184667
     13 C9         -0.0630   -0.1230    1.2590 c3        1 ZJ0     -0.205000
     14 C10        -0.9520    0.3940    0.1210 c3        1 ZJ0     -0.154000
     15 C11        -1.1940   -0.7370   -0.9040 c3        1 ZJ0     -0.157000
     16 C12        -1.4490   -0.0850   -2.3770 c3        1 ZJ0     -0.157000
     17 C13        -2.0820   -1.1270   -3.3010 c3        1 ZJ0     -0.158000
     18 C14        -1.8760   -0.7180   -4.7500 c3        1 ZJ0     -0.158000
     19 C15        -2.6220   -1.6360   -5.6260 c3        1 ZJ0     -0.158000
     20 C16        -2.3760   -1.2610   -7.0880 c3        1 ZJ0     -0.159000
     21 C17        -3.0170   -2.3350   -8.0170 c3        1 ZJ0     -0.210000
     22 H1          2.1800   -0.4680    2.5900 ha        1 ZJ0      0.157333
     23 H2          5.0050    0.4810    3.1260 h1        1 ZJ0      0.087167
     24 H3          5.7380    0.2210    4.5740 h1        1 ZJ0      0.087167
     25 H4          5.8650   -0.9160    3.4120 h1        1 ZJ0      0.087167
     26 H5          3.4840    0.7780    6.3420 ha        1 ZJ0      0.157333
     27 H6          2.7730    3.6580    7.3360 h1        1 ZJ0      0.087167
     28 H7          1.2410    4.1640    7.5840 h1        1 ZJ0      0.087167
     29 H8          1.8020    3.9570    6.0960 h1        1 ZJ0      0.087167
     30 H9         -0.1780    2.1210    4.8500 ha        1 ZJ0      0.157333
     31 H10         0.8740   -0.0980    0.9790 hc        1 ZJ0      0.108500
     32 H11        -0.3190   -1.0670    1.4830 hc        1 ZJ0      0.108500
     33 H12        -1.8080    0.6890    0.4870 hc        1 ZJ0      0.094500
     34 H13        -0.4950    1.1710   -0.3370 hc        1 ZJ0      0.094500
     35 H14        -0.4190   -1.3140   -0.9360 hc        1 ZJ0      0.078000
     36 H15        -1.9890   -1.2650   -0.6320 hc        1 ZJ0      0.078000
     37 H16        -0.6260    0.2000   -2.7420 hc        1 ZJ0      0.081500
     38 H17        -2.0380    0.6650   -2.2950 hc        1 ZJ0      0.081500
     39 H18        -3.0280   -1.1870   -3.1170 hc        1 ZJ0      0.078500
     40 H19        -1.6720   -1.9800   -3.1500 hc        1 ZJ0      0.078500
     41 H20        -2.1930    0.1730   -4.8790 hc        1 ZJ0      0.079000
     42 H21        -0.9170   -0.7590   -4.9710 hc        1 ZJ0      0.079000
     43 H22        -3.5990   -1.5670   -5.4240 hc        1 ZJ0      0.078500
     44 H23        -2.3180   -2.5520   -5.4710 hc        1 ZJ0      0.078500
     45 H24        -2.7890   -0.3680   -7.2770 hc        1 ZJ0      0.078000
     46 H25        -1.4330   -1.2180   -7.2520 hc        1 ZJ0      0.078000
     47 H26        -2.8570   -2.0910   -8.9600 hc        1 ZJ0      0.072000
     48 H27        -3.9660   -2.3770   -7.8530 hc        1 ZJ0      0.072000
     49 H28        -2.6130   -3.2120   -7.8330 hc        1 ZJ0      0.072000
@<TRIPOS>BOND
     1    1    2 1   
     2    2   13 1   
     3    3    4 1   
     4    4   22 1   
     5    5    8 1   
     6    6    7 1   
     7    7   23 1   
     8    7   24 1   
     9    7   25 1   
    10    8   26 1   
    11    9   12 1   
    12   10   11 1   
    13   11   27 1   
    14   11   28 1   
    15   11   29 1   
    16   12   30 1   
    17   13   14 1   
    18   13   31 1   
    19   13   32 1   
    20   14   15 1   
    21   14   33 1   
    22   14   34 1   
    23   15   16 1   
    24   15   35 1   
    25   15   36 1   
    26   16   17 1   
    27   16   37 1   
    28   16   38 1   
    29   17   18 1   
    30   17   39 1   
    31   17   40 1   
    32   18   19 1   
    33   18   41 1   
    34   18   42 1   
    35   19   20 1   
    36   19   43 1   
    37   19   44 1   
    38   20   21 1   
    39   20   45 1   
    40   20   46 1   
    41   21   47 1   
    42   21   48 1   
    43   21   49 1   
@<TRIPOS>SUBSTRUCTURE
     1 ZJ0         1 TEMP              0 ****  ****    0 ROOT
