@<TRIPOS>MOLECULE
ZK1
   40    40     1     0     0
SMALL
bcc


@<TRIPOS>ATOM
      1 OAA         1.4470   -2.6320    1.0060 o         1 ZK1     -0.393000
      2 OAB         1.6110   -1.6060   -1.6450 o         1 ZK1     -0.241000
      3 OAC         3.2210   -0.3950   -7.4420 o         1 ZK1     -1.126667
      4 OAD         3.8910   -1.2110   -5.1170 o         1 ZK1     -1.126667
      5 OAE         4.2310   -2.7180   -7.1510 o         1 ZK1     -1.126667
      6 FAF         5.1690    2.2580    4.6890 f         1 ZK1     -0.214667
      7 FAG         6.7810    2.9500    3.4710 f         1 ZK1     -0.214667
      8 FAH         6.8360    0.9700    4.3110 f         1 ZK1     -0.214667
      9 CAI         5.4290    0.5750    0.0480 c1        1 ZK1     -0.369000
     10 CAJ         4.0300    0.9040    2.4990 c1        1 ZK1     -0.395000
     11 CAK        10.8640   -1.7960    1.9480 c1        1 ZK1     -0.097000
     12 CAL         8.8420   -0.7690    2.5600 c3        1 ZK1     -0.026000
     13 CAM         8.3110    1.2830    0.1580 c3        1 ZK1     -0.116000
     14 CAN         7.6370   -0.4750    1.6640 c3        1 ZK1     -0.079000
     15 CAO         4.1090   -0.4870   -2.1860 c2        1 ZK1     -0.001000
     16 NAP         2.3440   -0.6010    1.6500 ns        1 ZK1     -0.295000
     17 OAQ        10.0410   -0.8090    1.7270 os        1 ZK1     -0.174000
     18 CAR         6.0990    1.3340    1.1340 c3        1 ZK1      0.064000
     19 CAS         5.2980    1.3060    2.4210 c2        1 ZK1     -0.306000
     20 CAT         2.0370   -1.5600    0.7440 c2        1 ZK1      0.286000
     21 CAU         2.3470   -1.2460   -0.7270 c2        1 ZK1      0.265000
     22 CAV         3.2460    0.5030    1.3070 c3        1 ZK1      0.114000
     23 CAW         4.1340    0.2080    0.1170 c2        1 ZK1     -0.288000
     24 NAX         7.5120    0.9330    1.3140 n3        1 ZK1     -0.230000
     25 NAY         3.5650   -0.5020   -0.9930 n         1 ZK1     -0.011000
     26 PBA         3.7790   -1.4430   -6.5710 p3        1 ZK1      2.387000
     27 HAI         6.1380    2.4180    0.7900 h1        1 ZK1      0.084000
     28 HAJ         2.5710    1.3800    1.0450 h1        1 ZK1      0.075000
     29 HAK         9.3600    0.9150    0.3100 h1        1 ZK1      0.060333
     30 HAKA       11.7260   -1.6750    1.2350 ha        1 ZK1      0.001000
     31 HAL         9.0230    0.0450    3.3080 h1        1 ZK1      0.104500
     32 HALA        8.7160   -1.7560    3.0730 h1        1 ZK1      0.104500
     33 HAM         7.9090    0.8560   -0.8010 h1        1 ZK1      0.060333
     34 HAMA        8.3310    2.4010    0.0690 h1        1 ZK1      0.060333
     35 HAN         7.6910   -1.1410    0.7560 h1        1 ZK1      0.098000
     36 HANA        6.7260   -0.7680    2.2650 h1        1 ZK1      0.098000
     37 HAO         5.0470    0.0930   -2.3210 h4        1 ZK1      0.220000
     38 HAOA        3.6780   -1.0400   -3.0540 h4        1 ZK1      0.220000
     39 HNAP        2.2720   -0.8100    2.6250 hn        1 ZK1      0.245000
     40 CAZ         5.9810    1.8380    3.6570 c3        1 ZK1      0.499000
@<TRIPOS>BOND
     1    1   20 1   
     2    2   21 1   
     3    3   26 1   
     4    4   26 1   
     5    5   26 1   
     6    6   40 1   
     7    7   40 1   
     8    8   40 1   
     9    9   18 1   
    10    9   23 1   
    11   10   19 1   
    12   10   22 1   
    13   11   17 1   
    14   11   30 1   
    15   12   14 1   
    16   12   17 1   
    17   12   31 1   
    18   12   32 1   
    19   13   24 1   
    20   13   29 1   
    21   13   33 1   
    22   13   34 1   
    23   14   24 1   
    24   14   35 1   
    25   14   36 1   
    26   15   25 1   
    27   15   37 1   
    28   15   38 1   
    29   16   20 1   
    30   16   22 1   
    31   16   39 1   
    32   18   19 1   
    33   18   24 1   
    34   18   27 1   
    35   19   40 1   
    36   20   21 1   
    37   21   25 1   
    38   22   23 1   
    39   22   28 1   
    40   23   25 1   
@<TRIPOS>SUBSTRUCTURE
     1 ZK1         1 TEMP              0 ****  ****    0 ROOT
