@<TRIPOS>MOLECULE
ZK1
   40    40     1     0     0
SMALL
bcc


@<TRIPOS>ATOM
      1 OAA         0.1600   -0.8950    0.4650 o         1 ZK1     -0.393000
      2 OAB         1.1160    0.0990   -2.0330 o         1 ZK1     -0.241000
      3 OAC         3.4900   -2.2410   -7.3010 o         1 ZK1     -1.126667
      4 OAD         3.7660    0.2780   -7.5780 o         1 ZK1     -1.126667
      5 OAE         3.6810   -0.7440   -5.2400 o         1 ZK1     -1.126667
      6 FAF         5.3200    0.9660    4.9840 f         1 ZK1     -0.214000
      7 FAG         7.1960    1.0520    3.9620 f         1 ZK1     -0.214000
      8 FAH         6.2740   -0.8510    4.3640 f         1 ZK1     -0.214000
      9 CAI         5.2980   -0.0140    0.1360 c1        1 ZK1     -0.375000
     10 CAJ         3.9570    0.7340    2.5220 c1        1 ZK1     -0.392000
     11 CAK         9.1760    0.0890    0.3020 c3        1 ZK1     -0.015000
     12 CAL        10.0560   -0.3080    2.5060 c3        1 ZK1     -0.122000
     13 CAM         8.0300   -0.9260    0.3930 c3        1 ZK1     -0.108000
     14 CAN        11.2760   -0.1760    3.2610 c1        1 ZK1     -0.083000
     15 CAO         3.8780   -0.2270   -2.2670 c2        1 ZK1     -0.005000
     16 NAP         1.8600    0.3650    1.3960 n         1 ZK1     -0.294000
     17 OAQ        10.3020   -0.2560    1.0990 os        1 ZK1     -0.336000
     18 CAR         6.1230    0.2740    1.3370 c3        1 ZK1      0.053000
     19 CAS         5.2630    0.4800    2.5680 c2        1 ZK1     -0.305000
     20 CAT         1.2270   -0.2490    0.3680 c2        1 ZK1      0.286000
     21 CAU         1.8190   -0.0350   -1.0320 c2        1 ZK1      0.265000
     22 CAV         3.2230    0.8870    1.2440 c3        1 ZK1      0.114000
     23 CAW         3.9820    0.2790    0.0830 c2        1 ZK1     -0.284000
     24 NAX         7.1850   -0.7190    1.5540 n3        1 ZK1     -0.291000
     25 NAY         3.2680   -0.0040   -1.1270 n         1 ZK1     -0.010000
     26 PBA         3.6430   -0.9020   -6.7080 p3        1 ZK1      2.387000
     27 HAI         6.6570    1.2560    1.1230 h1        1 ZK1      0.075000
     28 HAJ         3.1040    2.0020    1.0520 h1        1 ZK1      0.074000
     29 HAK         7.4410   -0.8550   -0.5700 h1        1 ZK1      0.083500
     30 HAKA        9.5910    0.0860   -0.7420 h1        1 ZK1      0.077000
     31 HAL         9.5680   -1.2970    2.7610 h1        1 ZK1      0.170000
     32 HALA        9.3190    0.4890    2.8350 h1        1 ZK1      0.170000
     33 HAM         8.8320    1.1230    0.5670 h1        1 ZK1      0.077000
     34 HAMA        8.4850   -1.9540    0.4530 h1        1 ZK1      0.083500
     35 HAN         6.7560   -1.5890    1.8120 hn        1 ZK1      0.148000
     36 HANA       12.1940    0.0060    2.6780 ha        1 ZK1      0.030000
     37 HAO         4.9890   -0.2010   -2.2740 h4        1 ZK1      0.220000
     38 HAOA        3.3310   -0.4550   -3.2120 h4        1 ZK1      0.220000
     39 HNAP        1.5890    0.1480    2.3340 hn        1 ZK1      0.246000
     40 CAZ         5.9690    0.4150    3.9000 c3        1 ZK1      0.499000
@<TRIPOS>BOND
     1    1   20 1   
     2    2   21 1   
     3    3   26 1   
     4    4   26 1   
     5    5   26 1   
     6    6   40 1   
     7    7   40 1   
     8    8   40 1   
     9    9   18 1   
    10    9   23 1   
    11   10   19 1   
    12   10   22 1   
    13   11   13 1   
    14   11   17 1   
    15   11   30 1   
    16   11   33 1   
    17   12   14 1   
    18   12   17 1   
    19   12   31 1   
    20   12   32 1   
    21   13   24 1   
    22   13   29 1   
    23   13   34 1   
    24   14   36 1   
    25   15   25 1   
    26   15   37 1   
    27   15   38 1   
    28   16   20 1   
    29   16   22 1   
    30   16   39 1   
    31   18   19 1   
    32   18   24 1   
    33   18   27 1   
    34   19   40 1   
    35   20   21 1   
    36   21   25 1   
    37   22   23 1   
    38   22   28 1   
    39   23   25 1   
    40   24   35 1   
@<TRIPOS>SUBSTRUCTURE
     1 ZK1         1 TEMP              0 ****  ****    0 ROOT
