@<TRIPOS>MOLECULE
ZK1
   40    41     1     0     0
SMALL
bcc


@<TRIPOS>ATOM
      1 OAA        -3.8370   -3.7510    0.2720 o         1 ZK1     -0.383000
      2 OAB        -4.5450   -1.1490    0.9330 o         1 ZK1     -0.336000
      3 OAC        -0.9100    3.0000   -0.0310 o         1 ZK1     -1.205333
      4 OAD        -3.3560    3.5790    0.3700 o         1 ZK1     -1.205333
      5 OAE        -2.6350    2.3980   -1.7890 o         1 ZK1     -1.205333
      6 FAF         3.3030   -3.3280   -0.3350 f         1 ZK1     -0.190667
      7 FAG         3.9710   -1.6500    0.8200 f         1 ZK1     -0.190667
      8 FAH         3.7520   -1.4800   -1.3280 f         1 ZK1     -0.190667
      9 CAI        -0.0080    0.1870    0.3140 ca        1 ZK1     -0.171000
     10 CAJ         0.6790   -2.4990   -0.0140 ca        1 ZK1     -0.119000
     11 CAK         3.9820    2.2460    1.2800 c3        1 ZK1     -0.012000
     12 CAL         3.2160    2.9540   -0.8580 c3        1 ZK1     -0.012000
     13 CAM         2.8020    1.2740    1.3870 c3        1 ZK1     -0.126000
     14 CAN         2.0440    1.9720   -0.7790 c3        1 ZK1     -0.126000
     15 CAO        -2.7050    0.9680    0.7690 c2        1 ZK1     -0.663000
     16 NAP        -1.6570   -3.1510    0.1560 n         1 ZK1     -0.306000
     17 OAQ         3.7160    3.3450    0.4190 os        1 ZK1     -0.288000
     18 CAR         1.3310   -0.1610    0.1300 ca        1 ZK1      0.054000
     19 CAS         1.6740   -1.5280   -0.0220 ca        1 ZK1     -0.198000
     20 CAT        -2.9900   -2.8370    0.3290 c2        1 ZK1      0.273000
     21 CAU        -3.3580   -1.3850    0.6370 c2        1 ZK1      0.258000
     22 CAV        -0.6690   -2.1550    0.1570 ca        1 ZK1     -0.047000
     23 CAW        -1.0430   -0.7790    0.3400 ca        1 ZK1      0.112000
     24 NAX         2.3810    0.8180    0.0620 nh        1 ZK1     -0.220000
     25 NAY        -2.3690   -0.4100    0.5610 n         1 ZK1     -0.087000
     26 PBA        -2.3550    2.7730   -0.3790 p3        1 ZK1      2.544000
     27 HAI        -0.3080    1.2780    0.3910 ha        1 ZK1      0.278000
     28 HAJ         0.9600   -3.5560   -0.1500 ha        1 ZK1      0.121000
     29 HAK         4.1790    2.7160    2.2790 h1        1 ZK1      0.069500
     30 HAKA        4.9020    1.7120    0.9220 h1        1 ZK1      0.069500
     31 HAL         4.0650    2.5250   -1.4550 h1        1 ZK1      0.069500
     32 HALA        2.8660    3.9150   -1.3180 h1        1 ZK1      0.069500
     33 HAM         3.1270    0.3760    1.9800 h1        1 ZK1      0.120250
     34 HAMA        1.9590    1.7860    1.9360 h1        1 ZK1      0.120250
     35 HAN         1.1180    2.5280   -0.4130 h1        1 ZK1      0.120250
     36 HANA        1.8250    1.5880   -1.8120 h1        1 ZK1      0.120250
     37 HAO        -3.8060    1.1030    0.7570 h4        1 ZK1      0.087500
     38 HAOA       -2.2520    1.3360    1.7140 h4        1 ZK1      0.087500
     39 HNAP       -1.3930   -4.0810   -0.0700 hn        1 ZK1      0.219000
     40 CAZ         3.1140   -1.9630   -0.2110 c3        1 ZK1      0.490000
@<TRIPOS>BOND
     1    1   20 1   
     2    2   21 1   
     3    3   26 1   
     4    4   26 1   
     5    5   26 1   
     6    6   40 1   
     7    7   40 1   
     8    8   40 1   
     9    9   18 1   
    10    9   23 1   
    11    9   27 1   
    12   10   19 1   
    13   10   22 1   
    14   10   28 1   
    15   11   13 1   
    16   11   17 1   
    17   11   29 1   
    18   11   30 1   
    19   12   14 1   
    20   12   17 1   
    21   12   31 1   
    22   12   32 1   
    23   13   24 1   
    24   13   33 1   
    25   13   34 1   
    26   14   24 1   
    27   14   35 1   
    28   14   36 1   
    29   15   25 1   
    30   15   37 1   
    31   15   38 1   
    32   16   20 1   
    33   16   22 1   
    34   16   39 1   
    35   18   19 1   
    36   18   24 1   
    37   19   40 1   
    38   20   21 1   
    39   21   25 1   
    40   22   23 1   
    41   23   25 1   
@<TRIPOS>SUBSTRUCTURE
     1 ZK1         1 TEMP              0 ****  ****    0 ROOT
