@<TRIPOS>MOLECULE
ZK5
   56    59     1     0     0
SMALL
bcc


@<TRIPOS>ATOM
      1 C2         -1.6670    0.2060   -4.6660 c3        1 ZK5     -0.179400
      2 C3         -0.3490    0.4660   -5.3390 c         1 ZK5      0.570300
      3 C4          0.8350    0.0160   -4.5950 ce        1 ZK5     -0.256200
      4 C5          0.7900   -0.3990   -3.3170 c2        1 ZK5     -0.031400
      5 C6          2.0040   -0.9650   -2.6640 c3        1 ZK5     -0.053200
      6 C7          2.2430   -0.3870   -1.2870 c3        1 ZK5     -0.074400
      7 C1         -1.5710    0.4350   -3.1760 c3        1 ZK5     -0.076400
      8 C8          1.0100   -0.5270   -0.4140 c3        1 ZK5     -0.068700
      9 C9         -0.2020    0.1880   -1.0840 c3        1 ZK5      0.200300
     10 C10        -0.4850   -0.4200   -2.5070 c3        1 ZK5     -0.024800
     11 C11        -1.4590    0.1410   -0.1470 c3        1 ZK5      0.127100
     12 C12        -1.1540    0.6320    1.2730 c3        1 ZK5     -0.102400
     13 C13         0.0320   -0.0900    1.8880 c3        1 ZK5     -0.025000
     14 C14         1.2390    0.1050    0.9420 c3        1 ZK5     -0.071700
     15 C15         2.4380   -0.3260    1.7750 c3        1 ZK5     -0.067400
     16 C16         2.0980    0.1300    3.1960 c3        1 ZK5     -0.102400
     17 C17         0.5990    0.5290    3.2080 c3        1 ZK5      0.050800
     18 C18        -0.2950   -1.5490    2.1630 c3        1 ZK5     -0.112100
     19 C19        -0.9600   -1.8700   -2.4500 c3        1 ZK5     -0.078100
     20 C20        -0.1220    0.0130    4.4520 c         1 ZK5      0.546100
     21 C21        -1.2860    0.8710    4.8910 c3        1 ZK5      0.036400
     22 F9          0.1050    1.5450   -1.2410 f         1 ZK5     -0.237300
     23 O1         -0.2710    0.9890   -6.4570 o         1 ZK5     -0.535100
     24 O2         -2.0010   -1.1690   -0.1610 oh        1 ZK5     -0.599800
     25 O3          0.4290    1.9390    3.1240 oh        1 ZK5     -0.590800
     26 O4          0.2360   -1.0010    5.0490 o         1 ZK5     -0.489100
     27 O5         -2.1230    0.1020    5.7330 oh        1 ZK5     -0.577800
     28 H2C1       -2.4580    0.8710   -5.1040 hc        1 ZK5      0.072200
     29 H2C2       -1.9600   -0.8570   -4.8790 hc        1 ZK5      0.072200
     30 H4          1.7800    0.0260   -5.1630 ha        1 ZK5      0.148000
     31 H6C1        2.9120   -0.7880   -3.3010 hc        1 ZK5      0.057200
     32 H6C2        1.8610   -2.0790   -2.5840 hc        1 ZK5      0.057200
     33 H7C1        2.5160    0.6990   -1.3750 hc        1 ZK5      0.055200
     34 H7C2        3.1040   -0.9170   -0.8010 hc        1 ZK5      0.055200
     35 H1C1       -1.3570    1.5220   -2.9900 hc        1 ZK5      0.058700
     36 H1C2       -2.5600    0.1990   -2.7010 hc        1 ZK5      0.058700
     37 H8          0.7550   -1.6140   -0.2990 hc        1 ZK5      0.076700
     38 H11        -2.2290    0.8370   -0.5960 h1        1 ZK5      0.048700
     39 H121       -2.0650    0.4920    1.9100 hc        1 ZK5      0.066200
     40 H122       -0.9320    1.7320    1.2240 hc        1 ZK5      0.066200
     41 H14         1.3440    1.2200    0.7740 hc        1 ZK5      0.074700
     42 H151        2.5760   -1.4350    1.7360 hc        1 ZK5      0.050700
     43 H152        3.3780    0.1520    1.4090 hc        1 ZK5      0.050700
     44 H161        2.2780   -0.6960    3.9280 hc        1 ZK5      0.063200
     45 H162        2.7280    1.0050    3.4910 hc        1 ZK5      0.063200
     46 H181       -0.4600   -2.1130    1.2140 hc        1 ZK5      0.052700
     47 H182        0.5380   -2.0370    2.7260 hc        1 ZK5      0.052700
     48 H183       -1.2240   -1.6200    2.7820 hc        1 ZK5      0.052700
     49 H191       -0.8000   -2.3570   -3.4430 hc        1 ZK5      0.047367
     50 H192       -0.4050   -2.4490   -1.6760 hc        1 ZK5      0.047367
     51 H193       -2.0500   -1.9200   -2.2090 hc        1 ZK5      0.047367
     52 H211       -0.8770    1.7700    5.4290 h1        1 ZK5      0.053200
     53 H212       -1.8600    1.2170    3.9880 h1        1 ZK5      0.053200
     54 H2         -2.5100   -1.2780    0.6530 ho        1 ZK5      0.409000
     55 H3          1.0510    2.3390    3.7440 ho        1 ZK5      0.406000
     56 H5         -2.7200    0.7250    6.1660 ho        1 ZK5      0.405000
@<TRIPOS>BOND
     1    1    2 1   
     2    1    7 1   
     3    1   28 1   
     4    1   29 1   
     5    2    3 1   
     6    2   23 2   
     7    3    4 2   
     8    3   30 1   
     9    4    5 1   
    10    4   10 1   
    11    5    6 1   
    12    5   31 1   
    13    5   32 1   
    14    6    8 1   
    15    6   33 1   
    16    6   34 1   
    17    7   10 1   
    18    7   35 1   
    19    7   36 1   
    20    8    9 1   
    21    8   14 1   
    22    8   37 1   
    23    9   10 1   
    24    9   11 1   
    25    9   22 1   
    26   10   19 1   
    27   11   12 1   
    28   11   24 1   
    29   11   38 1   
    30   12   13 1   
    31   12   39 1   
    32   12   40 1   
    33   13   14 1   
    34   13   17 1   
    35   13   18 1   
    36   14   15 1   
    37   14   41 1   
    38   15   16 1   
    39   15   42 1   
    40   15   43 1   
    41   16   17 1   
    42   16   44 1   
    43   16   45 1   
    44   17   20 1   
    45   17   25 1   
    46   18   46 1   
    47   18   47 1   
    48   18   48 1   
    49   19   49 1   
    50   19   50 1   
    51   19   51 1   
    52   20   21 1   
    53   20   26 2   
    54   21   27 1   
    55   21   52 1   
    56   21   53 1   
    57   24   54 1   
    58   25   55 1   
    59   27   56 1   
@<TRIPOS>SUBSTRUCTURE
     1 ZK5         1 TEMP              0 ****  ****    0 ROOT
