@<TRIPOS>MOLECULE
ZK5
   56    59     1     0     0
SMALL
bcc


@<TRIPOS>ATOM
      1 C2          0.1330    0.1020   -0.1430 c3        1 ZK5     -0.179400
      2 C3          1.6350    0.1060   -0.1620 c         1 ZK5      0.570300
      3 C4          2.2790    0.2330    1.1520 ce        1 ZK5     -0.256200
      4 C5          1.6090    0.5430    2.2750 c2        1 ZK5     -0.031400
      5 C6          2.3000    0.5290    3.5960 c3        1 ZK5     -0.053200
      6 C7          2.0010    1.7610    4.4200 c3        1 ZK5     -0.074400
      7 C1         -0.4010    1.0830    0.8750 c3        1 ZK5     -0.076400
      8 C8          0.5040    1.9720    4.5640 c3        1 ZK5     -0.068700
      9 C9         -0.1530    2.1040    3.1570 c3        1 ZK5      0.200300
     10 C10         0.1230    0.8190    2.2940 c3        1 ZK5     -0.024800
     11 C11        -1.6830    2.4250    3.2890 c3        1 ZK5      0.127100
     12 C12        -1.9570    3.6120    4.2190 c3        1 ZK5     -0.102400
     13 C13        -1.3000    3.4420    5.5770 c3        1 ZK5     -0.025000
     14 C14         0.2130    3.2380    5.3400 c3        1 ZK5     -0.071700
     15 C15         0.8350    3.4290    6.7170 c3        1 ZK5     -0.067400
     16 C16        -0.0160    4.5220    7.3690 c3        1 ZK5     -0.102400
     17 C17        -1.2790    4.7130    6.4890 c3        1 ZK5      0.050800
     18 C18        -1.9500    2.3170    6.3650 c3        1 ZK5     -0.112100
     19 C19        -0.5590   -0.4290    2.8500 c3        1 ZK5     -0.078100
     20 C20        -2.5480    4.8510    7.3290 c         1 ZK5      0.546100
     21 C21        -3.6270    5.6880    6.6830 c3        1 ZK5      0.036400
     22 F9          0.4100    3.2030    2.4970 f         1 ZK5     -0.237300
     23 O1          2.2820   -0.0260   -1.2080 o         1 ZK5     -0.535100
     24 O2         -2.3700    1.2530    3.6930 oh        1 ZK5     -0.599800
     25 O3         -1.1600    5.8460    5.6380 oh        1 ZK5     -0.590800
     26 O4         -2.6610    4.3400    8.4420 o         1 ZK5     -0.489100
     27 O5         -4.8630    5.3900    7.3030 oh        1 ZK5     -0.577800
     28 H2C1       -0.2630    0.3560   -1.1610 hc        1 ZK5      0.072200
     29 H2C2       -0.2070   -0.9400    0.1050 hc        1 ZK5      0.072200
     30 H4          3.3650    0.0430    1.1650 ha        1 ZK5      0.148000
     31 H6C1        1.9560   -0.3880    4.1520 hc        1 ZK5      0.057200
     32 H6C2        3.4110    0.4390    3.4570 hc        1 ZK5      0.057200
     33 H7C1        2.4590    1.6530    5.4380 hc        1 ZK5      0.055200
     34 H7C2        2.4580    2.6630    3.9320 hc        1 ZK5      0.055200
     35 H1C1       -0.1140    2.1220    0.5590 hc        1 ZK5      0.058700
     36 H1C2       -1.5210    1.0300    0.8880 hc        1 ZK5      0.058700
     37 H8          0.0500    1.0850    5.0800 hc        1 ZK5      0.076700
     38 H11        -2.0500    2.7010    2.2560 h1        1 ZK5      0.048700
     39 H121       -1.5590    4.5410    3.7290 hc        1 ZK5      0.066200
     40 H122       -3.0650    3.7330    4.3380 hc        1 ZK5      0.066200
     41 H14         0.5640    4.1060    4.7020 hc        1 ZK5      0.074700
     42 H151        1.9050    3.7390    6.6390 hc        1 ZK5      0.050700
     43 H152        0.7920    2.4830    7.3120 hc        1 ZK5      0.050700
     44 H161       -0.3150    4.2220    8.4050 hc        1 ZK5      0.063200
     45 H162        0.5550    5.4810    7.4320 hc        1 ZK5      0.063200
     46 H181       -3.0530    2.4840    6.4280 hc        1 ZK5      0.052700
     47 H182       -1.5420    2.2810    7.4060 hc        1 ZK5      0.052700
     48 H183       -1.7700    1.3270    5.8810 hc        1 ZK5      0.052700
     49 H191       -0.0610   -1.3430    2.4440 hc        1 ZK5      0.047367
     50 H192       -1.6350   -0.4570    2.5520 hc        1 ZK5      0.047367
     51 H193       -0.5050   -0.4590    3.9630 hc        1 ZK5      0.047367
     52 H211       -3.6800    5.4510    5.5840 h1        1 ZK5      0.053200
     53 H212       -3.3550    6.7710    6.8090 h1        1 ZK5      0.053200
     54 H2         -3.1960    1.5330    4.1090 ho        1 ZK5      0.409000
     55 H3         -0.8180    6.5720    6.1740 ho        1 ZK5      0.406000
     56 H5         -5.4780    6.0810    7.0310 ho        1 ZK5      0.405000
@<TRIPOS>BOND
     1    1    2 1   
     2    1    7 1   
     3    1   28 1   
     4    1   29 1   
     5    2    3 1   
     6    2   23 2   
     7    3    4 2   
     8    3   30 1   
     9    4    5 1   
    10    4   10 1   
    11    5    6 1   
    12    5   31 1   
    13    5   32 1   
    14    6    8 1   
    15    6   33 1   
    16    6   34 1   
    17    7   10 1   
    18    7   35 1   
    19    7   36 1   
    20    8    9 1   
    21    8   14 1   
    22    8   37 1   
    23    9   10 1   
    24    9   11 1   
    25    9   22 1   
    26   10   19 1   
    27   11   12 1   
    28   11   24 1   
    29   11   38 1   
    30   12   13 1   
    31   12   39 1   
    32   12   40 1   
    33   13   14 1   
    34   13   17 1   
    35   13   18 1   
    36   14   15 1   
    37   14   41 1   
    38   15   16 1   
    39   15   42 1   
    40   15   43 1   
    41   16   17 1   
    42   16   44 1   
    43   16   45 1   
    44   17   20 1   
    45   17   25 1   
    46   18   46 1   
    47   18   47 1   
    48   18   48 1   
    49   19   49 1   
    50   19   50 1   
    51   19   51 1   
    52   20   21 1   
    53   20   26 2   
    54   21   27 1   
    55   21   52 1   
    56   21   53 1   
    57   24   54 1   
    58   25   55 1   
    59   27   56 1   
@<TRIPOS>SUBSTRUCTURE
     1 ZK5         1 TEMP              0 ****  ****    0 ROOT
