@<TRIPOS>MOLECULE
ZK9
   48    50     1     0     0
SMALL
bcc


@<TRIPOS>ATOM
      1 C1          4.6470   -0.2720    2.4510 ca        1 ZK9     -0.111000
      2 C2          5.0590   -0.3640    1.1150 ca        1 ZK9     -0.222900
      3 C3          4.1620   -0.1400    0.0670 ca        1 ZK9     -0.111000
      4 C4          2.8310    0.1900    0.3820 ca        1 ZK9      0.136100
      5 C5          2.4060    0.2890    1.7120 ca        1 ZK9     -0.120000
      6 C6          3.3210    0.0510    2.7380 ca        1 ZK9     -0.083000
      7 O7          2.0320    0.3850   -0.7370 os        1 ZK9     -0.342400
      8 C8          0.7950    1.0080   -0.5400 ca        1 ZK9      0.544600
      9 N9         -0.2500    0.2460   -0.1420 nb        1 ZK9     -0.666000
     10 C10        -1.4540    0.8520   -0.1280 ca        1 ZK9      0.567600
     11 C11         0.6960    2.3770   -0.9210 ca        1 ZK9      0.055600
     12 C12        -0.5750    2.9990   -0.9010 ca        1 ZK9     -0.070300
     13 C13        -1.6770    2.2150   -0.5040 ca        1 ZK9      0.056600
     14 O14        -2.5750    0.1940    0.3810 os        1 ZK9     -0.356400
     15 C15        -2.8810   -1.0520   -0.1690 ca        1 ZK9      0.100100
     16 C16        -2.1200   -2.1950    0.1030 ca        1 ZK9     -0.072000
     17 C17        -2.5740   -3.4320   -0.3590 ca        1 ZK9     -0.110000
     18 C18        -3.7710   -3.5290   -1.0670 ca        1 ZK9     -0.094000
     19 C19        -4.5290   -2.3800   -1.3250 ca        1 ZK9     -0.185300
     20 C20        -4.0830   -1.1290   -0.8870 ca        1 ZK9     -0.101000
     21 C21        -5.7900   -2.4790   -2.1110 c3        1 ZK9      0.172100
     22 N22        -6.9840   -2.6180   -1.2120 n4        1 ZK9     -0.843600
     23 C23         6.4780   -0.6940    0.8020 ce        1 ZK9      0.518400
     24 N24         7.4540   -0.0070    1.4370 nh        1 ZK9     -0.463600
     25 N25         6.7320   -1.6650   -0.1020 nh        1 ZK9     -0.447700
     26 F26         1.7950    3.0530   -1.3010 f         1 ZK9     -0.093900
     27 C27        -0.7360    4.4180   -1.2820 c3        1 ZK9     -0.074800
     28 F28        -2.9220    2.7220   -0.4670 f         1 ZK9     -0.093900
     29 H29         5.3490   -0.4670    3.2770 ha        1 ZK9      0.157000
     30 H30         4.4660   -0.1900   -0.9910 ha        1 ZK9      0.170000
     31 H31         1.3660    0.5530    1.9580 ha        1 ZK9      0.174000
     32 H32         2.9920    0.1200    3.7890 ha        1 ZK9      0.173000
     33 H33        -1.1800   -2.1190    0.6730 ha        1 ZK9      0.179000
     34 H34        -1.9810   -4.3400   -0.1600 ha        1 ZK9      0.167000
     35 H35        -4.1070   -4.5130   -1.4330 ha        1 ZK9      0.149000
     36 H36        -4.6510   -0.2090   -1.0930 ha        1 ZK9      0.158000
     37 H37        -5.9460   -1.5520   -2.7390 hx        1 ZK9      0.117700
     38 H38        -5.7710   -3.3800   -2.7920 hx        1 ZK9      0.117700
     39 H39        -6.8980   -3.4670   -0.6430 hn        1 ZK9      0.461467
     40 H45        -7.0420   -1.8120   -0.5810 hn        1 ZK9      0.461467
     41 H46        -7.8420   -2.6720   -1.7690 hn        1 ZK9      0.461467
     42 H40         8.4250   -0.1780    1.2890 hn        1 ZK9      0.329950
     43 H48         7.1960    0.7150    2.0770 hn        1 ZK9      0.329950
     44 H41         5.9630   -2.1460   -0.5210 hn        1 ZK9      0.329950
     45 H47         7.6550   -1.9310   -0.3720 hn        1 ZK9      0.329950
     46 H42        -0.5830    5.0710   -0.3840 hc        1 ZK9      0.080700
     47 H43         0.0160    4.7070   -2.0590 hc        1 ZK9      0.080700
     48 H44        -1.7640    4.6090   -1.6820 hc        1 ZK9      0.080700
@<TRIPOS>BOND
     1    1    2 ar  
     2    1    6 ar  
     3    1   29 1   
     4    2    3 ar  
     5    2   23 1   
     6    3    4 ar  
     7    3   30 1   
     8    4    5 ar  
     9    4    7 1   
    10    5    6 ar  
    11    5   31 1   
    12    6   32 1   
    13    7    8 1   
    14    8    9 ar  
    15    8   11 ar  
    16    9   10 ar  
    17   10   13 ar  
    18   10   14 1   
    19   11   12 ar  
    20   11   26 1   
    21   12   13 ar  
    22   12   27 1   
    23   13   28 1   
    24   14   15 1   
    25   15   16 ar  
    26   15   20 ar  
    27   16   17 ar  
    28   16   33 1   
    29   17   18 ar  
    30   17   34 1   
    31   18   19 ar  
    32   18   35 1   
    33   19   20 ar  
    34   19   21 1   
    35   20   36 1   
    36   21   22 1   
    37   21   37 1   
    38   21   38 1   
    39   22   39 1   
    40   22   40 1   
    41   22   41 1   
    42   23   24 2   
    43   23   25 1   
    44   24   42 1   
    45   24   43 1   
    46   25   44 1   
    47   25   45 1   
    48   27   46 1   
    49   27   47 1   
    50   27   48 1   
@<TRIPOS>SUBSTRUCTURE
     1 ZK9         1 TEMP              0 ****  ****    0 ROOT
