@<TRIPOS>MOLECULE
ZK9
   48    50     1     0     0
SMALL
bcc


@<TRIPOS>ATOM
      1 C1         -0.7330    0.2670   -0.6150 ca        1 ZK9     -0.112000
      2 C2          0.5660   -0.2510   -0.6870 ca        1 ZK9     -0.221900
      3 C3          1.3310   -0.4440    0.4660 ca        1 ZK9     -0.113000
      4 C4          0.7650   -0.1120    1.7100 ca        1 ZK9      0.138100
      5 C5         -0.5360    0.4000    1.7990 ca        1 ZK9     -0.121000
      6 C6         -1.2740    0.5860    0.6310 ca        1 ZK9     -0.082000
      7 O7          1.6110   -0.3580    2.7830 os        1 ZK9     -0.341400
      8 C8          1.0790   -0.2190    4.0690 ca        1 ZK9      0.544600
      9 N9          0.9640    1.0240    4.5880 nb        1 ZK9     -0.664000
     10 C10         0.6030    1.0940    5.8850 ca        1 ZK9      0.566600
     11 C11         0.8350   -1.4220    4.7930 ca        1 ZK9      0.056600
     12 C12         0.4600   -1.3330    6.1540 ca        1 ZK9     -0.071300
     13 C13         0.3500   -0.0450    6.7150 ca        1 ZK9      0.056600
     14 O14         0.3360    2.3280    6.4800 os        1 ZK9     -0.356400
     15 C15         1.3640    3.2720    6.4570 ca        1 ZK9      0.099100
     16 C16         1.7360    3.9420    5.2850 ca        1 ZK9     -0.073000
     17 C17         2.6690    4.9770    5.3680 ca        1 ZK9     -0.110000
     18 C18         3.2110    5.3470    6.5980 ca        1 ZK9     -0.094000
     19 C19         2.8250    4.6760    7.7650 ca        1 ZK9     -0.185300
     20 C20         1.9050    3.6240    7.7010 ca        1 ZK9     -0.102000
     21 C21         3.4310    5.0460    9.0750 c3        1 ZK9      0.172100
     22 N22         2.5780    6.0390    9.8090 n4        1 ZK9     -0.843600
     23 C23         1.1380   -0.6220   -2.0130 ce        1 ZK9      0.518400
     24 N24         1.0530    0.2690   -3.0250 nh        1 ZK9     -0.463100
     25 N25         1.7160   -1.8360   -2.1490 nh        1 ZK9     -0.447200
     26 F26         0.9750   -2.6140    4.1850 f         1 ZK9     -0.092900
     27 C27         0.1910   -2.5470    6.9520 c3        1 ZK9     -0.074800
     28 F28         0.0080    0.1320    8.0040 f         1 ZK9     -0.094900
     29 H29        -1.3440    0.4030   -1.5220 ha        1 ZK9      0.157000
     30 H30         2.3620   -0.8320    0.4330 ha        1 ZK9      0.170000
     31 H31        -0.9820    0.6500    2.7740 ha        1 ZK9      0.173000
     32 H32        -2.3010    0.9860    0.6930 ha        1 ZK9      0.174000
     33 H33         1.2980    3.6570    4.3140 ha        1 ZK9      0.180000
     34 H34         2.9780    5.5080    4.4520 ha        1 ZK9      0.167000
     35 H35         3.9540    6.1590    6.6420 ha        1 ZK9      0.149000
     36 H36         1.5990    3.0690    8.6020 ha        1 ZK9      0.159000
     37 H37         3.5390    4.1380    9.7380 hx        1 ZK9      0.117700
     38 H38         4.4490    5.5140    8.9300 hx        1 ZK9      0.117700
     39 H39         1.6430    5.6480    9.9680 hn        1 ZK9      0.461467
     40 H45         3.0040    6.2720   10.7120 hn        1 ZK9      0.461467
     41 H46         2.4790    6.8950    9.2530 hn        1 ZK9      0.461467
     42 H40         1.3930    0.0830   -3.9450 hn        1 ZK9      0.329950
     43 H48         0.6280    1.1570   -2.8510 hn        1 ZK9      0.329950
     44 H41         1.7240   -2.4560   -1.3650 hn        1 ZK9      0.329950
     45 H47         2.1220   -2.1540   -3.0020 hn        1 ZK9      0.329950
     46 H42         0.3950   -2.3640    8.0370 hc        1 ZK9      0.081033
     47 H43        -0.8850   -2.8430    6.8430 hc        1 ZK9      0.081033
     48 H44         0.8260   -3.4000    6.6010 hc        1 ZK9      0.081033
@<TRIPOS>BOND
     1    1    2 ar  
     2    1    6 ar  
     3    1   29 1   
     4    2    3 ar  
     5    2   23 1   
     6    3    4 ar  
     7    3   30 1   
     8    4    5 ar  
     9    4    7 1   
    10    5    6 ar  
    11    5   31 1   
    12    6   32 1   
    13    7    8 1   
    14    8    9 ar  
    15    8   11 ar  
    16    9   10 ar  
    17   10   13 ar  
    18   10   14 1   
    19   11   12 ar  
    20   11   26 1   
    21   12   13 ar  
    22   12   27 1   
    23   13   28 1   
    24   14   15 1   
    25   15   16 ar  
    26   15   20 ar  
    27   16   17 ar  
    28   16   33 1   
    29   17   18 ar  
    30   17   34 1   
    31   18   19 ar  
    32   18   35 1   
    33   19   20 ar  
    34   19   21 1   
    35   20   36 1   
    36   21   22 1   
    37   21   37 1   
    38   21   38 1   
    39   22   39 1   
    40   22   40 1   
    41   22   41 1   
    42   23   24 2   
    43   23   25 1   
    44   24   42 1   
    45   24   43 1   
    46   25   44 1   
    47   25   45 1   
    48   27   46 1   
    49   27   47 1   
    50   27   48 1   
@<TRIPOS>SUBSTRUCTURE
     1 ZK9         1 TEMP              0 ****  ****    0 ROOT
