@<TRIPOS>MOLECULE
ZKW
   26    27     1     0     0
SMALL
bcc


@<TRIPOS>ATOM
      1 O3         -0.1400   -0.0150   -0.1800 o         1 ZKW     -0.850300
      2 C11         1.0790    0.3390   -0.0810 c         1 ZKW      0.932200
      3 O2          1.5530    0.8220    0.9840 o         1 ZKW     -0.850300
      4 C7          1.9980    0.1640   -1.2590 cc        1 ZKW     -0.151900
      5 C8          3.3980    0.1390   -1.2760 cd        1 ZKW     -0.280300
      6 C9          3.7760   -0.0650   -2.6670 cd        1 ZKW      0.294800
      7 C10         5.2000   -0.1470   -3.1820 c         1 ZKW      0.837100
      8 O1          5.7080    0.8830   -3.7100 o         1 ZKW     -0.845300
      9 O           5.8250   -1.2370   -3.0400 o         1 ZKW     -0.845300
     10 N1          2.6640   -0.1560   -3.4340 nc        1 ZKW     -0.551800
     11 N           1.5990    0.0000   -2.6070 na        1 ZKW      0.053400
     12 C6          0.2370   -0.0880   -3.0660 c3        1 ZKW      0.097600
     13 C2         -0.2720   -1.4940   -3.2720 ca        1 ZKW     -0.051300
     14 C1         -0.3820   -2.3200   -2.1410 ca        1 ZKW     -0.079000
     15 C3         -0.6770   -2.0000   -4.5120 ca        1 ZKW      0.033400
     16 Cl1        -0.6040   -1.0670   -5.9410 cl        1 ZKW     -0.118400
     17 C4         -1.1750   -3.3050   -4.6330 ca        1 ZKW     -0.151000
     18 C5         -1.2670   -4.1020   -3.4940 ca        1 ZKW      0.012400
     19 Cl         -1.8800   -5.6950   -3.6350 cl        1 ZKW     -0.157400
     20 C          -0.8720   -3.6170   -2.2440 ca        1 ZKW     -0.139000
     21 H8          4.0660    0.2580   -0.4340 ha        1 ZKW      0.154000
     22 H61C        0.1360    0.4940   -4.0260 h1        1 ZKW      0.081700
     23 H62C       -0.4140    0.3870   -2.2660 h1        1 ZKW      0.081700
     24 HA         -0.0860   -1.8910   -1.1560 ha        1 ZKW      0.224000
     25 H          -0.9450   -4.2510   -1.3490 ha        1 ZKW      0.137000
     26 H4         -1.4800   -3.6940   -5.6150 ha        1 ZKW      0.135000
@<TRIPOS>BOND
     1    1    2 1   
     2    2    3 1   
     3    2    4 1   
     4    4    5 2   
     5    4   11 1   
     6    5    6 1   
     7    5   21 1   
     8    6    7 1   
     9    6   10 2   
    10    7    8 1   
    11    7    9 1   
    12   10   11 1   
    13   11   12 1   
    14   12   13 1   
    15   12   22 1   
    16   12   23 1   
    17   13   14 ar  
    18   13   15 ar  
    19   14   20 ar  
    20   14   24 1   
    21   15   16 1   
    22   15   17 ar  
    23   17   18 ar  
    24   17   26 1   
    25   18   19 1   
    26   18   20 ar  
    27   20   25 1   
@<TRIPOS>SUBSTRUCTURE
     1 ZKW         1 TEMP              0 ****  ****    0 ROOT
