@<TRIPOS>MOLECULE
ZLD
   45    43     1     0     0
SMALL
bcc


@<TRIPOS>ATOM
      1 C2         -0.6990   -0.7750    0.0640 ca        1 ZLD     -0.152000
      2 C5          0.6340   -0.3830   -0.1520 ca        1 ZLD     -0.102000
      3 C9         -5.6200   -1.4040   -4.6890 c3        1 ZLD     -0.088000
      4 C1         -1.1810   -0.9250    1.3780 ca        1 ZLD     -0.040000
      5 C3         -0.3390   -0.7070    2.4500 ca        1 ZLD     -0.206000
      6 N4         -1.5780   -1.0510   -1.0480 nh        1 ZLD     -0.096000
      7 C6         -1.3690   -2.2790   -1.8170 c3        1 ZLD     -0.108000
      8 C7         -2.1840   -0.0180   -1.5920 c1        1 ZLD      0.488000
      9 C8         -0.3500   -2.2120   -2.9380 c2        1 ZLD      0.179000
     10 O10         0.1610   -1.1640   -3.3220 o         1 ZLD     -0.269000
     11 C12        -3.2700   -0.6630   -4.8500 c2        1 ZLD      0.338000
     12 C13        -2.1710   -0.1020   -5.7170 c3        1 ZLD     -0.254000
     13 O14        -3.0580   -0.9180   -3.6300 o         1 ZLD     -0.531000
     14 O15        -2.8220    0.9040   -1.9280 o         1 ZLD      0.038000
     15 C16         1.4830   -0.1540    0.9300 ca        1 ZLD      0.022000
     16 C17         1.0270   -0.3230    2.2910 ca        1 ZLD      0.152000
     17 F18         2.7460    0.2530    0.6570 f         1 ZLD     -0.084000
     18 N19         1.8250   -0.1140    3.3910 nh        1 ZLD     -0.197000
     19 C20         1.2190   -0.0320    4.7000 c3        1 ZLD     -0.114000
     20 C21         2.7570    1.4330    7.3050 c1        1 ZLD     -0.047000
     21 O22         3.6380    2.3250    7.0460 oh        1 ZLD     -0.136000
     22 C23         4.0390    0.7040    4.0500 c2        1 ZLD     -0.217000
     23 C24         3.2330   -0.0480    3.2880 c2        1 ZLD     -0.069000
     24 H5          1.0300   -0.2430   -1.1750 ha        1 ZLD      0.174000
     25 H9         -6.0030   -2.3300   -5.1960 h1        1 ZLD      0.096000
     26 H9A        -6.4410   -0.6360   -4.6670 h1        1 ZLD      0.096000
     27 H1         -2.2240   -1.2280    1.5680 ha        1 ZLD      0.154000
     28 H3         -0.7530   -0.8500    3.4620 ha        1 ZLD      0.166000
     29 H6         -1.0460   -3.0570   -1.0640 h1        1 ZLD      0.171500
     30 H6A        -2.3610   -2.5820   -2.2730 h1        1 ZLD      0.171500
     31 H8         -5.3280   -1.6560   -3.6360 h1        1 ZLD      0.096000
     32 HN11       -0.1280   -3.2040   -3.3890 h4        1 ZLD      0.143000
     33 H13        -1.1990   -0.1770   -5.1680 hc        1 ZLD      0.121000
     34 H13A       -2.0870   -0.6620   -6.6800 hc        1 ZLD      0.121000
     35 H13B       -2.3790    0.9730   -5.9410 hc        1 ZLD      0.121000
     36 H20         0.8570   -1.0470    5.0200 h1        1 ZLD      0.109667
     37 H20A        0.3500    0.6790    4.6790 h1        1 ZLD      0.109667
     38 H21         1.9660    0.3430    5.4590 h1        1 ZLD      0.109667
     39 H21A        2.4630    1.2560    8.3640 ha        1 ZLD      0.025000
     40 H23         4.0180    2.8200    7.8070 ho        1 ZLD      0.167000
     41 H23A        5.1260    0.6580    3.9000 ha        1 ZLD      0.145500
     42 H24         3.7010    1.3770    4.8530 ha        1 ZLD      0.145500
     43 H24A        3.6470   -0.7070    2.4980 h4        1 ZLD      0.149000
     44 H112       -4.6280   -0.6780   -6.3720 hn        1 ZLD      0.243000
     45 N11        -4.4940   -0.8910   -5.4100 n         1 ZLD     -0.345000
@<TRIPOS>BOND
     1    1    2 1   
     2    1    4 1   
     3    1    6 1   
     4    2   15 1   
     5    2   24 1   
     6    3   25 1   
     7    3   26 1   
     8    3   31 1   
     9    3   45 1   
    10    4    5 1   
    11    4   27 1   
    12    5   16 1   
    13    5   28 1   
    14    6    7 1   
    15    6    8 1   
    16    7    9 1   
    17    7   29 1   
    18    7   30 1   
    19    8   14 1   
    20    9   10 1   
    21    9   32 1   
    22   11   12 1   
    23   11   13 1   
    24   11   45 1   
    25   12   33 1   
    26   12   34 1   
    27   12   35 1   
    28   15   16 1   
    29   15   17 1   
    30   16   18 1   
    31   18   19 1   
    32   18   23 1   
    33   19   36 1   
    34   19   37 1   
    35   19   38 1   
    36   20   21 1   
    37   20   39 1   
    38   21   40 1   
    39   22   23 1   
    40   22   41 1   
    41   22   42 1   
    42   23   43 1   
    43   44   45 1   
@<TRIPOS>SUBSTRUCTURE
     1 ZLD         1 TEMP              0 ****  ****    0 ROOT
