@<TRIPOS>MOLECULE
ZLD
   44    46     1     0     0
SMALL
bcc


@<TRIPOS>ATOM
      1 C2          0.1000   -0.2340   -0.1190 ca        1 ZLD      0.118600
      2 C5          0.8820   -1.3660    0.1780 ca        1 ZLD     -0.213000
      3 C9         -4.5010    0.8720    0.4160 c3        1 ZLD      0.080000
      4 C1          0.7500    0.9970   -0.3660 ca        1 ZLD     -0.193000
      5 C3          2.1330    1.0810   -0.3150 ca        1 ZLD     -0.101000
      6 N4         -1.2990   -0.3100   -0.1520 n         1 ZLD     -0.397000
      7 C6         -2.1380    0.8080   -0.5550 c3        1 ZLD      0.067000
      8 C7         -2.0750   -1.4720   -0.0150 c         1 ZLD      0.834600
      9 C8         -3.5680    0.2120   -0.6100 c3        1 ZLD      0.089100
     10 O10        -3.4110   -1.1910   -0.2720 os        1 ZLD     -0.402900
     11 C12        -6.8730    0.8890   -0.2500 c         1 ZLD      0.652100
     12 C13        -8.1880    0.1520   -0.2390 c3        1 ZLD     -0.174100
     13 O14        -6.7380    1.9860   -0.8260 o         1 ZLD     -0.607100
     14 O15        -1.7980   -2.6300    0.2940 o         1 ZLD     -0.580500
     15 C16         2.2830   -1.2700    0.2270 ca        1 ZLD      0.186900
     16 C17         2.9390   -0.0330   -0.0210 ca        1 ZLD      0.023600
     17 F18         2.9850   -2.3890    0.5170 f         1 ZLD     -0.118900
     18 N19         4.3690    0.0280    0.0360 nh        1 ZLD     -0.607000
     19 C20         4.9730    0.3550   -1.2530 c3        1 ZLD      0.137800
     20 C21         6.5000    0.4510   -1.1640 c3        1 ZLD      0.125400
     21 O22         6.9110    1.3420   -0.1330 os        1 ZLD     -0.416600
     22 C23         6.3850    0.9710    1.1360 c3        1 ZLD      0.125400
     23 C24         4.8540    0.8890    1.1120 c3        1 ZLD      0.137800
     24 H5          0.4160   -2.3470    0.3780 ha        1 ZLD      0.187000
     25 H9         -4.0420    0.7560    1.4400 h1        1 ZLD      0.077700
     26 H9A        -4.5650    1.9700    0.1630 h1        1 ZLD      0.077700
     27 H1          0.1720    1.9040   -0.5980 ha        1 ZLD      0.138000
     28 H3          2.6100    2.0560   -0.5120 ha        1 ZLD      0.143000
     29 H6         -2.0660    1.6370    0.2000 h1        1 ZLD      0.071200
     30 H6A        -1.8290    1.2000   -1.5610 h1        1 ZLD      0.071200
     31 H8         -3.9960    0.2400   -1.6450 h1        1 ZLD      0.094700
     32 HN11       -5.8920   -0.6310    0.7300 hn        1 ZLD      0.317500
     33 H13        -8.5620    0.0350    0.8070 hc        1 ZLD      0.069367
     34 H13A       -8.9340    0.7400   -0.8280 hc        1 ZLD      0.069367
     35 H13B       -8.0750   -0.8590   -0.7010 hc        1 ZLD      0.069367
     36 H20         4.7020   -0.4650   -1.9740 h1        1 ZLD      0.044950
     37 H20A        4.5760    1.3290   -1.6630 h1        1 ZLD      0.044950
     38 H21         6.9520   -0.5610   -0.9890 h1        1 ZLD      0.057200
     39 H21A        6.9120    0.9010   -2.1040 h1        1 ZLD      0.057200
     40 H23         6.8290   -0.0080    1.4560 h1        1 ZLD      0.057200
     41 H23A        6.7150    1.7900    1.8270 h1        1 ZLD      0.057200
     42 H24         4.4410    1.9360    1.0250 h1        1 ZLD      0.044950
     43 H24A        4.4980    0.4520    2.0850 h1        1 ZLD      0.044950
     44 N11        -5.8210    0.3220    0.4580 n         1 ZLD     -0.560900
@<TRIPOS>BOND
     1    1    2 ar  
     2    1    4 ar  
     3    1    6 1   
     4    2   15 ar  
     5    2   24 1   
     6    3    9 1   
     7    3   25 1   
     8    3   26 1   
     9    3   44 1   
    10    4    5 ar  
    11    4   27 1   
    12    5   16 ar  
    13    5   28 1   
    14    6    7 1   
    15    6    8 1   
    16    7    9 1   
    17    7   29 1   
    18    7   30 1   
    19    8   10 1   
    20    8   14 2   
    21    9   10 1   
    22    9   31 1   
    23   11   12 1   
    24   11   13 2   
    25   11   44 1   
    26   12   33 1   
    27   12   34 1   
    28   12   35 1   
    29   15   16 ar  
    30   15   17 1   
    31   16   18 1   
    32   18   19 1   
    33   18   23 1   
    34   19   20 1   
    35   19   36 1   
    36   19   37 1   
    37   20   21 1   
    38   20   38 1   
    39   20   39 1   
    40   21   22 1   
    41   22   23 1   
    42   22   40 1   
    43   22   41 1   
    44   23   42 1   
    45   23   43 1   
    46   32   44 1   
@<TRIPOS>SUBSTRUCTURE
     1 ZLD         1 TEMP              0 ****  ****    0 ROOT
