@<TRIPOS>MOLECULE
ZLD
   44    43     1     0     0
SMALL
bcc


@<TRIPOS>ATOM
      1 C2         -0.0190    0.3420    0.1780 c1        1 ZLD      0.106200
      2 C5          1.3700    0.3940    0.1410 c1        1 ZLD     -0.147500
      3 C9         -1.3800   -0.7810   -4.2560 c3        1 ZLD      0.080000
      4 C1         -0.6790    0.3260    1.3970 c1        1 ZLD     -0.097500
      5 C3          0.0450    0.3610    2.5800 c1        1 ZLD     -0.067500
      6 N4         -0.7750    0.3970   -1.0500 n         1 ZLD     -0.405600
      7 C6         -1.2470   -0.7190   -1.7920 c3        1 ZLD      0.064000
      8 C7         -1.2030    1.6060   -1.7370 c         1 ZLD      0.833600
      9 C8         -1.9620   -0.1750   -2.9790 c3        1 ZLD      0.089100
     10 O10        -1.7890    1.2200   -2.9910 os        1 ZLD     -0.403900
     11 N11        -2.3530   -0.6840   -5.3240 n         1 ZLD     -0.560900
     12 C12        -2.0580   -1.2340   -6.6120 c         1 ZLD      0.652100
     13 C13        -3.1840   -1.5180   -7.5950 c3        1 ZLD     -0.174100
     14 O14        -0.9090   -1.4490   -6.9290 o         1 ZLD     -0.607100
     15 O15        -1.0650    2.7440   -1.3330 o         1 ZLD     -0.586500
     16 C16         2.0950    0.4290    1.3250 c1        1 ZLD      0.106100
     17 C17         1.4340    0.4130    2.5440 c1        1 ZLD      0.047800
     18 F18         3.4370    0.5610    1.2890 f         1 ZLD     -0.102100
     19 N19         2.1810    0.4210    3.7640 n3        1 ZLD     -0.595200
     20 C20         1.9320    1.6280    4.4580 c3        1 ZLD      0.144800
     21 C21         2.5670    1.6430    5.8330 c3        1 ZLD      0.125400
     22 O22         2.2350    0.5020    6.5910 os        1 ZLD     -0.414600
     23 C23         2.4830   -0.7050    5.8980 c3        1 ZLD      0.125400
     24 C24         1.8490   -0.7230    4.5270 c3        1 ZLD      0.144800
     25 H5          1.8370    0.4050   -0.7190 ha        1 ZLD      0.091500
     26 H9         -0.5690   -0.2930   -4.5080 h1        1 ZLD      0.078200
     27 H9A        -1.1600   -1.7210   -4.0990 h1        1 ZLD      0.078200
     28 H1         -1.6620    0.2890    1.4230 ha        1 ZLD      0.117500
     29 H3         -0.4220    0.3500    3.4400 ha        1 ZLD      0.088500
     30 H6         -1.9240   -1.1600   -1.2340 h1        1 ZLD      0.071700
     31 H6A        -0.4520   -1.1850   -2.1320 h1        1 ZLD      0.071700
     32 H8         -2.9120   -0.3880   -2.9170 h1        1 ZLD      0.094700
     33 HN11       -3.1400   -0.2400   -5.1870 hn        1 ZLD      0.317500
     34 H13        -3.6250   -0.6770   -7.8390 hc        1 ZLD      0.069367
     35 H13A       -3.8370   -2.1210   -7.1800 hc        1 ZLD      0.069367
     36 H13B       -2.8150   -1.9410   -8.4040 hc        1 ZLD      0.069367
     37 H20         2.2930    2.3750    3.9340 h1        1 ZLD      0.049700
     38 H20A        0.9710    1.7440    4.5530 h1        1 ZLD      0.049700
     39 H21         2.2630    2.4430    6.3130 h1        1 ZLD      0.057450
     40 H21A        3.5390    1.6850    5.7320 h1        1 ZLD      0.057450
     41 H23         2.1260   -1.4500    6.4220 h1        1 ZLD      0.057450
     42 H23A        3.4460   -0.8210    5.8010 h1        1 ZLD      0.057450
     43 H24         2.1530   -1.5260    4.0460 h1        1 ZLD      0.049700
     44 H24A        0.8840   -0.7640    4.6280 h1        1 ZLD      0.049700
@<TRIPOS>BOND
     1    1    4 3   
     2    1    6 1   
     3    2   16 3   
     4    2   25 1   
     5    3    9 1   
     6    3   11 1   
     7    3   26 1   
     8    3   27 1   
     9    4   28 1   
    10    5   17 3   
    11    5   29 1   
    12    6    7 1   
    13    6    8 1   
    14    7    9 1   
    15    7   30 1   
    16    7   31 1   
    17    8   10 1   
    18    8   15 2   
    19    9   10 1   
    20    9   32 1   
    21   11   12 1   
    22   11   33 1   
    23   12   13 1   
    24   12   14 2   
    25   13   34 1   
    26   13   35 1   
    27   13   36 1   
    28   16   18 1   
    29   17   19 1   
    30   19   20 1   
    31   19   24 1   
    32   20   21 1   
    33   20   37 1   
    34   20   38 1   
    35   21   22 1   
    36   21   39 1   
    37   21   40 1   
    38   22   23 1   
    39   23   24 1   
    40   23   41 1   
    41   23   42 1   
    42   24   43 1   
    43   24   44 1   
@<TRIPOS>SUBSTRUCTURE
     1 ZLD         1 TEMP              0 ****  ****    0 ROOT
