@<TRIPOS>MOLECULE
ZLD
   45    45     1     0     0
SMALL
bcc


@<TRIPOS>ATOM
      1 C2         -0.6250   -0.2070    0.5760 ca        1 ZLD      0.001000
      2 C5          0.6950    0.2670    0.5230 ca        1 ZLD     -0.130000
      3 C9         -3.6710   -1.6550   -4.1120 c3        1 ZLD     -0.232000
      4 C1         -1.1530   -0.6440    1.8060 ca        1 ZLD     -0.117000
      5 C3         -0.3870   -0.5760    2.9580 ca        1 ZLD     -0.150000
      6 N4         -1.4330   -0.2210   -0.6060 n         1 ZLD     -0.230000
      7 C6         -2.8370    0.0820   -0.4750 c3        1 ZLD     -0.075000
      8 C7         -0.9060   -0.7760   -1.7380 c2        1 ZLD      0.430000
      9 C8         -3.0010   -1.3470   -2.8050 c1        1 ZLD      0.081000
     10 O10        -1.7600   -0.9570   -2.9180 os        1 ZLD     -0.264000
     11 C12        -3.6180   -2.1020   -6.5880 c2        1 ZLD      0.258000
     12 C13        -3.6270   -1.2390   -7.8030 c3        1 ZLD     -0.259000
     13 O14        -4.1170   -3.2050   -6.4380 o         1 ZLD     -0.160000
     14 O15         0.2270   -1.0950   -2.0850 o         1 ZLD     -0.260000
     15 C16         1.4780    0.3110    1.6860 ca        1 ZLD      0.068000
     16 C17         0.9470   -0.1010    2.9490 ca        1 ZLD      0.086000
     17 F18         2.7530    0.7540    1.5730 f         1 ZLD     -0.086000
     18 N19         1.7120   -0.0730    4.1200 nh        1 ZLD     -0.241000
     19 C20         2.5170    1.0880    4.4260 c3        1 ZLD     -0.060000
     20 C21         4.0300    0.8060    4.4720 c3        1 ZLD     -0.040000
     21 O22         4.7200    1.9970    4.7840 oh        1 ZLD     -0.313000
     22 C23         1.8910   -0.9960    6.3830 c2        1 ZLD     -0.286000
     23 C24         1.4840   -1.0450    5.1050 c2        1 ZLD     -0.031000
     24 H5          1.1510    0.5840   -0.4300 ha        1 ZLD      0.170000
     25 H9         -4.0320   -2.7290   -4.0240 hx        1 ZLD      0.184500
     26 H9A        -4.5820   -0.9900   -4.1810 hx        1 ZLD      0.184500
     27 H1         -2.1830   -1.0300    1.8720 ha        1 ZLD      0.146000
     28 H3         -0.8420   -0.8990    3.9100 ha        1 ZLD      0.160000
     29 H6         -2.9790    0.7420    0.4240 h1        1 ZLD      0.104333
     30 H6A        -3.1890    0.6340   -1.3870 h1        1 ZLD      0.104333
     31 H8         -3.4460   -0.8550   -0.3540 h1        1 ZLD      0.104333
     32 HN11       -2.6590   -0.5490   -5.5530 hn        1 ZLD      0.255500
     33 H13        -2.5850   -0.9990   -8.1340 hc        1 ZLD      0.155000
     34 H13A       -4.1480   -1.7940   -8.6300 hc        1 ZLD      0.155000
     35 H13B       -4.1820   -0.2860   -7.6080 hc        1 ZLD      0.155000
     36 H20         2.3340    1.8890    3.6560 h1        1 ZLD      0.100000
     37 H20A        2.1960    1.5020    5.4270 h1        1 ZLD      0.100000
     38 H21         4.4100    0.5120    3.4560 h1        1 ZLD      0.101500
     39 H21A        4.2650   -0.0020    5.2140 h1        1 ZLD      0.101500
     40 H23         4.5230    2.2150    5.7040 ho        1 ZLD      0.198000
     41 H23A        1.6930   -1.8410    7.0540 ha        1 ZLD      0.129500
     42 H24         2.4360   -0.1590    6.8330 ha        1 ZLD      0.129500
     43 H24A        0.9470   -1.9380    4.7230 h4        1 ZLD      0.140000
     44 H112       -2.0040   -2.0430   -5.2640 hn        1 ZLD      0.255500
     45 N11        -2.8890   -1.5320   -5.3860 ny        1 ZLD     -0.124000
@<TRIPOS>BOND
     1    1    2 1   
     2    1    4 1   
     3    1    6 1   
     4    2   15 1   
     5    2   24 1   
     6    3    9 1   
     7    3   25 1   
     8    3   26 1   
     9    3   45 1   
    10    4    5 1   
    11    4   27 1   
    12    5   16 1   
    13    5   28 1   
    14    6    7 1   
    15    6    8 1   
    16    7   29 1   
    17    7   30 1   
    18    7   31 1   
    19    8   10 1   
    20    8   14 1   
    21    9   10 1   
    22   11   12 1   
    23   11   13 1   
    24   11   45 1   
    25   12   33 1   
    26   12   34 1   
    27   12   35 1   
    28   15   16 1   
    29   15   17 1   
    30   16   18 1   
    31   18   19 1   
    32   18   23 1   
    33   19   20 1   
    34   19   36 1   
    35   19   37 1   
    36   20   21 1   
    37   20   38 1   
    38   20   39 1   
    39   21   40 1   
    40   22   23 1   
    41   22   41 1   
    42   22   42 1   
    43   23   43 1   
    44   32   45 1   
    45   44   45 1   
@<TRIPOS>SUBSTRUCTURE
     1 ZLD         1 TEMP              0 ****  ****    0 ROOT
