@<TRIPOS>MOLECULE
ZMA
   40    43     1     0     0
SMALL
bcc


@<TRIPOS>ATOM
      1 C1         -5.3910    0.4210    1.2280 ca        1 ZMA     -0.086500
      2 C2         -6.5750   -0.2830    1.4050 ca        1 ZMA     -0.183000
      3 C3         -7.3830   -0.5480    0.2850 ca        1 ZMA      0.127100
      4 O4         -8.5440   -1.2490    0.5190 oh        1 ZMA     -0.496100
      5 C5         -7.0060   -0.1100   -0.9910 ca        1 ZMA     -0.183000
      6 C6         -5.8150    0.5940   -1.1460 ca        1 ZMA     -0.086500
      7 C7         -4.9990    0.8650   -0.0430 ca        1 ZMA     -0.122300
      8 C8         -3.7340    1.6290   -0.2090 c3        1 ZMA     -0.046100
      9 C9         -2.5350    0.6740   -0.1570 c3        1 ZMA      0.217800
     10 N10        -1.2780    1.3640   -0.3110 nh        1 ZMA     -0.843900
     11 C11        -0.0600    0.7050   -0.1770 cc        1 ZMA      0.945900
     12 N12         1.0590    1.4990   -0.0750 nd        1 ZMA     -0.776000
     13 N13        -0.0860   -0.7040   -0.2020 nc        1 ZMA     -0.848000
     14 C14         1.1030   -1.3650   -0.1620 cd        1 ZMA      0.866400
     15 N15         1.1280   -2.7430   -0.1640 nh        1 ZMA     -0.963500
     16 N16         2.3170   -0.6450   -0.1010 na        1 ZMA     -0.212600
     17 N17         3.5930   -1.0740   -0.0500 nd        1 ZMA     -0.567100
     18 C18         2.2570    0.8260   -0.0460 cd        1 ZMA      0.481500
     19 N19         3.5460    1.2770    0.0360 nc        1 ZMA     -0.380300
     20 C20         4.3220    0.0870    0.0300 cc        1 ZMA      0.502300
     21 C21         5.7610    0.1570    0.1040 cc        1 ZMA      0.225400
     22 C22         6.6310    1.2320    0.1850 cd        1 ZMA     -0.193300
     23 C23         7.9630    0.6790    0.2310 cd        1 ZMA     -0.276300
     24 C24         7.8250   -0.6950    0.1750 cc        1 ZMA      0.253600
     25 O25         6.4810   -1.0490    0.0960 os        1 ZMA     -0.341800
     26 H1         -4.7510    0.6350    2.0990 ha        1 ZMA      0.136000
     27 H2         -6.8900   -0.6350    2.3970 ha        1 ZMA      0.144500
     28 HO4        -9.0040   -1.3560   -0.3260 ho        1 ZMA      0.420000
     29 H5         -7.6450   -0.3200   -1.8610 ha        1 ZMA      0.144500
     30 H6         -5.5160    0.9400   -2.1470 ha        1 ZMA      0.136000
     31 H8         -3.7420    2.1800   -1.1880 hc        1 ZMA      0.055700
     32 H8A        -3.6510    2.3960    0.6080 hc        1 ZMA      0.055700
     33 H9         -2.5630    0.1130    0.8230 h1        1 ZMA      0.058700
     34 H9A        -2.6310   -0.0830   -0.9870 h1        1 ZMA      0.058700
     35 HN10       -1.2740    2.3480   -0.1490 hn        1 ZMA      0.448800
     36 HN15        0.2750   -3.2400   -0.2560 hn        1 ZMA      0.464300
     37 HN1A        1.9890   -3.2320   -0.1830 hn        1 ZMA      0.464300
     38 H22         6.3650    2.2870    0.2100 ha        1 ZMA      0.179000
     39 H23         8.8850    1.2500    0.2970 ha        1 ZMA      0.164000
     40 H24         8.5080   -1.5400    0.1780 h4        1 ZMA      0.054100
@<TRIPOS>BOND
     1    1    2 ar  
     2    1    7 ar  
     3    1   26 1   
     4    2    3 ar  
     5    2   27 1   
     6    3    4 1   
     7    3    5 ar  
     8    4   28 1   
     9    5    6 ar  
    10    5   29 1   
    11    6    7 ar  
    12    6   30 1   
    13    7    8 1   
    14    8    9 1   
    15    8   31 1   
    16    8   32 1   
    17    9   10 1   
    18    9   33 1   
    19    9   34 1   
    20   10   11 1   
    21   10   35 1   
    22   11   12 2   
    23   11   13 1   
    24   12   18 1   
    25   13   14 2   
    26   14   15 1   
    27   14   16 1   
    28   15   36 1   
    29   15   37 1   
    30   16   17 1   
    31   16   18 1   
    32   17   20 2   
    33   18   19 2   
    34   19   20 1   
    35   20   21 1   
    36   21   22 2   
    37   21   25 1   
    38   22   23 1   
    39   22   38 1   
    40   23   24 2   
    41   23   39 1   
    42   24   25 1   
    43   24   40 1   
@<TRIPOS>SUBSTRUCTURE
     1 ZMA         1 TEMP              0 ****  ****    0 ROOT
