@<TRIPOS>MOLECULE
ZMA
   40    43     1     0     0
SMALL
bcc


@<TRIPOS>ATOM
      1 C1         -0.0350    0.3330    0.0270 ca        1 ZMA     -0.086500
      2 C2          1.3560    0.3160   -0.0350 ca        1 ZMA     -0.183000
      3 C3          2.0900    0.0030    1.1170 ca        1 ZMA      0.127100
      4 O4          3.4650   -0.0350    1.1370 oh        1 ZMA     -0.496100
      5 C5          1.4380   -0.2910    2.3270 ca        1 ZMA     -0.183000
      6 C6          0.0490   -0.2680    2.3670 ca        1 ZMA     -0.086500
      7 C7         -0.6990    0.0420    1.2220 ca        1 ZMA     -0.122300
      8 C8         -2.1840    0.0750    1.2900 c3        1 ZMA     -0.046100
      9 C9         -2.7390   -1.3550    1.3060 c3        1 ZMA      0.216800
     10 N10        -4.1760   -1.3840    1.4220 nu        1 ZMA     -0.842900
     11 C11        -4.8920   -2.5750    1.3340 cc        1 ZMA      0.944900
     12 N12        -6.2540   -2.4600    1.1740 nd        1 ZMA     -0.776000
     13 N13        -4.1630   -3.7740    1.4630 nc        1 ZMA     -0.847000
     14 C14        -4.8560   -4.9450    1.4700 cd        1 ZMA      0.866400
     15 N15        -4.1850   -6.1440    1.5710 nv        1 ZMA     -0.963500
     16 N16        -6.2640   -4.9400    1.3570 na        1 ZMA     -0.212600
     17 N17        -7.1490   -5.9560    1.3370 nd        1 ZMA     -0.567100
     18 C18        -6.9500   -3.6460    1.1930 cd        1 ZMA      0.481500
     19 N19        -8.2870   -3.9120    1.0780 nc        1 ZMA     -0.380300
     20 C20        -8.3590   -5.3280    1.1710 cc        1 ZMA      0.502300
     21 C21        -9.6340   -5.9970    1.0920 cc        1 ZMA      0.225400
     22 C22       -10.9230   -5.5140    0.9320 cd        1 ZMA     -0.193300
     23 C23       -11.7950   -6.6650    0.9260 cd        1 ZMA     -0.276300
     24 C24       -10.9860   -7.7750    1.0830 cc        1 ZMA      0.253600
     25 O25        -9.6510   -7.3980    1.1880 os        1 ZMA     -0.341800
     26 H1         -0.6140    0.5800   -0.8770 ha        1 ZMA      0.136000
     27 H2          1.8730    0.5460   -0.9770 ha        1 ZMA      0.144500
     28 HO4         3.7820    0.1900    0.2500 ho        1 ZMA      0.420000
     29 H5          2.0320   -0.5320    3.2200 ha        1 ZMA      0.144500
     30 H6         -0.4720   -0.4950    3.3110 ha        1 ZMA      0.136000
     31 H8         -2.5980    0.6360    0.4100 hc        1 ZMA      0.055700
     32 H8A        -2.5050    0.6210    2.2180 hc        1 ZMA      0.055700
     33 H9         -2.2970   -1.9070    2.1860 h1        1 ZMA      0.058700
     34 H9A        -2.4060   -1.8850    0.3670 h1        1 ZMA      0.058700
     35 HN10       -4.6690   -0.5490    1.1880 hn        1 ZMA      0.448800
     36 HN15       -3.2030   -6.1360    1.7040 hn        1 ZMA      0.463800
     37 HN1A       -4.6840   -6.9980    1.6320 hn        1 ZMA      0.463800
     38 H22       -11.2230   -4.4730    0.8310 ha        1 ZMA      0.179000
     39 H23       -12.8750   -6.6410    0.8190 ha        1 ZMA      0.164000
     40 H24       -11.1520   -8.8480    1.1400 h4        1 ZMA      0.054100
@<TRIPOS>BOND
     1    1    2 ar  
     2    1    7 ar  
     3    1   26 1   
     4    2    3 ar  
     5    2   27 1   
     6    3    4 1   
     7    3    5 ar  
     8    4   28 1   
     9    5    6 ar  
    10    5   29 1   
    11    6    7 ar  
    12    6   30 1   
    13    7    8 1   
    14    8    9 1   
    15    8   31 1   
    16    8   32 1   
    17    9   10 1   
    18    9   33 1   
    19    9   34 1   
    20   10   11 1   
    21   10   35 1   
    22   11   12 2   
    23   11   13 1   
    24   12   18 1   
    25   13   14 2   
    26   14   15 1   
    27   14   16 1   
    28   15   36 1   
    29   15   37 1   
    30   16   17 1   
    31   16   18 1   
    32   17   20 2   
    33   18   19 2   
    34   19   20 1   
    35   20   21 1   
    36   21   22 2   
    37   21   25 1   
    38   22   23 1   
    39   22   38 1   
    40   23   24 2   
    41   23   39 1   
    42   24   25 1   
    43   24   40 1   
@<TRIPOS>SUBSTRUCTURE
     1 ZMA         1 TEMP              0 ****  ****    0 ROOT
