@<TRIPOS>MOLECULE
ZMG
   30    31     1     0     0
SMALL
bcc


@<TRIPOS>ATOM
      1 C1          0.3800    0.3690   -0.2040 ca        1 ZMG     -0.125000
      2 C2          1.6970   -0.0220    0.0260 ca        1 ZMG     -0.114000
      3 C3          2.1260   -0.2950    1.3210 ca        1 ZMG     -0.145000
      4 C4          1.2280   -0.1870    2.3940 ca        1 ZMG      0.085900
      5 C5         -0.1250    0.2120    2.1690 ca        1 ZMG      0.096600
      6 C6         -0.5240    0.4920    0.8490 ca        1 ZMG     -0.093000
      7 N7         -0.9940    0.3720    3.2710 nu        1 ZMG     -0.664600
      8 C8         -2.3010   -0.0570    3.2960 c2        1 ZMG      0.721100
      9 S9         -3.1380    0.0480    4.8680 ss        1 ZMG     -0.281300
     10 C10        -4.6700   -0.5280    4.1410 c3        1 ZMG     -0.105600
     11 C11        -4.3630   -0.7730    2.6480 c         1 ZMG      0.699500
     12 N12        -3.0250   -0.4880    2.2750 ne        1 ZMG     -0.703100
     13 F13         1.6630   -0.4530    3.6520 f         1 ZMG     -0.145900
     14 O14        -5.2270   -1.1670    1.8620 o         1 ZMG     -0.502100
     15 C15        -5.2660   -1.7580    4.8010 c3        1 ZMG     -0.046700
     16 C16        -4.3320   -2.9490    4.7680 c3        1 ZMG     -0.099100
     17 C17        -5.6870   -1.4440    6.2210 c3        1 ZMG     -0.099100
     18 H1          0.0420    0.5850   -1.2290 ha        1 ZMG      0.145000
     19 H2          2.4010   -0.1170   -0.8130 ha        1 ZMG      0.143000
     20 H3          3.1640   -0.6010    1.5210 ha        1 ZMG      0.153000
     21 H6         -1.5570    0.8100    0.6320 ha        1 ZMG      0.170000
     22 HN7        -0.5450    0.4370    4.1630 hn        1 ZMG      0.457800
     23 H10        -5.4080    0.3140    4.2090 h1        1 ZMG      0.113700
     24 H15        -6.1870   -2.0200    4.1980 hc        1 ZMG      0.078700
     25 H116       -3.4040   -2.7420    5.3550 hc        1 ZMG      0.043867
     26 H216       -4.0460   -3.1900    3.7150 hc        1 ZMG      0.043867
     27 H316       -4.8400   -3.8400    5.2110 hc        1 ZMG      0.043867
     28 H117       -6.4450   -0.6240    6.2350 hc        1 ZMG      0.043867
     29 H217       -4.8060   -1.1270    6.8310 hc        1 ZMG      0.043867
     30 H317       -6.1370   -2.3510    6.6940 hc        1 ZMG      0.043867
@<TRIPOS>BOND
     1    1    2 ar  
     2    1    6 ar  
     3    1   18 1   
     4    2    3 ar  
     5    2   19 1   
     6    3    4 ar  
     7    3   20 1   
     8    4    5 ar  
     9    4   13 1   
    10    5    6 ar  
    11    5    7 1   
    12    6   21 1   
    13    7    8 1   
    14    7   22 1   
    15    8    9 1   
    16    8   12 2   
    17    9   10 1   
    18   10   11 1   
    19   10   15 1   
    20   10   23 1   
    21   11   12 1   
    22   11   14 2   
    23   15   16 1   
    24   15   17 1   
    25   15   24 1   
    26   16   25 1   
    27   16   26 1   
    28   16   27 1   
    29   17   28 1   
    30   17   29 1   
    31   17   30 1   
@<TRIPOS>SUBSTRUCTURE
     1 ZMG         1 TEMP              0 ****  ****    0 ROOT
