@<TRIPOS>MOLECULE
ZMG
   31    32     1     0     0
SMALL
bcc


@<TRIPOS>ATOM
      1 C1          0.2540   -0.4540    0.1580 ca        1 ZMG     -0.118000
      2 C2          1.3600   -1.0880    0.7290 ca        1 ZMG     -0.042000
      3 C3          1.6340   -0.9460    2.0870 ca        1 ZMG     -0.138000
      4 C4          0.7910   -0.1630    2.8920 ca        1 ZMG      0.161900
      5 C5         -0.3340    0.4810    2.3070 ca        1 ZMG     -0.111400
      6 C6         -0.5960    0.3270    0.9340 ca        1 ZMG     -0.059000
      7 N7         -1.2060    1.3230    3.1340 n4        1 ZMG     -0.567400
      8 C8         -2.5340    0.7160    3.3590 c2        1 ZMG      0.503100
      9 S9         -2.8990    0.0420    4.9110 ss        1 ZMG     -0.104300
     10 C10        -4.5710   -0.3780    4.3600 c3        1 ZMG     -0.099600
     11 C11        -4.6570    0.0500    2.8910 c         1 ZMG      0.686500
     12 N12        -3.4390    0.6860    2.4170 ne        1 ZMG     -0.592100
     13 F13         1.0510   -0.0100    4.2100 f         1 ZMG     -0.118900
     14 O14        -5.6360   -0.0970    2.1730 o         1 ZMG     -0.392100
     15 C15        -4.9340   -1.8390    4.5650 c3        1 ZMG     -0.052700
     16 C16        -4.0690   -2.7780    3.7530 c3        1 ZMG     -0.107100
     17 C17        -4.8710   -2.1810    6.0390 c3        1 ZMG     -0.107100
     18 H1          0.0470   -0.5720   -0.9200 ha        1 ZMG      0.180000
     19 H2          2.0260   -1.7070    0.1020 ha        1 ZMG      0.179000
     20 H3          2.5070   -1.4400    2.5470 ha        1 ZMG      0.189000
     21 H6         -1.4700    0.8130    0.4640 ha        1 ZMG      0.181000
     22 HN7        -0.7620    1.4720    4.0550 hn        1 ZMG      0.482800
     23 H10        -5.2810    0.2590    4.9570 h1        1 ZMG      0.143700
     24 H15        -6.0030   -1.9500    4.2090 hc        1 ZMG      0.098700
     25 H116       -4.4310   -3.8270    3.8850 hc        1 ZMG      0.054033
     26 H216       -4.1240   -2.5230    2.6670 hc        1 ZMG      0.054033
     27 H316       -3.0040   -2.7320    4.0860 hc        1 ZMG      0.054033
     28 H117       -3.8450   -1.9950    6.4440 hc        1 ZMG      0.054033
     29 H217       -5.1180   -3.2600    6.1880 hc        1 ZMG      0.054033
     30 H317       -5.6040   -1.5690    6.6200 hc        1 ZMG      0.054033
     31 H72        -1.3200    2.2340    2.6590 hn        1 ZMG      0.482800
@<TRIPOS>BOND
     1    1    2 ar  
     2    1    6 ar  
     3    1   18 1   
     4    2    3 ar  
     5    2   19 1   
     6    3    4 ar  
     7    3   20 1   
     8    4    5 ar  
     9    4   13 1   
    10    5    6 ar  
    11    5    7 1   
    12    6   21 1   
    13    7    8 1   
    14    7   22 1   
    15    7   31 1   
    16    8    9 1   
    17    8   12 2   
    18    9   10 1   
    19   10   11 1   
    20   10   15 1   
    21   10   23 1   
    22   11   12 1   
    23   11   14 2   
    24   15   16 1   
    25   15   17 1   
    26   15   24 1   
    27   16   25 1   
    28   16   26 1   
    29   16   27 1   
    30   17   28 1   
    31   17   29 1   
    32   17   30 1   
@<TRIPOS>SUBSTRUCTURE
     1 ZMG         1 TEMP              0 ****  ****    0 ROOT
