@<TRIPOS>MOLECULE
ZMG
   30    31     1     0     0
SMALL
bcc


@<TRIPOS>ATOM
      1 C1         -3.6520    1.9000   -0.3030 ca        1 ZMG     -0.125000
      2 C2         -4.6390    1.1430    0.3240 ca        1 ZMG     -0.114000
      3 C3         -4.3980   -0.1910    0.6400 ca        1 ZMG     -0.145000
      4 C4         -3.1560   -0.7680    0.3370 ca        1 ZMG      0.085900
      5 C5         -2.1370   -0.0000   -0.3050 ca        1 ZMG      0.096600
      6 C6         -2.4170    1.3420   -0.6220 ca        1 ZMG     -0.093000
      7 N7         -0.9170   -0.6200   -0.6550 nh        1 ZMG     -0.664600
      8 C8          0.3220   -0.0460   -0.4820 c2        1 ZMG      0.721100
      9 S9          1.7310   -1.0980   -0.7840 ss        1 ZMG     -0.281300
     10 C10         2.8630    0.2570   -0.4890 c3        1 ZMG     -0.105600
     11 C11         1.9810    1.4790   -0.1530 c         1 ZMG      0.699500
     12 N12         0.5880    1.2120   -0.1690 ne        1 ZMG     -0.703100
     13 F13        -2.9370   -2.0710    0.6480 f         1 ZMG     -0.145900
     14 O14         2.4660    2.5860    0.0910 o         1 ZMG     -0.502100
     15 C15         3.9000    0.0010    0.5880 c3        1 ZMG     -0.046700
     16 C16         3.2800   -0.3060    1.9350 c3        1 ZMG     -0.099100
     17 C17         4.8390   -1.1100    0.1640 c3        1 ZMG     -0.099100
     18 H1         -3.8450    2.9550   -0.5530 ha        1 ZMG      0.145000
     19 H2         -5.6110    1.5950    0.5720 ha        1 ZMG      0.143000
     20 H3         -5.1670   -0.8040    1.1320 ha        1 ZMG      0.153000
     21 H6         -1.6610    1.9680   -1.1230 ha        1 ZMG      0.170000
     22 HN7        -0.9310   -1.6210   -0.6560 hn        1 ZMG      0.457800
     23 H10         3.3890    0.4680   -1.4580 h1        1 ZMG      0.113700
     24 H15         4.4930    0.9590    0.6870 hc        1 ZMG      0.078700
     25 H116        4.0830   -0.4270    2.7020 hc        1 ZMG      0.043867
     26 H216        2.6090    0.5290    2.2520 hc        1 ZMG      0.043867
     27 H316        2.6850   -1.2500    1.8920 hc        1 ZMG      0.043867
     28 H117        5.3630   -0.8410   -0.7840 hc        1 ZMG      0.043867
     29 H217        5.6070   -1.2830    0.9570 hc        1 ZMG      0.043867
     30 H317        4.2740   -2.0610    0.0040 hc        1 ZMG      0.043867
@<TRIPOS>BOND
     1    1    2 ar  
     2    1    6 ar  
     3    1   18 1   
     4    2    3 ar  
     5    2   19 1   
     6    3    4 ar  
     7    3   20 1   
     8    4    5 ar  
     9    4   13 1   
    10    5    6 ar  
    11    5    7 1   
    12    6   21 1   
    13    7    8 1   
    14    7   22 1   
    15    8    9 1   
    16    8   12 2   
    17    9   10 1   
    18   10   11 1   
    19   10   15 1   
    20   10   23 1   
    21   11   12 1   
    22   11   14 2   
    23   15   16 1   
    24   15   17 1   
    25   15   24 1   
    26   16   25 1   
    27   16   26 1   
    28   16   27 1   
    29   17   28 1   
    30   17   29 1   
    31   17   30 1   
@<TRIPOS>SUBSTRUCTURE
     1 ZMG         1 TEMP              0 ****  ****    0 ROOT
