@<TRIPOS>MOLECULE
ZMG
   30    26     1     0     0
SMALL
bcc


@<TRIPOS>ATOM
      1 C1          1.1940   -2.3860   -4.1910 c1        1 ZMG     -0.134000
      2 C2         -0.0900   -2.7800   -4.5320 c1        1 ZMG     -0.130000
      3 C3         -1.1140   -2.6870   -3.6030 c1        1 ZMG     -0.130000
      4 C4         -0.8540   -2.1990   -2.3320 c1        1 ZMG      0.126000
      5 C5          0.4300   -1.8040   -1.9900 c1        1 ZMG     -0.003000
      6 C6          1.4540   -1.8980   -2.9200 c2        1 ZMG     -0.127000
      7 N7          0.6840   -1.2500   -0.7090 n2        1 ZMG     -0.231000
      8 C8          0.2140    0.0500   -0.3920 c2        1 ZMG      0.047000
      9 S9          1.0610    0.9850    0.5260 ss        1 ZMG      0.118000
     10 C10        -0.1210    1.8610    1.4200 c3        1 ZMG     -0.271000
     11 C11        -1.5200    1.4230    0.6070 c1        1 ZMG      0.270000
     12 N12        -1.0890    0.2960   -0.3660 n1        1 ZMG     -0.261000
     13 F13        -1.8380   -2.1300   -1.4260 f         1 ZMG     -0.084000
     14 O14        -2.6470    1.8290    0.8110 o         1 ZMG     -0.261000
     15 C15        -0.1350    1.5690    2.8620 c3        1 ZMG     -0.083000
     16 C16        -0.9500    2.6210    3.5820 c3        1 ZMG     -0.219500
     17 C17         1.2810    1.5770    3.3930 c3        1 ZMG     -0.219500
     18 H1          1.9150   -2.4520   -4.8460 ha        1 ZMG      0.141000
     19 H2         -0.2740   -3.1240   -5.4270 ha        1 ZMG      0.148500
     20 H3         -2.0180   -2.9640   -3.8430 ha        1 ZMG      0.148500
     21 H6          2.3580   -1.6200   -2.6800 ha        1 ZMG      0.138000
     22 HN7         1.1740   -1.7190   -0.0990 hn        1 ZMG      0.245000
     23 H10         0.0360    2.8260    1.4080 h1        1 ZMG      0.153000
     24 H15        -0.5340    0.6910    3.0120 hc        1 ZMG      0.106000
     25 H116       -0.5270    3.4980    3.4650 hc        1 ZMG      0.085167
     26 H216       -0.9940    2.4040    4.5360 hc        1 ZMG      0.085167
     27 H316       -1.8560    2.6440    3.2100 hc        1 ZMG      0.085167
     28 H117        1.7580    2.3570    3.0390 hc        1 ZMG      0.085167
     29 H217        1.7400    0.7580    3.1120 hc        1 ZMG      0.085167
     30 H317        1.2630    1.6220    4.3720 hc        1 ZMG      0.085167
@<TRIPOS>BOND
     1    1    6 1   
     2    1   18 1   
     3    2    3 1   
     4    2   19 1   
     5    3   20 1   
     6    4    5 1   
     7    5    6 1   
     8    6   21 1   
     9    7    8 1   
    10    7   22 1   
    11    8    9 1   
    12    8   12 1   
    13    9   10 1   
    14   10   11 1   
    15   10   15 1   
    16   10   23 1   
    17   11   14 1   
    18   15   16 1   
    19   15   17 1   
    20   15   24 1   
    21   16   25 1   
    22   16   26 1   
    23   16   27 1   
    24   17   28 1   
    25   17   29 1   
    26   17   30 1   
@<TRIPOS>SUBSTRUCTURE
     1 ZMG         1 TEMP              0 ****  ****    0 ROOT
