@<TRIPOS>MOLECULE
ZMK
   66    60     1     0     0
SMALL
bcc


@<TRIPOS>ATOM
      1 OAE        -2.7630    8.6640    7.0100 o         1 ZMK     -0.384000
      2 CBB        -1.7270    8.0970    7.2940 c1        1 ZMK      0.307000
      3 OAX        -1.0980    8.3500    8.5450 os        1 ZMK     -0.278000
      4 CAA        -1.2830    9.6660    9.0250 c3        1 ZMK     -0.061000
      5 CAR        -1.1320    7.0600    6.3340 c2        1 ZMK     -0.155000
      6 CAM        -2.2650    6.1130    5.8180 c3        1 ZMK     -0.144000
      7 CAL        -1.6370    4.9150    5.0820 c3        1 ZMK     -0.192000
      8 CAN        -2.7360    4.1650    4.2810 c3        1 ZMK     -0.126000
      9 CAT        -2.1450    2.8410    3.6990 c3        1 ZMK     -0.230000
     10 CBC        -3.1970    2.1570    2.8080 c1        1 ZMK      0.157000
     11 OAF        -4.1130    2.8020    2.3510 o         1 ZMK     -0.330000
     12 SAZ        -3.0790    0.4070    2.4710 s         1 ZMK      0.044000
     13 CAQ        -3.5690    0.0860    0.7660 c3        1 ZMK     -0.289000
     14 CAO        -3.3680   -1.4030    0.4500 c3        1 ZMK     -0.008000
     15 NAV        -3.0570   -1.5610   -0.9370 n3        1 ZMK     -0.344000
     16 CBA        -2.4880   -2.7820   -1.4030 c1        1 ZMK      0.300000
     17 OAD        -2.3720   -3.7250   -0.6460 o         1 ZMK     -0.467000
     18 CAS        -1.9450   -2.8740   -2.8090 c2        1 ZMK     -0.188000
     19 CAP        -0.7420   -3.7920   -2.8270 c3        1 ZMK     -0.002000
     20 NAW         0.0120   -3.5760   -4.0470 n3        1 ZMK     -0.379000
     21 CBD         1.3520   -4.1260   -4.1830 c1        1 ZMK      0.226000
     22 OAG         1.6410   -5.1520   -3.6210 o         1 ZMK     -0.487000
     23 CBE         2.4120   -3.3740   -4.9940 c2        1 ZMK      0.223000
     24 OAI         3.0440   -2.4430   -4.1790 oh        1 ZMK     -0.713000
     25 CBF         3.4440   -4.3660   -5.5290 c3        1 ZMK     -0.136000
     26 CAC         2.7270   -5.5210   -6.2170 c3        1 ZMK     -0.178500
     27 CAB         4.3680   -3.6560   -6.5460 c3        1 ZMK     -0.178500
     28 CAU         4.3000   -4.9150   -4.3480 c3        1 ZMK      0.054000
     29 OAY         5.6060   -5.2460   -4.8220 os        1 ZMK     -0.755000
     30 PBG         6.6500   -5.8800   -3.7980 p3        1 ZMK      2.583000
     31 OAJ         6.9160   -4.9010   -2.6800 o         1 ZMK     -1.032000
     32 OAK         6.0810   -7.1640   -3.2230 o         1 ZMK     -1.032000
     33 OAH         7.9390   -6.1810   -4.5200 os        1 ZMK     -1.185000
     34 H1         -0.5900    9.8740    9.6790 h1        1 ZMK      0.078333
     35 H2         -1.2250   10.3010    8.2740 h1        1 ZMK      0.078333
     36 H3         -2.1730    9.7400    9.4520 h1        1 ZMK      0.078333
     37 H4         -0.7170    7.5210    5.5690 ha        1 ZMK      0.130500
     38 H5         -0.4450    6.5250    6.8100 ha        1 ZMK      0.130500
     39 H6         -2.8400    6.5990    5.2110 hc        1 ZMK      0.076000
     40 H7         -2.7940    5.7880    6.5820 hc        1 ZMK      0.076000
     41 H8         -1.2370    4.3070    5.7320 hc        1 ZMK      0.129500
     42 H9         -0.9510    5.2330    4.4710 hc        1 ZMK      0.129500
     43 H10        -3.0510    4.7350    3.5430 hc        1 ZMK      0.065000
     44 H11        -3.4900    3.9530    4.8780 hc        1 ZMK      0.065000
     45 H12        -1.3500    3.0440    3.1670 hc        1 ZMK      0.163000
     46 H13        -1.9020    2.2430    4.4320 hc        1 ZMK      0.163000
     47 H14        -4.5110    0.3200    0.6470 h1        1 ZMK      0.110500
     48 H15        -3.0180    0.6270    0.1580 h1        1 ZMK      0.110500
     49 H16        -4.1830   -1.8910    0.6570 h1        1 ZMK      0.097000
     50 H17        -2.6320   -1.7540    0.9900 h1        1 ZMK      0.097000
     51 H18        -3.2960   -0.9110   -1.5360 hn        1 ZMK      0.321000
     52 H19        -2.6300   -3.2270   -3.3990 ha        1 ZMK      0.100000
     53 H20        -1.6800   -1.9860   -3.1140 ha        1 ZMK      0.100000
     54 H21        -1.0410   -4.7190   -2.7880 h1        1 ZMK      0.062000
     55 H22        -0.1710   -3.5990   -2.0490 h1        1 ZMK      0.062000
     56 H23        -0.3570   -3.0870   -4.7350 hn        1 ZMK      0.254000
     57 H24         1.9820   -2.9130   -5.7440 h4        1 ZMK     -0.026000
     58 H25         2.8840   -1.6210   -4.4860 ho        1 ZMK      0.290000
     59 H26         3.3540   -5.9910   -6.8050 hc        1 ZMK      0.054167
     60 H27         2.3800   -6.1510   -5.5320 hc        1 ZMK      0.054167
     61 H28         1.9830   -5.1740   -6.7460 hc        1 ZMK      0.054167
     62 H29         3.8200   -3.1170   -7.1690 hc        1 ZMK      0.054167
     63 H30         4.8770   -4.3340   -7.0570 hc        1 ZMK      0.054167
     64 H31         4.9880   -3.0740   -6.0710 hc        1 ZMK      0.054167
     65 H32         3.8740   -5.7150   -3.9800 h1        1 ZMK      0.056000
     66 H33         4.3700   -4.2310   -3.6480 h1        1 ZMK      0.056000
@<TRIPOS>BOND
     1    1    2 1   
     2    2    3 1   
     3    3    4 1   
     4    4   34 1   
     5    4   35 1   
     6    4   36 1   
     7    5    6 1   
     8    5   37 1   
     9    5   38 1   
    10    6    7 1   
    11    6   39 1   
    12    6   40 1   
    13    7    8 1   
    14    7   41 1   
    15    7   42 1   
    16    8    9 1   
    17    8   43 1   
    18    8   44 1   
    19    9   10 1   
    20    9   45 1   
    21    9   46 1   
    22   10   11 1   
    23   12   13 1   
    24   13   14 1   
    25   13   47 1   
    26   13   48 1   
    27   14   15 1   
    28   14   49 1   
    29   14   50 1   
    30   15   16 1   
    31   15   51 1   
    32   16   17 1   
    33   18   19 1   
    34   18   52 1   
    35   18   53 1   
    36   19   20 1   
    37   19   54 1   
    38   19   55 1   
    39   20   21 1   
    40   20   56 1   
    41   21   22 1   
    42   23   24 1   
    43   23   25 1   
    44   23   57 1   
    45   24   58 1   
    46   25   26 1   
    47   25   27 1   
    48   25   28 1   
    49   26   59 1   
    50   26   60 1   
    51   26   61 1   
    52   27   62 1   
    53   27   63 1   
    54   27   64 1   
    55   28   29 1   
    56   28   65 1   
    57   28   66 1   
    58   29   30 1   
    59   30   31 1   
    60   30   32 1   
@<TRIPOS>SUBSTRUCTURE
     1 ZMK         1 TEMP              0 ****  ****    0 ROOT
