@<TRIPOS>MOLECULE
ZMK
   66    65     1     0     0
SMALL
bcc


@<TRIPOS>ATOM
      1 OAE        11.4200   -2.1910   -0.2250 o         1 ZMK     -0.556000
      2 CBB        10.2740   -2.3270   -0.6610 c         1 ZMK      0.632100
      3 OAX         9.8030   -3.6000   -0.8350 os        1 ZMK     -0.434900
      4 CAA        10.6690   -4.6670   -0.4510 c3        1 ZMK      0.126700
      5 CAR         9.2930   -1.2700   -1.0610 c3        1 ZMK     -0.125400
      6 CAM         8.1240   -1.2100   -0.0990 c3        1 ZMK     -0.077400
      7 CAL         7.1330   -0.1490   -0.5270 c3        1 ZMK     -0.077400
      8 CAN         5.9520   -0.0960    0.4180 c3        1 ZMK     -0.073400
      9 CAT         4.9590    0.9620   -0.0160 c3        1 ZMK     -0.173400
     10 CBC         3.8250    1.0810    0.9720 c         1 ZMK      0.530700
     11 OAF         4.0400    1.2770    2.1780 o         1 ZMK     -0.570100
     12 SAZ         2.3410    0.9040    0.1680 ss        1 ZMK     -0.165700
     13 CAQ         1.0730    1.0830    1.3840 c3        1 ZMK     -0.057300
     14 CAO         0.6180    2.5190    1.6010 c3        1 ZMK      0.116000
     15 NAV        -0.2460    3.0020    0.5580 n         1 ZMK     -0.554900
     16 CBA        -0.6530    4.3100    0.5300 c         1 ZMK      0.647100
     17 OAD        -0.1590    5.1750    1.3000 o         1 ZMK     -0.690100
     18 CAS        -1.6800    4.7130   -0.5100 c3        1 ZMK     -0.188400
     19 CAP        -3.1030    4.2740   -0.1400 c3        1 ZMK      0.093000
     20 NAW        -3.3250    2.8640   -0.0350 n         1 ZMK     -0.560900
     21 CBD        -3.1710    2.0260   -1.1540 c         1 ZMK      0.571100
     22 OAG        -3.3510    2.4950   -2.2990 o         1 ZMK     -0.684100
     23 CBE        -2.6610    0.5540   -0.8730 c3        1 ZMK      0.347800
     24 OAI        -1.6870    0.5820    0.0230 o         1 ZMK     -0.910500
     25 CBF        -3.8850   -0.3440   -0.5000 c3        1 ZMK     -0.112000
     26 CAC        -4.2290   -0.1880    0.9680 c3        1 ZMK     -0.073100
     27 CAB        -5.0830    0.0100   -1.3590 c3        1 ZMK     -0.073100
     28 CAU        -3.4730   -1.8040   -0.7880 c3        1 ZMK      0.206400
     29 OAY        -4.5420   -2.6900   -0.6250 os        1 ZMK     -0.596200
     30 PBG        -4.2700   -4.0860    0.2040 p5        1 ZMK      1.430800
     31 OAJ        -4.3070   -3.4390    1.7090 oh        1 ZMK     -0.785400
     32 OAK        -5.4360   -4.9750    0.0230 o         1 ZMK     -0.847500
     33 OAH        -2.8610   -4.4860   -0.0090 o         1 ZMK     -0.847500
     34 H1         10.0670   -5.5850   -0.6590 h1        1 ZMK      0.047367
     35 H2         11.6010   -4.6400   -1.0650 h1        1 ZMK      0.047367
     36 H3         10.9240   -4.5820    0.6320 h1        1 ZMK      0.047367
     37 H4          9.8310   -0.2860   -1.0850 hc        1 ZMK      0.075700
     38 H5          8.9220   -1.4990   -2.0960 hc        1 ZMK      0.075700
     39 H6          7.6180   -2.2120   -0.0640 hc        1 ZMK      0.057200
     40 H7          8.4950   -0.9850    0.9350 hc        1 ZMK      0.057200
     41 H8          7.6400    0.8520   -0.5550 hc        1 ZMK      0.039700
     42 H9          6.7720   -0.3680   -1.5670 hc        1 ZMK      0.039700
     43 H10         5.4460   -1.0970    0.4460 hc        1 ZMK      0.056200
     44 H11         6.3020    0.1320    1.4600 hc        1 ZMK      0.056200
     45 H12         5.4690    1.9600   -0.0800 hc        1 ZMK      0.064700
     46 H13         4.5570    0.7170   -1.0350 hc        1 ZMK      0.064700
     47 H14         0.2160    0.4470    0.9960 h1        1 ZMK      0.131700
     48 H15         1.4200    0.6650    2.3580 h1        1 ZMK      0.131700
     49 H16         0.0760    2.5610    2.5940 h1        1 ZMK      0.037200
     50 H17         1.5100    3.2040    1.6850 h1        1 ZMK      0.037200
     51 H18        -0.7690    2.2890    0.0540 hn        1 ZMK      0.385500
     52 H19        -1.6600    5.8290   -0.5940 hc        1 ZMK      0.064200
     53 H20        -1.4120    4.2770   -1.5090 hc        1 ZMK      0.064200
     54 H21        -3.3830    4.7560    0.8390 h1        1 ZMK      0.037700
     55 H22        -3.7860    4.6720   -0.9450 h1        1 ZMK      0.037700
     56 H23        -2.9980    2.4420    0.8110 hn        1 ZMK      0.304500
     57 H24        -2.3160    0.2260   -1.9080 h1        1 ZMK     -0.033300
     58 H25        -3.6020   -2.8190    1.8520 ho        1 ZMK      0.421000
     59 H26        -4.6540    0.8250    1.1700 hc        1 ZMK      0.023200
     60 H27        -4.9840   -0.9510    1.2770 hc        1 ZMK      0.023200
     61 H28        -3.3030   -0.3140    1.5810 hc        1 ZMK      0.023200
     62 H29        -4.7860    0.0400   -2.4360 hc        1 ZMK      0.023200
     63 H30        -5.8850   -0.7560   -1.2260 hc        1 ZMK      0.023200
     64 H31        -5.4880    1.0140   -1.0810 hc        1 ZMK      0.023200
     65 H32        -3.1290   -1.8590   -1.8620 h1        1 ZMK      0.022700
     66 H33        -2.6190   -2.0950   -0.1160 h1        1 ZMK      0.022700
@<TRIPOS>BOND
     1    1    2 2   
     2    2    3 1   
     3    2    5 1   
     4    3    4 1   
     5    4   34 1   
     6    4   35 1   
     7    4   36 1   
     8    5    6 1   
     9    5   37 1   
    10    5   38 1   
    11    6    7 1   
    12    6   39 1   
    13    6   40 1   
    14    7    8 1   
    15    7   41 1   
    16    7   42 1   
    17    8    9 1   
    18    8   43 1   
    19    8   44 1   
    20    9   10 1   
    21    9   45 1   
    22    9   46 1   
    23   10   11 2   
    24   10   12 1   
    25   12   13 1   
    26   13   14 1   
    27   13   47 1   
    28   13   48 1   
    29   14   15 1   
    30   14   49 1   
    31   14   50 1   
    32   15   16 1   
    33   15   51 1   
    34   16   17 2   
    35   16   18 1   
    36   18   19 1   
    37   18   52 1   
    38   18   53 1   
    39   19   20 1   
    40   19   54 1   
    41   19   55 1   
    42   20   21 1   
    43   20   56 1   
    44   21   22 2   
    45   21   23 1   
    46   23   24 1   
    47   23   25 1   
    48   23   57 1   
    49   25   26 1   
    50   25   27 1   
    51   25   28 1   
    52   26   59 1   
    53   26   60 1   
    54   26   61 1   
    55   27   62 1   
    56   27   63 1   
    57   27   64 1   
    58   28   29 1   
    59   28   65 1   
    60   28   66 1   
    61   29   30 1   
    62   30   31 1   
    63   30   32 1   
    64   30   33 1   
    65   31   58 1   
@<TRIPOS>SUBSTRUCTURE
     1 ZMK         1 TEMP              0 ****  ****    0 ROOT
