@<TRIPOS>MOLECULE
ZMK
   68    67     1     0     0
SMALL
bcc


@<TRIPOS>ATOM
      1 OAE         0.0000    0.0000    0.0000 o         1 ZMK     -0.586000
      2 CBB         1.2080    0.0000    0.0000 c         1 ZMK      0.691100
      3 OAX         1.8800    0.0000    1.1620 os        1 ZMK     -0.417900
      4 CAA         1.0880    0.0010    2.3800 c3        1 ZMK      0.270700
      5 CAR         1.9620   -0.0090   -1.3050 c3        1 ZMK     -0.070400
      6 CAM         0.9680   -0.0140   -2.4670 c3        1 ZMK     -0.019400
      7 CAL         1.7340   -0.0220   -3.7930 c3        1 ZMK     -0.030400
      8 CAN         0.7380   -0.0280   -4.9560 c3        1 ZMK     -0.020400
      9 CAT         1.5040   -0.0350   -6.2800 c3        1 ZMK     -0.095400
     10 CBC         0.5240   -0.0410   -7.4270 c         1 ZMK      0.637700
     11 OAF        -0.6680   -0.0380   -7.2050 o         1 ZMK     -0.554100
     12 SAZ         1.0950   -0.0500   -9.0400 ss        1 ZMK     -0.288700
     13 CAQ        -0.4800   -0.0540   -9.9310 c3        1 ZMK      0.049700
     14 CAO        -0.2150   -0.0630  -11.4370 c3        1 ZMK     -0.005200
     15 NAV        -1.4900   -0.0660  -12.1580 ny        1 ZMK      0.316200
     16 CBA        -1.5020   -0.0730  -13.5060 c         1 ZMK     -0.025900
     17 OAD        -0.4570   -0.0770  -14.1220 o         1 ZMK     -0.653100
     18 CAS        -2.8140   -0.0750  -14.2480 c3        1 ZMK     -0.016400
     19 CAP        -2.5480   -0.0850  -15.7540 c3        1 ZMK     -0.007200
     20 NAW        -3.8240   -0.0880  -16.4750 ny        1 ZMK      0.175200
     21 CBD        -3.8370   -0.0950  -17.8220 c         1 ZMK      0.236100
     22 OAG        -2.7950   -0.0070  -18.4390 o         1 ZMK     -0.485100
     23 CBE        -5.1440   -0.2120  -18.5630 c3        1 ZMK      0.149100
     24 OAI        -6.1970   -0.4660  -17.6330 oh        1 ZMK     -0.604800
     25 CBF        -5.4260    1.0940  -19.3090 c3        1 ZMK     -0.094000
     26 CAC        -5.3740    2.2640  -18.3260 c3        1 ZMK      0.001400
     27 CAB        -4.3710    1.2970  -20.3990 c3        1 ZMK      0.001400
     28 CAU        -6.8140    1.0250  -19.9490 c3        1 ZMK      0.312400
     29 OAY        -7.0770    2.2450  -20.6460 os        1 ZMK     -0.491200
     30 PBG        -8.4500    2.5230  -21.4400 p5        1 ZMK      0.827900
     31 OAJ        -8.5700    1.5000  -22.6790 o         1 ZMK     -0.440167
     32 OAK        -8.4560    4.0350  -21.9900 o         1 ZMK     -0.440167
     33 OAH        -9.5970    2.3250  -20.5270 o         1 ZMK     -0.440167
     34 H1          0.4640    0.8860    2.4040 h1        1 ZMK      0.002033
     35 H2          0.4630   -0.8830    2.4050 h1        1 ZMK      0.002033
     36 H3          1.7480    0.0020    3.2390 h1        1 ZMK      0.002033
     37 H4          2.5840   -0.8950   -1.3570 hc        1 ZMK      0.035700
     38 H5          2.5860    0.8740   -1.3680 hc        1 ZMK      0.035700
     39 H6          0.3440   -0.8980   -2.4050 hc        1 ZMK      0.031700
     40 H7          0.3460    0.8710   -2.4150 hc        1 ZMK      0.031700
     41 H8          2.3570    0.8620   -3.8550 hc        1 ZMK      0.014200
     42 H9          2.3560   -0.9070   -3.8450 hc        1 ZMK      0.014200
     43 H10         0.1160    0.8570   -4.9040 hc        1 ZMK      0.030700
     44 H11         0.1150   -0.9120   -4.8940 hc        1 ZMK      0.030700
     45 H12         2.1260   -0.9200   -6.3330 hc        1 ZMK      0.047700
     46 H13         2.1270    0.8490   -6.3420 hc        1 ZMK      0.047700
     47 H14        -1.0460   -0.9360   -9.6580 h1        1 ZMK      0.056700
     48 H15        -1.0450    0.8330   -9.6690 h1        1 ZMK      0.056700
     49 H16         0.3500   -0.9490  -11.6990 hx        1 ZMK      0.088200
     50 H17         0.3520    0.8200  -11.7100 hx        1 ZMK      0.088200
     51 H18        -1.9930   -0.8780  -11.8580 hn        1 ZMK      0.151800
     52 H19        -3.3810   -0.9570  -13.9760 hc        1 ZMK      0.002700
     53 H20        -3.3780    0.8110  -13.9860 hc        1 ZMK      0.002700
     54 H21        -1.9820    0.7980  -16.0260 hx        1 ZMK      0.094700
     55 H22        -1.9830   -0.9710  -16.0160 hx        1 ZMK      0.094700
     56 H23        -4.3250    0.7280  -16.1830 hn        1 ZMK      0.234300
     57 H24        -5.0840   -1.0280  -19.2730 h1        1 ZMK      0.049700
     58 H25        -6.5270   -1.3400  -17.7620 ho        1 ZMK      0.415000
     59 H26        -6.0000    2.0440  -17.4690 hc        1 ZMK      0.015200
     60 H27        -5.7340    3.1620  -18.8140 hc        1 ZMK      0.015200
     61 H28        -4.3530    2.4160  -17.9980 hc        1 ZMK      0.015200
     62 H29        -4.1240    0.3410  -20.8450 hc        1 ZMK      0.015200
     63 H30        -4.7620    1.9610  -21.1610 hc        1 ZMK      0.015200
     64 H31        -3.4800    1.7330  -19.9630 hc        1 ZMK      0.015200
     65 H32        -7.5610    0.8820  -19.1780 h1        1 ZMK     -0.010300
     66 H33        -6.8500    0.1960  -20.6450 h1        1 ZMK     -0.010300
     67 HAV2       -1.9920    0.7500  -11.8670 hn        1 ZMK      0.151800
     68 HAW2       -4.3250   -0.9010  -16.1760 hn        1 ZMK      0.234300
@<TRIPOS>BOND
     1    1    2 2   
     2    2    3 1   
     3    2    5 1   
     4    3    4 1   
     5    4   34 1   
     6    4   35 1   
     7    4   36 1   
     8    5    6 1   
     9    5   37 1   
    10    5   38 1   
    11    6    7 1   
    12    6   39 1   
    13    6   40 1   
    14    7    8 1   
    15    7   41 1   
    16    7   42 1   
    17    8    9 1   
    18    8   43 1   
    19    8   44 1   
    20    9   10 1   
    21    9   45 1   
    22    9   46 1   
    23   10   11 2   
    24   10   12 1   
    25   12   13 1   
    26   13   14 1   
    27   13   47 1   
    28   13   48 1   
    29   14   15 1   
    30   14   49 1   
    31   14   50 1   
    32   15   16 1   
    33   15   51 1   
    34   15   67 1   
    35   16   17 2   
    36   16   18 1   
    37   18   19 1   
    38   18   52 1   
    39   18   53 1   
    40   19   20 1   
    41   19   54 1   
    42   19   55 1   
    43   20   21 1   
    44   20   56 1   
    45   20   68 1   
    46   21   22 2   
    47   21   23 1   
    48   23   24 1   
    49   23   25 1   
    50   23   57 1   
    51   24   58 1   
    52   25   26 1   
    53   25   27 1   
    54   25   28 1   
    55   26   59 1   
    56   26   60 1   
    57   26   61 1   
    58   27   62 1   
    59   27   63 1   
    60   27   64 1   
    61   28   29 1   
    62   28   65 1   
    63   28   66 1   
    64   29   30 1   
    65   30   31 1   
    66   30   32 1   
    67   30   33 1   
@<TRIPOS>SUBSTRUCTURE
     1 ZMK         1 TEMP              0 ****  ****    0 ROOT
