@<TRIPOS>MOLECULE
ZMO
   95    88     1     0     0
SMALL
bcc


@<TRIPOS>ATOM
      1 O23        -2.9560 -108.9990    1.5760 o         1 ZMO     -0.952000
      2 P24        -1.5960 -108.6550    1.9310 p3        1 ZMO      2.497000
      3 O26        -0.6900 -108.6910    3.0370 o         1 ZMO     -0.952000
      4 O27        -0.8860 -108.0600    0.5560 os        1 ZMO     -0.567000
      5 C28        -1.7430 -107.2750   -0.0490 c1        1 ZMO     -0.042000
      6 C29        -1.4250 -106.7210   -1.3960 c3        1 ZMO     -0.140000
      7 C31        -0.8800 -105.3100   -1.1900 c3        1 ZMO     -0.217500
      8 C30        -0.4360 -107.5460   -2.1990 c3        1 ZMO     -0.217500
      9 C32        -2.7880 -106.7030   -2.1420 c3        1 ZMO      0.047000
     10 O33        -2.8810 -105.7520   -3.1630 oh        1 ZMO     -0.275000
     11 C34        -3.8940 -106.4310   -1.1110 c2        1 ZMO      0.245000
     12 O35        -4.2580 -105.3290   -0.7200 o         1 ZMO     -0.215000
     13 N36        -4.6200 -107.6150   -0.5700 nz        1 ZMO     -0.142000
     14 C37        -6.1200 -107.7860   -3.6840 c3        1 ZMO     -0.135000
     15 C38        -5.8810 -109.2070   -3.9810 c2        1 ZMO     -0.403000
     16 C39        -4.9120 -109.9060   -3.3300 c2        1 ZMO      0.186000
     17 O40        -4.1080 -109.5720   -2.3940 o         1 ZMO     -0.578000
     18 N41        -4.6970 -111.3580   -3.7510 ny        1 ZMO     -0.058000
     19 C42        -5.3150 -112.2910   -2.7950 c3        1 ZMO     -0.183000
     20 C43        11.1470  128.9270   -5.0910 c1        1 ZMO     -0.407000
     21 S1         10.9750  130.2160   -5.4660 s         1 ZMO      1.085000
     22 C1         -3.1150 -113.2560   -6.9290 c2        1 ZMO      0.185000
     23 O1         -3.5510 -112.7350   -5.9000 o         1 ZMO     -0.371000
     24 C2         11.3150  127.5640   -4.6950 c3        1 ZMO     -0.171000
     25 C3         11.8620  126.6780   -5.8110 c3        1 ZMO     -0.148000
     26 C4         11.9770  125.2490   -5.3220 c3        1 ZMO     -0.167000
     27 C5         12.4600  124.3360   -6.4300 c3        1 ZMO     -0.158000
     28 C6         12.6150  122.9170   -5.9240 c3        1 ZMO     -0.164000
     29 C7         12.9880  121.9730   -7.0460 c3        1 ZMO     -0.155000
     30 C8         13.1160  120.5500   -6.5270 c3        1 ZMO     -0.051000
     31 C9         13.4140  119.6190   -7.5730 c1        1 ZMO     -0.184000
     32 C10        13.6630  118.8280   -8.4350 c1        1 ZMO     -0.194000
     33 C11        10.2400  120.3470   -3.8690 c3        1 ZMO     -0.215000
     34 C12         9.2840  121.3720   -4.4230 c3        1 ZMO     -0.161000
     35 C13         9.3240  122.6570   -3.6240 c3        1 ZMO     -0.159000
     36 C14         8.4600  123.7250   -4.2610 c3        1 ZMO     -0.166000
     37 C15         8.5070  125.0150   -3.4700 c3        1 ZMO     -0.155000
     38 C16         7.7910  126.1280   -4.2170 c3        1 ZMO     -0.074000
     39 H28        -4.5600 -110.4190    0.2540 ha        1 ZMO      0.002250
     40 H28A       -4.0650 -110.5170   -0.1990 ha        1 ZMO      0.002250
     41 H31        -1.6530 -104.6530   -0.7210 hc        1 ZMO      0.104167
     42 H31A        0.0220 -105.3410   -0.5330 hc        1 ZMO      0.104167
     43 H31B       -0.5780 -104.8790   -2.1760 hc        1 ZMO      0.104167
     44 H30        -0.3190 -107.1120   -3.2220 hc        1 ZMO      0.104167
     45 H30A        0.5570 -107.5470   -1.6870 hc        1 ZMO      0.104167
     46 H30B       -0.7900 -108.6010   -2.2930 hc        1 ZMO      0.104167
     47 H32        -2.9630 -107.6990   -2.6630 h1        1 ZMO      0.199000
     48 HO33       -2.6970 -104.8720   -2.7980 ho        1 ZMO      0.229000
     49 HN36       -3.9610 -108.2520   -0.0870 hn        1 ZMO      0.279667
     50 H37        -5.1600 -107.2450   -3.4710 hc        1 ZMO      0.066000
     51 H37A       -5.3530 -107.3320    0.0830 hn        1 ZMO      0.279667
     52 H38        -6.7930 -107.6700   -2.7940 hc        1 ZMO      0.066000
     53 H38A       -6.6130 -107.2860   -4.5540 hc        1 ZMO      0.066000
     54 HN41       -6.5110 -109.6560   -4.7580 ha        1 ZMO      0.137000
     55 H42        -4.9350 -112.0540   -1.7630 hx        1 ZMO      0.126667
     56 H42A       -3.6870 -111.5310   -3.7890 hn        1 ZMO      0.241500
     57 H43        -5.0520 -113.3470   -3.0670 hx        1 ZMO      0.126667
     58 H43A       -6.4290 -112.1620   -2.8160 hx        1 ZMO      0.126667
     59 H2         -3.7340 -113.3440   -7.8470 h4        1 ZMO      0.094500
     60 H2A        -2.0840 -113.6630   -6.9850 h4        1 ZMO      0.094500
     61 H3         10.3140  127.1460   -4.3470 hc        1 ZMO      0.180000
     62 H3A        12.0080  127.5010   -3.8010 hc        1 ZMO      0.180000
     63 H4         11.1760  126.7180   -6.6980 hc        1 ZMO      0.100000
     64 H4A        12.8690  127.0500   -6.1340 hc        1 ZMO      0.100000
     65 H5         12.6870  125.2000   -4.4550 hc        1 ZMO      0.096000
     66 H5A        10.9740  124.8910   -4.9580 hc        1 ZMO      0.096000
     67 H6         11.7250  124.3560   -7.2790 hc        1 ZMO      0.087500
     68 H6A        13.4420  124.7030   -6.8290 hc        1 ZMO      0.087500
     69 H7         11.6520  122.5770   -5.4510 hc        1 ZMO      0.087000
     70 H7A        13.4030  122.8860   -5.1260 hc        1 ZMO      0.087000
     71 H8         13.9580  122.2950   -7.5080 hc        1 ZMO      0.090000
     72 H8A        12.2070  122.0110   -7.8500 hc        1 ZMO      0.090000
     73 H9         13.9280  120.5080   -5.7470 hc        1 ZMO      0.099000
     74 H10        12.1540  120.2490   -6.0190 hc        1 ZMO      0.099000
     75 H11        10.1940  119.4090   -4.4730 hc        1 ZMO      0.078000
     76 H11A       13.8850  118.1240   -9.1970 ha        1 ZMO      0.227000
     77 H12        11.2890  120.7310   -3.8960 hc        1 ZMO      0.078000
     78 H12A        9.9850  120.0990   -2.8100 hc        1 ZMO      0.078000
     79 H13         8.2410  120.9590   -4.4150 hc        1 ZMO      0.082500
     80 H13A        9.5450  121.5860   -5.4940 hc        1 ZMO      0.082500
     81 H14        10.3830  123.0240   -3.5570 hc        1 ZMO      0.080500
     82 H14A        8.9740  122.4610   -2.5770 hc        1 ZMO      0.080500
     83 H15         7.4000  123.3630   -4.3270 hc        1 ZMO      0.086000
     84 H15A        8.8110  123.9120   -5.3120 hc        1 ZMO      0.086000
     85 H16A        8.0270  124.8630   -2.4670 hc        1 ZMO      0.085000
     86 H16B        9.5740  125.3080   -3.2830 hc        1 ZMO      0.085000
     87 C17         7.8900  127.3910   -3.5440 c1        1 ZMO     -0.164000
     88 C18         7.9410  128.4440   -2.9770 c1        1 ZMO     -0.245000
     89 H50         8.2170  126.2170   -5.2580 hc        1 ZMO      0.107000
     90 H51         6.7020  125.8580   -4.3310 hc        1 ZMO      0.107000
     91 H52         7.9400  129.3600   -2.4410 ha        1 ZMO      0.228000
     92 H53         9.5660  125.2560   -7.0160 ha        1 ZMO      0.002250
     93 H54         9.0280  125.1510   -7.4150 ha        1 ZMO      0.002250
     94 H362       -5.0280 -108.1550   -1.3640 hn        1 ZMO      0.279667
     95 H412       -5.0750 -111.5140   -4.6900 hn        1 ZMO      0.241500
@<TRIPOS>BOND
     1    1    2 1   
     2    2    3 1   
     3    2    4 1   
     4    4    5 1   
     5    5    6 1   
     6    6    7 1   
     7    6    8 1   
     8    6    9 1   
     9    7   41 1   
    10    7   42 1   
    11    7   43 1   
    12    8   44 1   
    13    8   45 1   
    14    8   46 1   
    15    9   10 1   
    16    9   11 1   
    17    9   47 1   
    18   10   48 1   
    19   11   12 1   
    20   11   13 1   
    21   13   49 1   
    22   13   51 1   
    23   13   94 1   
    24   14   15 1   
    25   14   50 1   
    26   14   52 1   
    27   14   53 1   
    28   15   16 1   
    29   15   54 1   
    30   16   17 1   
    31   16   18 1   
    32   18   19 1   
    33   18   56 1   
    34   18   95 1   
    35   19   55 1   
    36   19   57 1   
    37   19   58 1   
    38   20   21 1   
    39   20   24 1   
    40   22   23 1   
    41   22   59 1   
    42   22   60 1   
    43   24   25 1   
    44   24   61 1   
    45   24   62 1   
    46   25   26 1   
    47   25   63 1   
    48   25   64 1   
    49   26   27 1   
    50   26   65 1   
    51   26   66 1   
    52   27   28 1   
    53   27   67 1   
    54   27   68 1   
    55   28   29 1   
    56   28   69 1   
    57   28   70 1   
    58   29   30 1   
    59   29   71 1   
    60   29   72 1   
    61   30   31 1   
    62   30   73 1   
    63   30   74 1   
    64   31   32 1   
    65   32   76 1   
    66   33   34 1   
    67   33   75 1   
    68   33   77 1   
    69   33   78 1   
    70   34   35 1   
    71   34   79 1   
    72   34   80 1   
    73   35   36 1   
    74   35   81 1   
    75   35   82 1   
    76   36   37 1   
    77   36   83 1   
    78   36   84 1   
    79   37   38 1   
    80   37   85 1   
    81   37   86 1   
    82   38   87 1   
    83   38   89 1   
    84   38   90 1   
    85   39   40 1   
    86   87   88 1   
    87   88   91 1   
    88   92   93 1   
@<TRIPOS>SUBSTRUCTURE
     1 ZMO         1 TEMP              0 ****  ****    0 ROOT
