@<TRIPOS>MOLECULE
ZMO
   93    92     1     0     0
SMALL
bcc


@<TRIPOS>ATOM
      1 O23        10.8110    1.2850   -5.4900 o         1 ZMO     -0.652500
      2 P24        10.9520    0.3950   -4.3640 p4        1 ZMO      1.606200
      3 O26        11.4970   -0.9270   -4.1520 o         1 ZMO     -0.701300
      4 O27        10.3680    1.0280   -3.0270 os        1 ZMO     -0.555200
      5 C28        10.4330    0.2910   -1.8220 c3        1 ZMO      0.154400
      6 C29        10.8920    1.1980   -0.6710 c3        1 ZMO     -0.088000
      7 C31        12.3750    1.5130   -0.8020 c3        1 ZMO     -0.090100
      8 C30        10.0950    2.4900   -0.6740 c3        1 ZMO     -0.090100
      9 C32        10.6890    0.4480    0.6660 c3        1 ZMO      0.083100
     10 O33        11.3430   -0.8030    0.6670 oh        1 ZMO     -0.580800
     11 C34         9.1980    0.2350    0.9780 c         1 ZMO      0.626100
     12 O35         8.6200   -0.7830    0.5410 o         1 ZMO     -0.622100
     13 N36         8.5630    1.1450    1.7920 n         1 ZMO     -0.549900
     14 C37         7.1640    1.0450    2.1030 c3        1 ZMO      0.090000
     15 C38         6.2480    1.8060    1.1410 c3        1 ZMO     -0.187400
     16 C39         4.8050    1.7010    1.5990 c         1 ZMO      0.658100
     17 O40         4.2130    2.6860    2.0810 o         1 ZMO     -0.597100
     18 N41         4.1930    0.4670    1.4900 n         1 ZMO     -0.568900
     19 C42         2.8020    0.2640    1.7810 c3        1 ZMO      0.096000
     20 C43         1.9390   -0.0010    0.5510 c3        1 ZMO     -0.059300
     21 S1          0.3020   -0.4120    1.0780 ss        1 ZMO     -0.257700
     22 C1         -0.7240    0.7430    0.3050 c         1 ZMO      0.582700
     23 O1         -0.3700    1.6320   -0.4710 o         1 ZMO     -0.520100
     24 C2         -2.1450    0.5110    0.7250 c3        1 ZMO     -0.169400
     25 C3         -3.0580    0.3770   -0.4770 c3        1 ZMO     -0.074400
     26 C4         -4.5040    0.2620   -0.0440 c3        1 ZMO     -0.078400
     27 C5         -5.4190    0.1120   -1.2400 c3        1 ZMO     -0.079400
     28 C6         -6.8670    0.0020   -0.8110 c3        1 ZMO     -0.079400
     29 C7         -7.7820   -0.1510   -2.0070 c3        1 ZMO     -0.077400
     30 C8         -9.2300   -0.2610   -1.5760 c3        1 ZMO     -0.049200
     31 C9        -10.1490   -0.4120   -2.7280 c2        1 ZMO     -0.175200
     32 C10       -11.4750   -0.5430   -2.6080 c2        1 ZMO     -0.173200
     33 C11       -12.1860   -0.5540   -1.3080 c3        1 ZMO     -0.049200
     34 C12       -13.6840   -0.7020   -1.4740 c3        1 ZMO     -0.077400
     35 C13       -14.3840   -0.7090   -0.1310 c3        1 ZMO     -0.079400
     36 C14       -15.8820   -0.8570   -0.2940 c3        1 ZMO     -0.079400
     37 C15       -16.5820   -0.8640    1.0480 c3        1 ZMO     -0.079400
     38 C16       -18.0800   -1.0110    0.8850 c3        1 ZMO     -0.079400
     39 H28         9.3940   -0.0870   -1.5950 h1        1 ZMO      0.073200
     40 H28A       11.1420   -0.5750   -1.9440 h1        1 ZMO      0.073200
     41 H31        12.5740    2.0510   -1.7580 hc        1 ZMO      0.045867
     42 H31A       12.7060    2.1670    0.0410 hc        1 ZMO      0.045867
     43 H31B       12.9710    0.5680   -0.7740 hc        1 ZMO      0.045867
     44 H30         8.9980    2.2780   -0.7000 hc        1 ZMO      0.045867
     45 H30A       10.3320    3.0990    0.2310 hc        1 ZMO      0.045867
     46 H30B       10.3490    3.0850   -1.5860 hc        1 ZMO      0.045867
     47 H32        11.1990    1.0270    1.4900 h1        1 ZMO      0.093700
     48 HO33       10.7970   -1.4290    0.1680 ho        1 ZMO      0.427000
     49 HN36        9.0110    2.0130    1.9740 hn        1 ZMO      0.315500
     50 H37         6.8810   -0.0470    2.1010 h1        1 ZMO      0.073700
     51 H37A        7.0130    1.4520    3.1450 h1        1 ZMO      0.073700
     52 H38         6.5160    2.8950    1.1200 hc        1 ZMO      0.075700
     53 H38A        6.3550    1.4050    0.1000 hc        1 ZMO      0.075700
     54 HN41        4.6680   -0.2590    1.0070 hn        1 ZMO      0.311500
     55 H42         2.7180   -0.6230    2.4750 h1        1 ZMO      0.074700
     56 H42A        2.4080    1.1740    2.3210 h1        1 ZMO      0.074700
     57 H43         1.9120    0.8940   -0.1210 h1        1 ZMO      0.088200
     58 H43A        2.3340   -0.8650   -0.0370 h1        1 ZMO      0.088200
     59 H2         -2.2160   -0.4080    1.3670 hc        1 ZMO      0.076200
     60 H2A        -2.4660    1.3890    1.3500 hc        1 ZMO      0.076200
     61 H3         -2.9260    1.2700   -1.1440 hc        1 ZMO      0.055200
     62 H3A        -2.7690   -0.5300   -1.0710 hc        1 ZMO      0.055200
     63 H4         -4.6260   -0.6210    0.6370 hc        1 ZMO      0.041700
     64 H4A        -4.7960    1.1750    0.5400 hc        1 ZMO      0.041700
     65 H5         -5.2950    0.9930   -1.9230 hc        1 ZMO      0.042700
     66 H5A        -5.1290   -0.8020   -1.8230 hc        1 ZMO      0.042700
     67 H6         -6.9910   -0.8790   -0.1280 hc        1 ZMO      0.040200
     68 H6A        -7.1570    0.9160   -0.2290 hc        1 ZMO      0.040200
     69 H7         -7.6590    0.7300   -2.6910 hc        1 ZMO      0.042200
     70 H7A        -7.4920   -1.0650   -2.5890 hc        1 ZMO      0.042200
     71 H8         -9.3510   -1.1390   -0.8840 hc        1 ZMO      0.047200
     72 H8A        -9.5180    0.6540   -0.9880 hc        1 ZMO      0.047200
     73 H9         -9.6790   -0.4120   -3.7250 ha        1 ZMO      0.122000
     74 H10       -12.1070   -0.6520   -3.5050 ha        1 ZMO      0.122000
     75 H11       -11.7930   -1.3970   -0.6750 hc        1 ZMO      0.047700
     76 H11A      -11.9610    0.3980   -0.7510 hc        1 ZMO      0.047700
     77 H12       -14.0790    0.1420   -2.0990 hc        1 ZMO      0.041700
     78 H12A      -13.9110   -1.6540   -2.0210 hc        1 ZMO      0.041700
     79 H13       -13.9890   -1.5520    0.4940 hc        1 ZMO      0.039700
     80 H13A      -14.1580    0.2430    0.4170 hc        1 ZMO      0.039700
     81 H14       -16.2770   -0.0130   -0.9200 hc        1 ZMO      0.039700
     82 H14A      -16.1090   -1.8090   -0.8420 hc        1 ZMO      0.039700
     83 H15       -16.1870   -1.7070    1.6740 hc        1 ZMO      0.039700
     84 H15A      -16.3550    0.0880    1.5960 hc        1 ZMO      0.039700
     85 H16A      -18.4750   -0.1680    0.2600 hc        1 ZMO      0.039700
     86 H16B      -18.3070   -1.9640    0.3380 hc        1 ZMO      0.039700
     87 C17       -18.7820   -1.0190    2.2270 c3        1 ZMO     -0.080400
     88 C18       -20.2730   -1.1660    2.0700 c3        1 ZMO     -0.092100
     89 H50       -18.3840   -1.8620    2.8520 hc        1 ZMO      0.038700
     90 H51       -18.5520   -0.0670    2.7740 hc        1 ZMO      0.038700
     91 H52       -20.6920   -0.3210    1.4710 hc        1 ZMO      0.032700
     92 H53       -20.5230   -2.1210    1.5490 hc        1 ZMO      0.032700
     93 H54       -20.7700   -1.1690    3.0700 hc        1 ZMO      0.032700
@<TRIPOS>BOND
     1    1    2 1   
     2    2    3 2   
     3    2    4 1   
     4    4    5 1   
     5    5    6 1   
     6    5   39 1   
     7    5   40 1   
     8    6    7 1   
     9    6    8 1   
    10    6    9 1   
    11    7   41 1   
    12    7   42 1   
    13    7   43 1   
    14    8   44 1   
    15    8   45 1   
    16    8   46 1   
    17    9   10 1   
    18    9   11 1   
    19    9   47 1   
    20   10   48 1   
    21   11   12 2   
    22   11   13 1   
    23   13   14 1   
    24   13   49 1   
    25   14   15 1   
    26   14   50 1   
    27   14   51 1   
    28   15   16 1   
    29   15   52 1   
    30   15   53 1   
    31   16   17 2   
    32   16   18 1   
    33   18   19 1   
    34   18   54 1   
    35   19   20 1   
    36   19   55 1   
    37   19   56 1   
    38   20   21 1   
    39   20   57 1   
    40   20   58 1   
    41   21   22 1   
    42   22   23 2   
    43   22   24 1   
    44   24   25 1   
    45   24   59 1   
    46   24   60 1   
    47   25   26 1   
    48   25   61 1   
    49   25   62 1   
    50   26   27 1   
    51   26   63 1   
    52   26   64 1   
    53   27   28 1   
    54   27   65 1   
    55   27   66 1   
    56   28   29 1   
    57   28   67 1   
    58   28   68 1   
    59   29   30 1   
    60   29   69 1   
    61   29   70 1   
    62   30   31 1   
    63   30   71 1   
    64   30   72 1   
    65   31   32 2   
    66   31   73 1   
    67   32   33 1   
    68   32   74 1   
    69   33   34 1   
    70   33   75 1   
    71   33   76 1   
    72   34   35 1   
    73   34   77 1   
    74   34   78 1   
    75   35   36 1   
    76   35   79 1   
    77   35   80 1   
    78   36   37 1   
    79   36   81 1   
    80   36   82 1   
    81   37   38 1   
    82   37   83 1   
    83   37   84 1   
    84   38   85 1   
    85   38   86 1   
    86   38   87 1   
    87   87   88 1   
    88   87   89 1   
    89   87   90 1   
    90   88   91 1   
    91   88   92 1   
    92   88   93 1   
@<TRIPOS>SUBSTRUCTURE
     1 ZMO         1 TEMP              0 ****  ****    0 ROOT
