@<TRIPOS>MOLECULE
ZMP
   85    84     1     0     0
SMALL
bcc


@<TRIPOS>ATOM
      1 O7          1.0220    5.3600   -3.2130 o         1 ZMP     -0.710500
      2 P1          2.4080    5.0150   -3.3110 p4        1 ZMP      1.690200
      3 O6          3.5280    5.7060   -2.6620 o         1 ZMP     -0.759300
      4 O5          2.9230    3.8290   -4.2090 os        1 ZMP     -0.544200
      5 C21         4.1480    3.1760   -3.9200 c3        1 ZMP      0.179400
      6 C18         5.1910    3.3470   -5.0380 c3        1 ZMP     -0.086000
      7 C19         5.6790    1.9510   -5.4390 c3        1 ZMP     -0.110100
      8 C20         4.6230    4.0140   -6.2800 c3        1 ZMP     -0.110100
      9 C17         6.4330    4.1250   -4.5350 c3        1 ZMP      0.087100
     10 O4          7.0630    3.4540   -3.4560 oh        1 ZMP     -0.637800
     11 C16         6.1180    5.5440   -4.0610 c         1 ZMP      0.554100
     12 O3          5.6900    6.4520   -4.7550 o         1 ZMP     -0.425100
     13 N2          6.3930    5.8650   -2.6090 ny        1 ZMP     -0.669800
     14 C15         6.5270    7.3170   -2.3030 c3        1 ZMP      0.126800
     15 C14         5.1980    8.0510   -2.1760 c3        1 ZMP     -0.173400
     16 C13         4.3750    7.5180   -1.0380 c         1 ZMP      0.590100
     17 O2          4.6510    6.5700   -0.3120 o         1 ZMP     -0.453100
     18 N1          3.0780    8.2310   -0.7820 ny        1 ZMP     -0.673800
     19 C12         3.0540    8.8810    0.5730 c3        1 ZMP      0.129800
     20 C11         1.9970    9.9620    0.6920 c3        1 ZMP     -0.110300
     21 S1          2.5450   11.6260    0.5110 ss        1 ZMP     -0.086700
     22 C10         3.4650   11.7340   -0.9250 c         1 ZMP      0.578700
     23 O1          3.8060   10.7780   -1.6510 o         1 ZMP     -0.664100
     24 C9          3.8620   13.1530   -1.1820 c3        1 ZMP     -0.171400
     25 C8          3.2980   13.6500   -2.5010 c3        1 ZMP     -0.070400
     26 C7          3.7900   15.0530   -2.7920 c3        1 ZMP     -0.081400
     27 C6          3.2200   15.5650   -4.0980 c3        1 ZMP     -0.078400
     28 C5          3.7150   16.9650   -4.3960 c3        1 ZMP     -0.080400
     29 C4          3.1470   17.4800   -5.7000 c3        1 ZMP     -0.078400
     30 C3          3.6430   18.8780   -5.9990 c3        1 ZMP     -0.079400
     31 C2          3.0740   19.3950   -7.3030 c3        1 ZMP     -0.078400
     32 C1          3.5700   20.7930   -7.6020 c3        1 ZMP     -0.079400
     33 C22         3.0020   21.3100   -8.9070 c3        1 ZMP     -0.078400
     34 C23         3.4990   22.7080   -9.2060 c3        1 ZMP     -0.079400
     35 C24         2.9310   23.2270  -10.5100 c3        1 ZMP     -0.079400
     36 C25         3.4230   24.6190  -10.8110 c3        1 ZMP     -0.094100
     37 H21         4.5480    3.5590   -2.9410 h1        1 ZMP      0.071700
     38 H21A        3.8800    2.0800   -3.8230 h1        1 ZMP      0.071700
     39 H19         5.9860    1.3590   -4.5430 hc        1 ZMP      0.069700
     40 H19A        4.8530    1.4030   -5.9580 hc        1 ZMP      0.069700
     41 H19B        6.5430    2.0260   -6.1430 hc        1 ZMP      0.069700
     42 H20         5.3280    3.8910   -7.1390 hc        1 ZMP      0.069700
     43 H20A        3.6500    3.5310   -6.5520 hc        1 ZMP      0.069700
     44 H20B        4.4490    5.1040   -6.1250 hc        1 ZMP      0.069700
     45 H17         7.1510    4.2500   -5.4040 h1        1 ZMP      0.125700
     46 HO4         7.5260    2.6790   -3.8150 ho        1 ZMP      0.478000
     47 HN2         7.2580    5.3720   -2.3340 hn        1 ZMP      0.491800
     48 H15         7.1080    7.4010   -1.3370 hx        1 ZMP      0.128200
     49 H15A        7.1210    7.8050   -3.1320 hx        1 ZMP      0.128200
     50 H14         5.4100    9.1530   -2.0240 hc        1 ZMP      0.151200
     51 H14A        4.6040    7.9540   -3.1310 hc        1 ZMP      0.151200
     52 HN1         2.9440    8.9620   -1.5060 hn        1 ZMP      0.478800
     53 H12         2.8700    8.0630    1.3310 hx        1 ZMP      0.118700
     54 H12A        4.0770    9.3200    0.7620 hx        1 ZMP      0.118700
     55 H11         1.5950    9.9410    1.7480 h1        1 ZMP      0.129200
     56 H11A        1.1180    9.7670    0.0250 h1        1 ZMP      0.129200
     57 H9          4.9860   13.2080   -1.2090 hc        1 ZMP      0.095700
     58 H9A         3.5080   13.8150   -0.3430 hc        1 ZMP      0.095700
     59 H8          3.6120   12.9570   -3.3260 hc        1 ZMP      0.053700
     60 H8A         2.1770   13.6460   -2.4610 hc        1 ZMP      0.053700
     61 H7          3.4900   15.7390   -1.9560 hc        1 ZMP      0.050700
     62 H7A         4.9110   15.0590   -2.8410 hc        1 ZMP      0.050700
     63 H6          2.0990   15.5660   -4.0460 hc        1 ZMP      0.042200
     64 H6A         3.5140   14.8770   -4.9340 hc        1 ZMP      0.042200
     65 H5          3.4220   17.6540   -3.5600 hc        1 ZMP      0.045200
     66 H5A         4.8360   16.9650   -4.4470 hc        1 ZMP      0.045200
     67 H4          3.4380   16.7910   -6.5370 hc        1 ZMP      0.040700
     68 H4A         2.0260   17.4820   -5.6480 hc        1 ZMP      0.040700
     69 H3          3.3510   19.5680   -5.1630 hc        1 ZMP      0.042200
     70 H3A         4.7630   18.8780   -6.0510 hc        1 ZMP      0.042200
     71 H2          1.9530   19.3970   -7.2510 hc        1 ZMP      0.040200
     72 H2A         3.3650   18.7060   -8.1400 hc        1 ZMP      0.040200
     73 H1          3.2800   21.4820   -6.7660 hc        1 ZMP      0.041700
     74 H1A         4.6910   20.7920   -7.6550 hc        1 ZMP      0.041700
     75 H22         1.8810   21.3120   -8.8540 hc        1 ZMP      0.039700
     76 H22A        3.2920   20.6210   -9.7430 hc        1 ZMP      0.039700
     77 H23         4.6190   22.7070   -9.2580 hc        1 ZMP      0.040700
     78 H23A        3.2080   23.3980   -8.3690 hc        1 ZMP      0.040700
     79 H24         3.2210   22.5360  -11.3450 hc        1 ZMP      0.038700
     80 H24A        1.8100   23.2270  -10.4560 hc        1 ZMP      0.038700
     81 H25         3.1220   25.3280  -10.0020 hc        1 ZMP      0.035367
     82 H25A        2.9930   24.9820  -11.7760 hc        1 ZMP      0.035367
     83 H25B        4.5370   24.6350  -10.8940 hc        1 ZMP      0.035367
     84 H221        5.6090    5.4670   -2.0590 hn        1 ZMP      0.491800
     85 H121        2.3050    7.5570   -0.8450 hn        1 ZMP      0.478800
@<TRIPOS>BOND
     1    1    2 1   
     2    2    3 2   
     3    2    4 1   
     4    4    5 1   
     5    5    6 1   
     6    5   37 1   
     7    5   38 1   
     8    6    7 1   
     9    6    8 1   
    10    6    9 1   
    11    7   39 1   
    12    7   40 1   
    13    7   41 1   
    14    8   42 1   
    15    8   43 1   
    16    8   44 1   
    17    9   10 1   
    18    9   11 1   
    19    9   45 1   
    20   10   46 1   
    21   11   12 2   
    22   11   13 1   
    23   13   14 1   
    24   13   47 1   
    25   13   84 1   
    26   14   15 1   
    27   14   48 1   
    28   14   49 1   
    29   15   16 1   
    30   15   50 1   
    31   15   51 1   
    32   16   17 2   
    33   16   18 1   
    34   18   19 1   
    35   18   52 1   
    36   18   85 1   
    37   19   20 1   
    38   19   53 1   
    39   19   54 1   
    40   20   21 1   
    41   20   55 1   
    42   20   56 1   
    43   21   22 1   
    44   22   23 2   
    45   22   24 1   
    46   24   25 1   
    47   24   57 1   
    48   24   58 1   
    49   25   26 1   
    50   25   59 1   
    51   25   60 1   
    52   26   27 1   
    53   26   61 1   
    54   26   62 1   
    55   27   28 1   
    56   27   63 1   
    57   27   64 1   
    58   28   29 1   
    59   28   65 1   
    60   28   66 1   
    61   29   30 1   
    62   29   67 1   
    63   29   68 1   
    64   30   31 1   
    65   30   69 1   
    66   30   70 1   
    67   31   32 1   
    68   31   71 1   
    69   31   72 1   
    70   32   33 1   
    71   32   73 1   
    72   32   74 1   
    73   33   34 1   
    74   33   75 1   
    75   33   76 1   
    76   34   35 1   
    77   34   77 1   
    78   34   78 1   
    79   35   36 1   
    80   35   79 1   
    81   35   80 1   
    82   36   81 1   
    83   36   82 1   
    84   36   83 1   
@<TRIPOS>SUBSTRUCTURE
     1 ZMP         1 TEMP              0 ****  ****    0 ROOT
