@<TRIPOS>MOLECULE
ZMP
   83    82     1     0     0
SMALL
bcc


@<TRIPOS>ATOM
      1 O7         -6.9740    1.7700    5.2540 o         1 ZMP     -0.655000
      2 P1         -8.1120    0.6740    5.2630 p4        1 ZMP      1.602200
      3 O6         -9.0400    0.5800    6.4160 o         1 ZMP     -0.703800
      4 O5         -8.3340   -0.2530    3.9860 os        1 ZMP     -0.551200
      5 C21        -7.4600   -1.3610    3.7900 c3        1 ZMP      0.158400
      6 C18        -7.9390   -2.1770    2.6110 c3        1 ZMP     -0.065000
      7 C19        -8.6740   -1.2800    1.6440 c3        1 ZMP     -0.094600
      8 C20        -8.8750   -3.2700    3.0980 c3        1 ZMP     -0.094600
      9 C17        -6.7440   -2.8070    1.9110 c3        1 ZMP      0.075100
     10 O4         -7.1950   -3.6760    0.9080 oh        1 ZMP     -0.590800
     11 C16        -5.9150   -3.5850    2.9210 c         1 ZMP      0.632100
     12 O3         -6.1350   -3.4620    4.1100 o         1 ZMP     -0.618100
     13 N2         -4.8370   -4.4310    2.4710 n         1 ZMP     -0.564900
     14 C15        -3.6440   -4.5730    3.2780 c3        1 ZMP      0.095000
     15 C14        -2.7120   -5.5990    2.6350 c3        1 ZMP     -0.179400
     16 C13        -1.3460   -5.5440    3.3180 c         1 ZMP      0.656100
     17 O2         -1.2750   -5.4450    4.5300 o         1 ZMP     -0.601100
     18 N1         -0.1440   -5.6400    2.5330 n         1 ZMP     -0.562900
     19 C12         1.1450   -5.5600    3.1760 c3        1 ZMP      0.085000
     20 C11         2.2420   -5.3670    2.1080 c3        1 ZMP     -0.051300
     21 S1          3.0640   -3.7880    2.3690 ss        1 ZMP     -0.248700
     22 C10         4.5120   -3.6870    1.3200 c         1 ZMP      0.578700
     23 O1          4.8560   -4.6560    0.6610 o         1 ZMP     -0.555100
     24 C9          5.3650   -2.4110    1.3090 c3        1 ZMP     -0.170400
     25 C8          4.7220   -1.3720    0.3780 c3        1 ZMP     -0.073400
     26 C7          5.8260   -0.4640   -0.2250 c3        1 ZMP     -0.078400
     27 C6          5.2980    0.9790   -0.3440 c3        1 ZMP     -0.079400
     28 C5          5.7630    1.5880   -1.6840 c3        1 ZMP     -0.079400
     29 C4          5.4200    3.1040   -1.7110 c3        1 ZMP     -0.079400
     30 C3          5.4340    3.6040   -3.1530 c3        1 ZMP     -0.079400
     31 C2          4.8500    5.0290   -3.2080 c3        1 ZMP     -0.079400
     32 C1          4.6270    5.4380   -4.6760 c3        1 ZMP     -0.078400
     33 C22         4.0640    6.8650   -4.7290 c3        1 ZMP     -0.079400
     34 C23         3.4400    7.1160   -6.0990 c3        1 ZMP     -0.079400
     35 C24         2.7780    8.4860   -6.1120 c3        1 ZMP     -0.080400
     36 C25         1.9210    8.6200   -7.3530 c3        1 ZMP     -0.092100
     37 H21        -7.4570   -1.9180    4.5920 h1        1 ZMP      0.068700
     38 H21A       -6.5590   -1.0360    3.6170 h1        1 ZMP      0.068700
     39 H19        -8.0650   -0.5830    1.3180 hc        1 ZMP      0.048200
     40 H19A       -9.4330   -0.8620    2.1000 hc        1 ZMP      0.048200
     41 H19B       -8.9990   -1.8130    0.8860 hc        1 ZMP      0.048200
     42 H20        -9.7540   -2.8840    3.2940 hc        1 ZMP      0.048200
     43 H20A       -8.9660   -3.9520    2.4060 hc        1 ZMP      0.048200
     44 H20B       -8.5080   -3.6770    3.9130 hc        1 ZMP      0.048200
     45 H17        -6.1940   -2.1050    1.5100 h1        1 ZMP      0.100700
     46 HO4        -6.8490   -3.4320    0.1270 ho        1 ZMP      0.411000
     47 HN2        -4.8970   -4.8560    1.6680 hn        1 ZMP      0.323500
     48 H15        -3.1860   -3.7090    3.3380 h1        1 ZMP      0.070700
     49 H15A       -3.8920   -4.8760    4.1800 h1        1 ZMP      0.070700
     50 H14        -3.0930   -6.4960    2.7380 hc        1 ZMP      0.076200
     51 H14A       -2.6100   -5.3950    1.6820 hc        1 ZMP      0.076200
     52 HN1        -0.1970   -5.7880    1.6420 hn        1 ZMP      0.320500
     53 H12         1.1550   -4.8010    3.7940 h1        1 ZMP      0.076700
     54 H12A        1.3150   -6.3890    3.6730 h1        1 ZMP      0.076700
     55 H11         1.8380   -5.3800    1.2190 h1        1 ZMP      0.092700
     56 H11A        2.8970   -6.0910    2.1790 h1        1 ZMP      0.092700
     57 H9          6.2650   -2.6240    0.9880 hc        1 ZMP      0.077700
     58 H9A         5.4190   -2.0490    2.2110 hc        1 ZMP      0.077700
     59 H8          4.2480   -1.8300   -0.3430 hc        1 ZMP      0.053700
     60 H8A         4.0930   -0.8270    0.8850 hc        1 ZMP      0.053700
     61 H7          6.6130   -0.4770    0.3590 hc        1 ZMP      0.042200
     62 H7A         6.0720   -0.7950   -1.1110 hc        1 ZMP      0.042200
     63 H6          5.6450    1.5130    0.3930 hc        1 ZMP      0.042200
     64 H6A         4.3250    0.9730   -0.3110 hc        1 ZMP      0.042200
     65 H5          6.7310    1.4710   -1.7770 hc        1 ZMP      0.040700
     66 H5A         5.3060    1.1340   -2.4260 hc        1 ZMP      0.040700
     67 H4          4.5270    3.2450   -1.3250 hc        1 ZMP      0.040700
     68 H4A         6.0840    3.5990   -1.1880 hc        1 ZMP      0.040700
     69 H3          6.3500    3.6160   -3.4840 hc        1 ZMP      0.039700
     70 H3A         4.8960    3.0110   -3.7080 hc        1 ZMP      0.039700
     71 H2          5.4750    5.6540   -2.7870 hc        1 ZMP      0.039700
     72 H2A         3.9960    5.0510   -2.7300 hc        1 ZMP      0.039700
     73 H1          5.4770    5.4050   -5.1560 hc        1 ZMP      0.039700
     74 H1A         3.9940    4.8230   -5.0920 hc        1 ZMP      0.039700
     75 H22         4.7880    7.5060   -4.5790 hc        1 ZMP      0.039700
     76 H22A        3.3840    6.9730   -4.0360 hc        1 ZMP      0.039700
     77 H23         2.7670    6.4260   -6.2830 hc        1 ZMP      0.039700
     78 H23A        4.1360    7.0840   -6.7860 hc        1 ZMP      0.039700
     79 H24         3.4650    9.1810   -6.1140 hc        1 ZMP      0.038700
     80 H24A        2.2180    8.5850   -5.3180 hc        1 ZMP      0.038700
     81 H25         2.4870    8.5450   -8.1500 hc        1 ZMP      0.032700
     82 H25A        1.2470    7.9080   -7.3630 hc        1 ZMP      0.032700
     83 H25B        1.4720    9.4970   -7.3500 hc        1 ZMP      0.032700
@<TRIPOS>BOND
     1    1    2 1   
     2    2    3 2   
     3    2    4 1   
     4    4    5 1   
     5    5    6 1   
     6    5   37 1   
     7    5   38 1   
     8    6    7 1   
     9    6    8 1   
    10    6    9 1   
    11    7   39 1   
    12    7   40 1   
    13    7   41 1   
    14    8   42 1   
    15    8   43 1   
    16    8   44 1   
    17    9   10 1   
    18    9   11 1   
    19    9   45 1   
    20   10   46 1   
    21   11   12 2   
    22   11   13 1   
    23   13   14 1   
    24   13   47 1   
    25   14   15 1   
    26   14   48 1   
    27   14   49 1   
    28   15   16 1   
    29   15   50 1   
    30   15   51 1   
    31   16   17 2   
    32   16   18 1   
    33   18   19 1   
    34   18   52 1   
    35   19   20 1   
    36   19   53 1   
    37   19   54 1   
    38   20   21 1   
    39   20   55 1   
    40   20   56 1   
    41   21   22 1   
    42   22   23 2   
    43   22   24 1   
    44   24   25 1   
    45   24   57 1   
    46   24   58 1   
    47   25   26 1   
    48   25   59 1   
    49   25   60 1   
    50   26   27 1   
    51   26   61 1   
    52   26   62 1   
    53   27   28 1   
    54   27   63 1   
    55   27   64 1   
    56   28   29 1   
    57   28   65 1   
    58   28   66 1   
    59   29   30 1   
    60   29   67 1   
    61   29   68 1   
    62   30   31 1   
    63   30   69 1   
    64   30   70 1   
    65   31   32 1   
    66   31   71 1   
    67   31   72 1   
    68   32   33 1   
    69   32   73 1   
    70   32   74 1   
    71   33   34 1   
    72   33   75 1   
    73   33   76 1   
    74   34   35 1   
    75   34   77 1   
    76   34   78 1   
    77   35   36 1   
    78   35   79 1   
    79   35   80 1   
    80   36   81 1   
    81   36   82 1   
    82   36   83 1   
@<TRIPOS>SUBSTRUCTURE
     1 ZMP         1 TEMP              0 ****  ****    0 ROOT
