@<TRIPOS>MOLECULE
ZMP
   83    82     1     0     0
SMALL
bcc


@<TRIPOS>ATOM
      1 O7          8.4380   -4.9180   -2.7940 o         1 ZMP     -0.652500
      2 P1          8.6420   -4.1910   -1.5650 p4        1 ZMP      1.606200
      3 O6          9.1580   -4.5030   -0.2520 o         1 ZMP     -0.701300
      4 O5          8.1920   -2.6700   -1.6910 os        1 ZMP     -0.555200
      5 C21         8.3310   -1.8100   -0.5780 c3        1 ZMP      0.154400
      6 C18         8.9140   -0.4600   -1.0220 c3        1 ZMP     -0.088000
      7 C19        10.3910   -0.6050   -1.3590 c3        1 ZMP     -0.090100
      8 C20         8.1630    0.0590   -2.2350 c3        1 ZMP     -0.090100
      9 C17         8.7970    0.5440    0.1490 c3        1 ZMP      0.083100
     10 O4          9.4070    0.0500    1.3220 oh        1 ZMP     -0.580800
     11 C16         7.3310    0.8920    0.4540 c         1 ZMP      0.626100
     12 O3          6.6850    0.1810    1.2530 o         1 ZMP     -0.622100
     13 N2          6.7960    2.0260   -0.1150 n         1 ZMP     -0.549900
     14 C15         5.4250    2.4060    0.0840 c3        1 ZMP      0.090000
     15 C14         4.4590    1.8550   -0.9680 c3        1 ZMP     -0.187400
     16 C13         3.0550    2.3740   -0.7130 c         1 ZMP      0.658100
     17 O2          2.5390    3.2200   -1.4680 o         1 ZMP     -0.597100
     18 N1          2.3960    1.8980    0.4040 n         1 ZMP     -0.568900
     19 C12         1.0270    2.2220    0.6920 c3        1 ZMP      0.096000
     20 C11         0.0580    1.0580    0.5090 c3        1 ZMP     -0.059300
     21 S1         -1.5430    1.5530    1.0740 ss        1 ZMP     -0.257700
     22 C10        -2.5900    1.3240   -0.2800 c         1 ZMP      0.582700
     23 O1         -2.2720    0.8770   -1.3840 o         1 ZMP     -0.520100
     24 C9         -3.9790    1.7610    0.0800 c3        1 ZMP     -0.169400
     25 C8         -4.9910    0.6730   -0.2140 c3        1 ZMP     -0.074400
     26 C7         -6.4000    1.1650    0.0410 c3        1 ZMP     -0.078400
     27 C6         -7.4150    0.0760   -0.2370 c3        1 ZMP     -0.079400
     28 C5         -8.8250    0.5660    0.0120 c3        1 ZMP     -0.079400
     29 C4         -9.8410   -0.5220   -0.2640 c3        1 ZMP     -0.079400
     30 C3        -11.2510   -0.0330   -0.0150 c3        1 ZMP     -0.079400
     31 C2        -12.2670   -1.1210   -0.2920 c3        1 ZMP     -0.079400
     32 C1        -13.6770   -0.6310   -0.0430 c3        1 ZMP     -0.079400
     33 C22       -14.6930   -1.7190   -0.3200 c3        1 ZMP     -0.079400
     34 C23       -16.1040   -1.2300   -0.0710 c3        1 ZMP     -0.079400
     35 C24       -17.1200   -2.3170   -0.3480 c3        1 ZMP     -0.080400
     36 C25       -18.5270   -1.8350   -0.1010 c3        1 ZMP     -0.092100
     37 H21         7.3030   -1.6370   -0.1460 h1        1 ZMP      0.073200
     38 H21A        8.9980   -2.2890    0.1930 h1        1 ZMP      0.073200
     39 H19        10.5280   -1.3260   -2.1980 hc        1 ZMP      0.045867
     40 H19A       10.8120    0.3800   -1.6750 hc        1 ZMP      0.045867
     41 H19B       10.9550   -0.9610   -0.4630 hc        1 ZMP      0.045867
     42 H20         7.0620    0.0590   -2.0480 hc        1 ZMP      0.045867
     43 H20A        8.4950    1.0950   -2.4870 hc        1 ZMP      0.045867
     44 H20B        8.3610   -0.6060   -3.1110 hc        1 ZMP      0.045867
     45 H17         9.3920    1.4680   -0.1040 h1        1 ZMP      0.093700
     46 HO4         8.8000   -0.5860    1.7320 ho        1 ZMP      0.427000
     47 HN2         7.2860    2.4590   -0.8620 hn        1 ZMP      0.315500
     48 H15         5.1060    2.0490    1.1060 h1        1 ZMP      0.073700
     49 H15A        5.3740    3.5330    0.0680 h1        1 ZMP      0.073700
     50 H14         4.7610    2.1920   -1.9950 hc        1 ZMP      0.075700
     51 H14A        4.4660    0.7340   -0.9560 hc        1 ZMP      0.075700
     52 HN1         2.8040    1.1520    0.9160 hn        1 ZMP      0.311500
     53 H12         0.9710    2.5700    1.7660 h1        1 ZMP      0.074700
     54 H12A        0.7090    3.0780    0.0270 h1        1 ZMP      0.074700
     55 H11         0.0050    0.7460   -0.5650 h1        1 ZMP      0.088200
     56 H11A        0.3740    0.1740    1.1140 h1        1 ZMP      0.088200
     57 H9         -4.0270    2.0480    1.1650 hc        1 ZMP      0.076200
     58 H9A        -4.2190    2.6780   -0.5250 hc        1 ZMP      0.076200
     59 H8         -4.8860    0.3480   -1.2840 hc        1 ZMP      0.054700
     60 H8A        -4.7820   -0.2220    0.4290 hc        1 ZMP      0.054700
     61 H7         -6.4940    1.5050    1.1050 hc        1 ZMP      0.041700
     62 H7A        -6.6130    2.0530   -0.6110 hc        1 ZMP      0.041700
     63 H6         -7.3180   -0.2660   -1.3010 hc        1 ZMP      0.042200
     64 H6A        -7.2040   -0.8110    0.4160 hc        1 ZMP      0.042200
     65 H5         -8.9220    0.9090    1.0760 hc        1 ZMP      0.040200
     66 H5A        -9.0370    1.4530   -0.6410 hc        1 ZMP      0.040200
     67 H4         -9.7440   -0.8650   -1.3280 hc        1 ZMP      0.040200
     68 H4A        -9.6290   -1.4090    0.3890 hc        1 ZMP      0.040200
     69 H3        -11.3480    0.3100    1.0480 hc        1 ZMP      0.039700
     70 H3A       -11.4630    0.8540   -0.6690 hc        1 ZMP      0.039700
     71 H2        -12.1700   -1.4640   -1.3560 hc        1 ZMP      0.039700
     72 H2A       -12.0550   -2.0080    0.3610 hc        1 ZMP      0.039700
     73 H1        -13.7740   -0.2880    1.0210 hc        1 ZMP      0.039700
     74 H1A       -13.8890    0.2560   -0.6970 hc        1 ZMP      0.039700
     75 H22       -14.5960   -2.0620   -1.3840 hc        1 ZMP      0.039700
     76 H22A      -14.4820   -2.6060    0.3330 hc        1 ZMP      0.039700
     77 H23       -16.2010   -0.8870    0.9930 hc        1 ZMP      0.039700
     78 H23A      -16.3150   -0.3430   -0.7250 hc        1 ZMP      0.039700
     79 H24       -17.0210   -2.6600   -1.4120 hc        1 ZMP      0.038700
     80 H24A      -16.9060   -3.2040    0.3050 hc        1 ZMP      0.038700
     81 H25       -18.6520   -1.5120    0.9600 hc        1 ZMP      0.032700
     82 H25A      -18.7670   -0.9670   -0.7610 hc        1 ZMP      0.032700
     83 H25B      -19.2590   -2.6510   -0.3110 hc        1 ZMP      0.032700
@<TRIPOS>BOND
     1    1    2 1   
     2    2    3 2   
     3    2    4 1   
     4    4    5 1   
     5    5    6 1   
     6    5   37 1   
     7    5   38 1   
     8    6    7 1   
     9    6    8 1   
    10    6    9 1   
    11    7   39 1   
    12    7   40 1   
    13    7   41 1   
    14    8   42 1   
    15    8   43 1   
    16    8   44 1   
    17    9   10 1   
    18    9   11 1   
    19    9   45 1   
    20   10   46 1   
    21   11   12 2   
    22   11   13 1   
    23   13   14 1   
    24   13   47 1   
    25   14   15 1   
    26   14   48 1   
    27   14   49 1   
    28   15   16 1   
    29   15   50 1   
    30   15   51 1   
    31   16   17 2   
    32   16   18 1   
    33   18   19 1   
    34   18   52 1   
    35   19   20 1   
    36   19   53 1   
    37   19   54 1   
    38   20   21 1   
    39   20   55 1   
    40   20   56 1   
    41   21   22 1   
    42   22   23 2   
    43   22   24 1   
    44   24   25 1   
    45   24   57 1   
    46   24   58 1   
    47   25   26 1   
    48   25   59 1   
    49   25   60 1   
    50   26   27 1   
    51   26   61 1   
    52   26   62 1   
    53   27   28 1   
    54   27   63 1   
    55   27   64 1   
    56   28   29 1   
    57   28   65 1   
    58   28   66 1   
    59   29   30 1   
    60   29   67 1   
    61   29   68 1   
    62   30   31 1   
    63   30   69 1   
    64   30   70 1   
    65   31   32 1   
    66   31   71 1   
    67   31   72 1   
    68   32   33 1   
    69   32   73 1   
    70   32   74 1   
    71   33   34 1   
    72   33   75 1   
    73   33   76 1   
    74   34   35 1   
    75   34   77 1   
    76   34   78 1   
    77   35   36 1   
    78   35   79 1   
    79   35   80 1   
    80   36   81 1   
    81   36   82 1   
    82   36   83 1   
@<TRIPOS>SUBSTRUCTURE
     1 ZMP         1 TEMP              0 ****  ****    0 ROOT
