@<TRIPOS>MOLECULE
ZMQ
   89    88     1     0     0
SMALL
bcc


@<TRIPOS>ATOM
      1 O23         4.8200    8.6810   -8.0060 o         1 ZMQ     -0.691000
      2 P24         4.8380    7.6810   -6.9850 p4        1 ZMQ      1.694200
      3 O26         4.6560    7.6630   -5.5370 o         1 ZMQ     -0.739800
      4 O27         5.1730    6.1850   -7.4010 os        1 ZMQ     -0.553200
      5 C28         4.6770    5.1030   -6.6440 c3        1 ZMQ      0.180400
      6 C29         5.7920    4.2620   -5.9930 c3        1 ZMQ     -0.091000
      7 C31         5.5620    2.7990   -6.3860 c3        1 ZMQ     -0.107100
      8 C30         7.1780    4.6550   -6.4750 c3        1 ZMQ     -0.107100
      9 C32         5.7230    4.3170   -4.4440 c3        1 ZMQ      0.092100
     10 O33         4.4250    4.0270   -3.9460 oh        1 ZMQ     -0.642800
     11 C34         6.1370    5.6570   -3.8490 c         1 ZMQ      0.564100
     12 O35         7.2650    6.1200   -3.8130 o         1 ZMQ     -0.403100
     13 N36         5.0670    6.5210   -3.2030 ny        1 ZMQ     -0.656800
     14 C37         5.0450    6.3550   -1.7300 c3        1 ZMQ      0.112800
     15 C38         4.1380    7.3690   -1.0290 c3        1 ZMQ     -0.189400
     16 C39         4.1570    7.1030    0.4520 c         1 ZMQ      0.551100
     17 O40         4.6720    6.1530    1.0220 o         1 ZMQ     -0.393100
     18 N41         3.4520    8.1210    1.3060 ny        1 ZMQ     -0.681800
     19 C42         4.3900    8.7680    2.2890 c3        1 ZMQ      0.130800
     20 C43         3.8530   10.0730    2.8440 c3        1 ZMQ     -0.113300
     21 S1          4.4450   11.5570    2.1060 ss        1 ZMQ     -0.075700
     22 C1          4.2900   11.4210    0.4120 c         1 ZMQ      0.576700
     23 O1          3.9460   10.3990   -0.2180 o         1 ZMQ     -0.672100
     24 C2          4.6780   12.7060   -0.2480 c3        1 ZMQ     -0.171400
     25 C3          3.5170   13.2920   -1.0320 c3        1 ZMQ     -0.070400
     26 C4          3.9530   14.5400   -1.7700 c3        1 ZMQ     -0.081400
     27 C5          2.8000   15.1350   -2.5520 c3        1 ZMQ     -0.078400
     28 C6          3.2300   16.3830   -3.2930 c3        1 ZMQ     -0.080400
     29 C7          2.0800   16.9710   -4.0820 c3        1 ZMQ     -0.076400
     30 C8          2.5090   18.2230   -4.8210 c3        1 ZMQ     -0.044200
     31 C9          1.4010   18.8150   -5.6060 c2        1 ZMQ     -0.194200
     32 C10         1.5040   19.9650   -6.2810 c2        1 ZMQ     -0.152200
     33 C11         2.7340   20.7900   -6.3230 c3        1 ZMQ     -0.052200
     34 C12         2.5910   21.9890   -7.2380 c3        1 ZMQ     -0.078400
     35 C13         3.8610   22.8120   -7.2610 c3        1 ZMQ     -0.078400
     36 C14         3.7200   24.0120   -8.1740 c3        1 ZMQ     -0.080400
     37 C15         4.9890   24.8370   -8.1990 c3        1 ZMQ     -0.079400
     38 C16         4.8530   26.0320   -9.1060 c3        1 ZMQ     -0.094100
     39 H28         3.9680    5.4860   -5.8580 h1        1 ZMQ      0.066200
     40 H28A        4.1120    4.4570   -7.3810 h1        1 ZMQ      0.066200
     41 H31         4.5130    2.4810   -6.1790 hc        1 ZMQ      0.066867
     42 H31A        5.7540    2.6760   -7.4820 hc        1 ZMQ      0.066867
     43 H31B        6.2650    2.1270   -5.8360 hc        1 ZMQ      0.066867
     44 H30         7.1790    4.7100   -7.5930 hc        1 ZMQ      0.066867
     45 H30A        7.9300    3.8930   -6.1550 hc        1 ZMQ      0.066867
     46 H30B        7.4930    5.6470   -6.0760 hc        1 ZMQ      0.066867
     47 H32         6.4690    3.5680   -4.0300 h1        1 ZMQ      0.119700
     48 HO33        4.1770    3.1470   -4.2690 ho        1 ZMQ      0.472000
     49 HN36        5.2470    7.5080   -3.4660 hn        1 ZMQ      0.488800
     50 H37         4.6970    5.3020   -1.5030 hx        1 ZMQ      0.127200
     51 H37A        6.1040    6.4680   -1.3490 hx        1 ZMQ      0.127200
     52 H38         3.0770    7.2820   -1.3990 hc        1 ZMQ      0.136200
     53 H38A        4.4800    8.4280   -1.2310 hc        1 ZMQ      0.136200
     54 HN41        3.0450    8.8580    0.7000 hn        1 ZMQ      0.480800
     55 H42         5.3710    8.9470    1.7610 hx        1 ZMQ      0.121700
     56 H42A        4.5630    8.0240    3.1230 hx        1 ZMQ      0.121700
     57 H43         2.7330   10.0810    2.8920 h1        1 ZMQ      0.131700
     58 H43A        4.2070   10.1650    3.9140 h1        1 ZMQ      0.131700
     59 H2          5.5380   12.5020   -0.9450 hc        1 ZMQ      0.095700
     60 H2A         5.0310   13.4490    0.5200 hc        1 ZMQ      0.095700
     61 H3          3.1370   12.5290   -1.7620 hc        1 ZMQ      0.053200
     62 H3A         2.6760   13.5430   -0.3340 hc        1 ZMQ      0.053200
     63 H4          4.7940   14.2930   -2.4700 hc        1 ZMQ      0.050700
     64 H4A         4.3400   15.2970   -1.0380 hc        1 ZMQ      0.050700
     65 H5          1.9590   15.3850   -1.8520 hc        1 ZMQ      0.042700
     66 H5A         2.4090   14.3790   -3.2830 hc        1 ZMQ      0.042700
     67 H6          4.0760   16.1370   -3.9870 hc        1 ZMQ      0.044700
     68 H6A         3.6120   17.1430   -2.5610 hc        1 ZMQ      0.044700
     69 H7          1.2330   17.2170   -3.3890 hc        1 ZMQ      0.042200
     70 H7A         1.6990   16.2130   -4.8160 hc        1 ZMQ      0.042200
     71 H8          3.3650   17.9790   -5.5090 hc        1 ZMQ      0.048200
     72 H8A         2.8950   18.9800   -4.0840 hc        1 ZMQ      0.048200
     73 H9          0.4550   18.2500   -5.6110 ha        1 ZMQ      0.120000
     74 H10         0.6420   20.3540   -6.8490 ha        1 ZMQ      0.129000
     75 H11         3.5990   20.1570   -6.6660 hc        1 ZMQ      0.047200
     76 H11A        2.9830   21.1390   -5.2830 hc        1 ZMQ      0.047200
     77 H12         1.7360   22.6270   -6.8910 hc        1 ZMQ      0.044700
     78 H12A        2.3470   21.6430   -8.2770 hc        1 ZMQ      0.044700
     79 H13         4.7170   22.1750   -7.6080 hc        1 ZMQ      0.037700
     80 H13A        4.1060   23.1570   -6.2220 hc        1 ZMQ      0.037700
     81 H14         2.8650   24.6500   -7.8280 hc        1 ZMQ      0.042200
     82 H14A        3.4760   23.6670   -9.2130 hc        1 ZMQ      0.042200
     83 H15         5.2330   25.1800   -7.1590 hc        1 ZMQ      0.037700
     84 H15A        5.8440   24.1980   -8.5440 hc        1 ZMQ      0.037700
     85 H16         5.7980   26.6270   -9.1100 hc        1 ZMQ      0.035700
     86 H16A        4.0210   26.6950   -8.7640 hc        1 ZMQ      0.035700
     87 H16B        4.6340   25.7110  -10.1530 hc        1 ZMQ      0.035700
     88 H362        4.1580    6.2660   -3.6190 hn        1 ZMQ      0.488800
     89 H412        2.6930    7.6620    1.8260 hn        1 ZMQ      0.480800
@<TRIPOS>BOND
     1    1    2 1   
     2    2    3 2   
     3    2    4 1   
     4    4    5 1   
     5    5    6 1   
     6    5   39 1   
     7    5   40 1   
     8    6    7 1   
     9    6    8 1   
    10    6    9 1   
    11    7   41 1   
    12    7   42 1   
    13    7   43 1   
    14    8   44 1   
    15    8   45 1   
    16    8   46 1   
    17    9   10 1   
    18    9   11 1   
    19    9   47 1   
    20   10   48 1   
    21   11   12 2   
    22   11   13 1   
    23   13   14 1   
    24   13   49 1   
    25   13   88 1   
    26   14   15 1   
    27   14   50 1   
    28   14   51 1   
    29   15   16 1   
    30   15   52 1   
    31   15   53 1   
    32   16   17 2   
    33   16   18 1   
    34   18   19 1   
    35   18   54 1   
    36   18   89 1   
    37   19   20 1   
    38   19   55 1   
    39   19   56 1   
    40   20   21 1   
    41   20   57 1   
    42   20   58 1   
    43   21   22 1   
    44   22   23 2   
    45   22   24 1   
    46   24   25 1   
    47   24   59 1   
    48   24   60 1   
    49   25   26 1   
    50   25   61 1   
    51   25   62 1   
    52   26   27 1   
    53   26   63 1   
    54   26   64 1   
    55   27   28 1   
    56   27   65 1   
    57   27   66 1   
    58   28   29 1   
    59   28   67 1   
    60   28   68 1   
    61   29   30 1   
    62   29   69 1   
    63   29   70 1   
    64   30   31 1   
    65   30   71 1   
    66   30   72 1   
    67   31   32 2   
    68   31   73 1   
    69   32   33 1   
    70   32   74 1   
    71   33   34 1   
    72   33   75 1   
    73   33   76 1   
    74   34   35 1   
    75   34   77 1   
    76   34   78 1   
    77   35   36 1   
    78   35   79 1   
    79   35   80 1   
    80   36   37 1   
    81   36   81 1   
    82   36   82 1   
    83   37   38 1   
    84   37   83 1   
    85   37   84 1   
    86   38   85 1   
    87   38   86 1   
    88   38   87 1   
@<TRIPOS>SUBSTRUCTURE
     1 ZMQ         1 TEMP              0 ****  ****    0 ROOT
