@<TRIPOS>MOLECULE
ZMQ
   87    86     1     0     0
SMALL
bcc


@<TRIPOS>ATOM
      1 O23         9.6370   -0.9100   -5.5210 o         1 ZMQ     -0.652500
      2 P24         9.5920   -1.4530   -4.1850 p4        1 ZMQ      1.606200
      3 O26         9.8340   -2.7450   -3.5850 o         1 ZMQ     -0.701300
      4 O27         9.1810   -0.3550   -3.1110 os        1 ZMQ     -0.555200
      5 C28         9.0860   -0.7160   -1.7480 c3        1 ZMQ      0.153400
      6 C29         9.7570    0.3500   -0.8690 c3        1 ZMQ     -0.088000
      7 C31        11.2710    0.2590   -0.9890 c3        1 ZMQ     -0.090100
      8 C30         9.2950    1.7360   -1.2820 c3        1 ZMQ     -0.090100
      9 C32         9.3880    0.0820    0.6090 c3        1 ZMQ      0.083100
     10 O33         9.7180   -1.2330    1.0000 oh        1 ZMQ     -0.580800
     11 C34         7.8920    0.3240    0.8730 c         1 ZMQ      0.625100
     12 O35         7.0800   -0.6100    0.7000 o         1 ZMQ     -0.621100
     13 N36         7.5040    1.5520    1.3610 n         1 ZMQ     -0.550900
     14 C37         6.1250    1.8800    1.5950 c3        1 ZMQ      0.090000
     15 C38         5.4280    2.5530    0.4090 c3        1 ZMQ     -0.187400
     16 C39         4.0130    2.9470    0.7900 c         1 ZMQ      0.656100
     17 O40         3.7030    4.1430    0.9530 o         1 ZMQ     -0.600100
     18 N41         3.0990    1.9280    0.9810 n         1 ZMQ     -0.566900
     19 C42         1.7100    2.1770    1.2460 c3        1 ZMQ      0.096000
     20 C43         0.8040    2.0580    0.0230 c3        1 ZMQ     -0.063300
     21 S1         -0.8790    2.3250    0.4870 ss        1 ZMQ     -0.241700
     22 C1         -1.6190    0.7690    0.3990 c         1 ZMQ      0.575700
     23 O1         -1.0690   -0.2850    0.0690 o         1 ZMQ     -0.529100
     24 C2         -3.0620    0.8710    0.7940 c3        1 ZMQ     -0.169400
     25 C3         -3.9650    0.2780   -0.2680 c3        1 ZMQ     -0.073400
     26 C4         -5.4080    0.2790    0.1900 c3        1 ZMQ     -0.078400
     27 C5         -6.3170   -0.2980   -0.8740 c3        1 ZMQ     -0.079400
     28 C6         -7.7600   -0.3040   -0.4180 c3        1 ZMQ     -0.079400
     29 C7         -8.6690   -0.8800   -1.4820 c3        1 ZMQ     -0.077400
     30 C8        -10.1130   -0.8850   -1.0230 c3        1 ZMQ     -0.048200
     31 C9        -11.0260   -1.4440   -2.0470 c2        1 ZMQ     -0.175200
     32 C10       -12.3490   -1.5510   -1.8830 c2        1 ZMQ     -0.172200
     33 C11       -13.0630   -1.1230   -0.6570 c3        1 ZMQ     -0.049200
     34 C12       -14.5550   -1.3670   -0.7450 c3        1 ZMQ     -0.077400
     35 C13       -15.2580   -0.9210    0.5190 c3        1 ZMQ     -0.079400
     36 C14       -16.7500   -1.1650    0.4330 c3        1 ZMQ     -0.079400
     37 C15       -17.4540   -0.7190    1.6970 c3        1 ZMQ     -0.080400
     38 C16       -18.9400   -0.9600    1.6160 c3        1 ZMQ     -0.093100
     39 H28         7.9890   -0.7680   -1.4830 h1        1 ZMQ      0.074200
     40 H28A        9.5700   -1.7190   -1.5850 h1        1 ZMQ      0.074200
     41 H31        11.5890    0.4390   -2.0420 hc        1 ZMQ      0.045367
     42 H31A       11.7550    1.0310   -0.3430 hc        1 ZMQ      0.045367
     43 H31B       11.6220   -0.7500   -0.6600 hc        1 ZMQ      0.045367
     44 H30         8.1800    1.7860   -1.3170 hc        1 ZMQ      0.045367
     45 H30A        9.6780    2.5050   -0.5690 hc        1 ZMQ      0.045367
     46 H30B        9.6810    1.9690   -2.3050 hc        1 ZMQ      0.045367
     47 H32        10.0290    0.7360    1.2690 h1        1 ZMQ      0.092700
     48 HO33        9.0320   -1.8290    0.6610 ho        1 ZMQ      0.427000
     49 HN36        8.1530    2.3020    1.3270 hn        1 ZMQ      0.314500
     50 H37         5.5760    0.9300    1.8590 h1        1 ZMQ      0.074700
     51 H37A        6.0820    2.5750    2.4820 h1        1 ZMQ      0.074700
     52 H38         5.9700    3.4900    0.1140 hc        1 ZMQ      0.075200
     53 H38A        5.4150    1.8670   -0.4770 hc        1 ZMQ      0.075200
     54 HN41        3.3530    1.0040    0.7200 hn        1 ZMQ      0.313500
     55 H42         1.3690    1.4310    2.0220 h1        1 ZMQ      0.073700
     56 H42A        1.6060    3.2150    1.6780 h1        1 ZMQ      0.073700
     57 H43         1.0620    2.8430   -0.7310 h1        1 ZMQ      0.091200
     58 H43A        0.9100    1.0540   -0.4600 h1        1 ZMQ      0.091200
     59 H2         -3.1960    0.3130    1.7610 hc        1 ZMQ      0.075700
     60 H2A        -3.3400    1.9440    0.9790 hc        1 ZMQ      0.075700
     61 H3         -3.8700    0.8690   -1.2170 hc        1 ZMQ      0.055200
     62 H3A        -3.6350   -0.7710   -0.4920 hc        1 ZMQ      0.055200
     63 H4         -5.5050   -0.3210    1.1330 hc        1 ZMQ      0.041200
     64 H4A        -5.7280    1.3270    0.4300 hc        1 ZMQ      0.041200
     65 H5         -6.2230    0.3030   -1.8170 hc        1 ZMQ      0.042700
     66 H5A        -5.9950   -1.3460   -1.1160 hc        1 ZMQ      0.042700
     67 H6         -7.8550   -0.9060    0.5240 hc        1 ZMQ      0.040200
     68 H6A        -8.0820    0.7430   -0.1750 hc        1 ZMQ      0.040200
     69 H7         -8.5760   -0.2780   -2.4240 hc        1 ZMQ      0.042200
     70 H7A        -8.3480   -1.9270   -1.7250 hc        1 ZMQ      0.042200
     71 H8        -10.2040   -1.4830   -0.0750 hc        1 ZMQ      0.047700
     72 H8A       -10.4310    0.1650   -0.7720 hc        1 ZMQ      0.047700
     73 H9        -10.5530   -1.7810   -2.9840 ha        1 ZMQ      0.122000
     74 H10       -12.9760   -1.9770   -2.6830 ha        1 ZMQ      0.122000
     75 H11       -12.6440   -1.6720    0.2310 hc        1 ZMQ      0.047700
     76 H11A      -12.8720   -0.0290   -0.4770 hc        1 ZMQ      0.047700
     77 H12       -14.9760   -0.8140   -1.6250 hc        1 ZMQ      0.041700
     78 H12A      -14.7480   -2.4590   -0.9180 hc        1 ZMQ      0.041700
     79 H13       -14.8370   -1.4750    1.3990 hc        1 ZMQ      0.039700
     80 H13A      -15.0650    0.1700    0.6920 hc        1 ZMQ      0.039700
     81 H14       -17.1710   -0.6110   -0.4470 hc        1 ZMQ      0.039700
     82 H14A      -16.9430   -2.2560    0.2600 hc        1 ZMQ      0.039700
     83 H15       -17.0300   -1.2730    2.5760 hc        1 ZMQ      0.038700
     84 H15A      -17.2580    0.3720    1.8690 hc        1 ZMQ      0.038700
     85 H16       -19.1560   -2.0460    1.4690 hc        1 ZMQ      0.032700
     86 H16A      -19.4390   -0.6250    2.5560 hc        1 ZMQ      0.032700
     87 H16B      -19.3840   -0.3970    0.7600 hc        1 ZMQ      0.032700
@<TRIPOS>BOND
     1    1    2 1   
     2    2    3 2   
     3    2    4 1   
     4    4    5 1   
     5    5    6 1   
     6    5   39 1   
     7    5   40 1   
     8    6    7 1   
     9    6    8 1   
    10    6    9 1   
    11    7   41 1   
    12    7   42 1   
    13    7   43 1   
    14    8   44 1   
    15    8   45 1   
    16    8   46 1   
    17    9   10 1   
    18    9   11 1   
    19    9   47 1   
    20   10   48 1   
    21   11   12 2   
    22   11   13 1   
    23   13   14 1   
    24   13   49 1   
    25   14   15 1   
    26   14   50 1   
    27   14   51 1   
    28   15   16 1   
    29   15   52 1   
    30   15   53 1   
    31   16   17 2   
    32   16   18 1   
    33   18   19 1   
    34   18   54 1   
    35   19   20 1   
    36   19   55 1   
    37   19   56 1   
    38   20   21 1   
    39   20   57 1   
    40   20   58 1   
    41   21   22 1   
    42   22   23 2   
    43   22   24 1   
    44   24   25 1   
    45   24   59 1   
    46   24   60 1   
    47   25   26 1   
    48   25   61 1   
    49   25   62 1   
    50   26   27 1   
    51   26   63 1   
    52   26   64 1   
    53   27   28 1   
    54   27   65 1   
    55   27   66 1   
    56   28   29 1   
    57   28   67 1   
    58   28   68 1   
    59   29   30 1   
    60   29   69 1   
    61   29   70 1   
    62   30   31 1   
    63   30   71 1   
    64   30   72 1   
    65   31   32 2   
    66   31   73 1   
    67   32   33 1   
    68   32   74 1   
    69   33   34 1   
    70   33   75 1   
    71   33   76 1   
    72   34   35 1   
    73   34   77 1   
    74   34   78 1   
    75   35   36 1   
    76   35   79 1   
    77   35   80 1   
    78   36   37 1   
    79   36   81 1   
    80   36   82 1   
    81   37   38 1   
    82   37   83 1   
    83   37   84 1   
    84   38   85 1   
    85   38   86 1   
    86   38   87 1   
@<TRIPOS>SUBSTRUCTURE
     1 ZMQ         1 TEMP              0 ****  ****    0 ROOT
