@<TRIPOS>MOLECULE
ZMR
   42    42     1     0     0
SMALL
bcc


@<TRIPOS>ATOM
      1 C1         -3.0450   -0.6360    1.5000 c         1 ZMR      0.931800
      2 O1A        -2.5630   -1.1940    2.5270 o         1 ZMR     -0.809800
      3 O1B        -4.2640   -0.5230    1.2270 o         1 ZMR     -0.809800
      4 C2         -2.0240   -0.0810    0.5050 ce        1 ZMR      0.018900
      5 C3         -1.9580   -0.3220   -0.8160 c2        1 ZMR     -0.264200
      6 C4         -0.8120    0.2740   -1.5810 c3        1 ZMR      0.177700
      7 C5          0.4830    0.0290   -0.7180 c3        1 ZMR      0.066700
      8 N5          1.6570    0.6090   -1.3230 n         1 ZMR     -0.558900
      9 C10         2.7040   -0.1240   -1.8400 c         1 ZMR      0.659100
     10 O10         2.7980   -1.3600   -1.6980 o         1 ZMR     -0.610100
     11 C11         3.7800    0.6530   -2.5680 c3        1 ZMR     -0.178100
     12 C6          0.2660    0.5860    0.7140 c3        1 ZMR      0.099100
     13 O6         -1.0960    0.7570    1.1060 os        1 ZMR     -0.336900
     14 C7          0.9590   -0.3260    1.7490 c3        1 ZMR      0.120100
     15 O7          0.3380   -1.5820    1.8660 oh        1 ZMR     -0.618800
     16 C8          0.9990    0.3950    3.1100 c3        1 ZMR      0.061100
     17 O8          1.9550    1.4460    3.0980 oh        1 ZMR     -0.610800
     18 C9          1.3080   -0.5840    4.2480 c3        1 ZMR      0.095400
     19 O9          2.2660   -0.0380    5.1380 oh        1 ZMR     -0.620800
     20 NE         -0.7000   -0.2750   -2.9090 n2        1 ZMR     -0.653900
     21 CZ         -0.2700    0.4140   -3.9360 c2        1 ZMR      0.695100
     22 NH1        -0.3040   -0.2010   -5.2480 nh        1 ZMR     -0.894300
     23 NH2         0.2780    1.7450   -3.9210 nh        1 ZMR     -0.894300
     24 H3         -2.7040   -0.9350   -1.3320 ha        1 ZMR      0.161000
     25 H4         -0.9890    1.3980   -1.5890 h1        1 ZMR      0.016700
     26 H5          0.6360   -1.0920   -0.6370 h1        1 ZMR      0.127700
     27 HN5         1.6090    1.5750   -1.5450 hn        1 ZMR      0.299500
     28 H111        4.5520   -0.0640   -2.9360 hc        1 ZMR      0.058033
     29 H112        3.3440    1.2010   -3.4370 hc        1 ZMR      0.058033
     30 H113        4.2640    1.3860   -1.8790 hc        1 ZMR      0.058033
     31 H6          0.6940    1.6250    0.8200 h1        1 ZMR      0.065700
     32 H7          2.0070   -0.5500    1.4020 h1        1 ZMR      0.062700
     33 HO7        -0.6010   -1.4370    2.1050 ho        1 ZMR      0.468000
     34 H8          0.0130    0.9120    3.2860 h1        1 ZMR      0.110700
     35 HO8         2.8260    1.0320    3.0540 ho        1 ZMR      0.398000
     36 H91         0.3670   -0.8410    4.7990 h1        1 ZMR      0.066700
     37 H92         1.7780   -1.5260    3.8590 h1        1 ZMR      0.066700
     38 HO9         1.9680    0.8520    5.3650 ho        1 ZMR      0.402000
     39 HN11        0.6280   -0.3340   -5.5890 hn        1 ZMR      0.378550
     40 HN12       -0.7810   -1.0830   -5.2190 hn        1 ZMR      0.378550
     41 HN21        0.2390    2.1960   -4.8120 hn        1 ZMR      0.378550
     42 HN22       -0.1490    2.3170   -3.2210 hn        1 ZMR      0.378550
@<TRIPOS>BOND
     1    1    2 1   
     2    1    3 1   
     3    1    4 1   
     4    4    5 2   
     5    4   13 1   
     6    5    6 1   
     7    5   24 1   
     8    6    7 1   
     9    6   20 1   
    10    6   25 1   
    11    7    8 1   
    12    7   12 1   
    13    7   26 1   
    14    8    9 1   
    15    8   27 1   
    16    9   10 2   
    17    9   11 1   
    18   11   28 1   
    19   11   29 1   
    20   11   30 1   
    21   12   13 1   
    22   12   14 1   
    23   12   31 1   
    24   14   15 1   
    25   14   16 1   
    26   14   32 1   
    27   15   33 1   
    28   16   17 1   
    29   16   18 1   
    30   16   34 1   
    31   17   35 1   
    32   18   19 1   
    33   18   36 1   
    34   18   37 1   
    35   19   38 1   
    36   20   21 2   
    37   21   22 1   
    38   21   23 1   
    39   22   39 1   
    40   22   40 1   
    41   23   41 1   
    42   23   42 1   
@<TRIPOS>SUBSTRUCTURE
     1 ZMR         1 TEMP              0 ****  ****    0 ROOT
