@<TRIPOS>MOLECULE
ZN4
   40    40     1     0     0
SMALL
bcc


@<TRIPOS>ATOM
      1 S02         0.1330    0.9410   -0.4250 s6        1 ZN4      1.448900
      2 N11         1.5530    1.2500    0.2750 n3        1 ZN4     -0.929100
      3 O01        -0.3610    2.1380   -0.9770 o         1 ZN4     -0.646300
      4 C05        -2.5130   -0.9920   -0.1730 ca        1 ZN4     -0.107500
      5 N14         4.9090   -0.4390    0.1500 n3        1 ZN4     -0.747600
      6 O19         0.2270   -0.1890   -1.2640 o         1 ZN4     -0.646300
      7 C04        -2.2440    0.1620    0.5770 ca        1 ZN4     -0.069300
      8 C03        -0.8500    0.5030    0.9440 c3        1 ZN4     -0.248300
      9 C18         5.3650   -2.8810   -0.0860 c3        1 ZN4     -0.093600
     10 C10        -3.3070    0.9660    1.0060 ca        1 ZN4     -0.107500
     11 C09        -4.6210    0.6280    0.6910 ca        1 ZN4     -0.122000
     12 C07        -4.8770   -0.5260   -0.0560 ca        1 ZN4      0.023400
     13 C06        -3.8240   -1.3370   -0.4920 ca        1 ZN4     -0.122000
     14 C12         2.5620    0.2660    0.5450 c3        1 ZN4      0.219800
     15 C13         3.9090    0.5710   -0.1600 c3        1 ZN4      0.159800
     16 C17         4.8060   -1.6120   -0.7100 c3        1 ZN4      0.172800
     17 C15         6.2610    0.0980    0.2200 c3        1 ZN4      0.172800
     18 C16         6.5380    0.9140    1.4730 c3        1 ZN4     -0.093600
     19 H031       -0.4070   -0.3820    1.4770 h1        1 ZN4      0.111200
     20 H032       -0.8640    1.3330    1.7000 h1        1 ZN4      0.111200
     21 H11         1.8260    2.1760    0.5030 hn        1 ZN4      0.450800
     22 H05        -1.6790   -1.6180   -0.5320 ha        1 ZN4      0.149000
     23 H10        -3.1080    1.8760    1.5920 ha        1 ZN4      0.149000
     24 H06        -4.0250   -2.2410   -1.0860 ha        1 ZN4      0.150000
     25 H09        -5.4500    1.2680    1.0280 ha        1 ZN4      0.150000
     26 H121        2.7430    0.2110    1.6570 h1        1 ZN4      0.058700
     27 H122        2.1810   -0.7400    0.2020 h1        1 ZN4      0.058700
     28 H131        4.2730    1.5750    0.1950 h1        1 ZN4      0.039200
     29 H132        3.7290    0.6530   -1.2720 h1        1 ZN4      0.039200
     30 H151        6.9790   -0.7720    0.2070 h1        1 ZN4      0.033200
     31 H152        6.4970    0.7350   -0.6840 h1        1 ZN4      0.033200
     32 H171        3.7140   -1.7880   -0.9340 h1        1 ZN4      0.033200
     33 H172        5.3240   -1.4390   -1.7000 h1        1 ZN4      0.033200
     34 H161        7.6180    1.1980    1.4820 hc        1 ZN4      0.038700
     35 H162        5.9290    1.8480    1.4990 hc        1 ZN4      0.038700
     36 H163        6.3160    0.3230    2.3930 hc        1 ZN4      0.038700
     37 H181        5.1430   -3.7390   -0.7660 hc        1 ZN4      0.038700
     38 H182        6.4710   -2.8190    0.0530 hc        1 ZN4      0.038700
     39 H183        4.8970   -3.0820    0.9070 hc        1 ZN4      0.038700
     40 CL8        -6.4790   -0.9460   -0.4370 cl        1 ZN4     -0.092400
@<TRIPOS>BOND
     1    1    2 1   
     2    1    3 2   
     3    1    6 2   
     4    1    8 1   
     5    2   14 1   
     6    2   21 1   
     7    4    7 ar  
     8    4   13 ar  
     9    4   22 1   
    10    5   15 1   
    11    5   16 1   
    12    5   17 1   
    13    7    8 1   
    14    7   10 ar  
    15    8   19 1   
    16    8   20 1   
    17    9   16 1   
    18    9   37 1   
    19    9   38 1   
    20    9   39 1   
    21   10   11 ar  
    22   10   23 1   
    23   11   12 ar  
    24   11   25 1   
    25   12   13 ar  
    26   12   40 1   
    27   13   24 1   
    28   14   15 1   
    29   14   26 1   
    30   14   27 1   
    31   15   28 1   
    32   15   29 1   
    33   16   32 1   
    34   16   33 1   
    35   17   18 1   
    36   17   30 1   
    37   17   31 1   
    38   18   34 1   
    39   18   35 1   
    40   18   36 1   
@<TRIPOS>SUBSTRUCTURE
     1 ZN4         1 TEMP              0 ****  ****    0 ROOT
