@<TRIPOS>MOLECULE
ZN4
   42    39     1     0     0
SMALL
bcc


@<TRIPOS>ATOM
      1 S02        -0.7730   -1.2180   -1.0380 s4        1 ZN4      2.126800
      2 N11         1.6380   -0.4750   -0.1050 n8        1 ZN4     -0.404000
      3 O01        -1.1360   -0.0320   -0.4790 o         1 ZN4     -0.445900
      4 C05        -5.9710    0.7070   -3.7380 c2        1 ZN4     -0.070000
      5 N14         4.8320    0.4640   -2.0140 nx        1 ZN4     -0.008000
      6 O19        -0.0810   -1.2900   -2.2050 o         1 ZN4     -0.445900
      7 C04        -1.7820   -2.7080    0.8810 c2        1 ZN4      0.315000
      8 C03        -1.0590   -2.5110   -0.2800 c2        1 ZN4     -1.251000
      9 C18         4.9970    1.1420   -4.4390 c3        1 ZN4     -0.256000
     10 C10        -2.0270   -3.9600    1.4720 c2        1 ZN4     -0.561000
     11 C09        -1.6820   -5.1970    1.0860 c1        1 ZN4      0.512000
     12 C07        -3.9380    0.1500   -2.2270 c2        1 ZN4     -0.121000
     13 C06        -4.9530    0.4220   -2.9850 c1        1 ZN4     -0.131000
     14 C12         2.6060   -0.4340   -1.1760 c3        1 ZN4     -0.111000
     15 C13         3.8560    0.4290   -0.8830 c3        1 ZN4     -0.175000
     16 C17         4.3970    1.4350   -3.0800 c3        1 ZN4     -0.126000
     17 C15         6.2140    0.8050   -1.5170 c3        1 ZN4     -0.126000
     18 C16         6.9290   -0.3620   -0.8740 c3        1 ZN4     -0.256000
     19 H031       -2.2170   -1.8210    1.3970 ha        1 ZN4      0.173000
     20 H032       -0.6630   -3.4560   -0.7320 h4        1 ZN4      0.236000
     21 H11         1.9980   -0.9740    0.6900 hn        1 ZN4      0.186500
     22 H05        -7.0120    0.5690   -3.3950 ha        1 ZN4      0.171000
     23 H10        -2.6290   -3.9530    2.4250 ha        1 ZN4      0.252000
     24 H06        -5.8550    1.1140   -4.7570 ha        1 ZN4      0.171000
     25 H09        -3.4300    0.8090   -1.5140 h4        1 ZN4      0.183000
     26 H121        2.0760   -0.0400   -2.0930 h1        1 ZN4      0.129500
     27 H122        2.9300   -1.4920   -1.3970 h1        1 ZN4      0.129500
     28 H131        3.5520    1.4920   -0.6560 hx        1 ZN4      0.147000
     29 H132        4.3890    0.0140    0.0210 hx        1 ZN4      0.147000
     30 H151        6.1150    1.6610   -0.7900 hx        1 ZN4      0.146250
     31 H152        6.8090    1.1610   -2.4090 hx        1 ZN4      0.146250
     32 H171        4.6870    2.4700   -2.7370 hx        1 ZN4      0.146250
     33 H172        3.2720    1.3850   -3.1510 hx        1 ZN4      0.146250
     34 H161        7.0390   -1.2240   -1.5770 hc        1 ZN4      0.123000
     35 H162        7.9590   -0.0180   -0.5910 hc        1 ZN4      0.123000
     36 H163        6.4190   -0.7130    0.0550 hc        1 ZN4      0.123000
     37 H181        4.7230    0.1220   -4.8040 hc        1 ZN4      0.123000
     38 H182        4.5860    1.8920   -5.1640 hc        1 ZN4      0.123000
     39 H183        6.1100    1.2400   -4.4400 hc        1 ZN4      0.123000
     40 Cl8        -3.2290   -1.4450   -2.2460 cl        1 ZN4     -0.142000
     41 H112        1.3740    0.4520    0.1860 hn        1 ZN4      0.186500
     42 H141        4.8730   -0.4740   -2.4370 hn        1 ZN4      0.243000
@<TRIPOS>BOND
     1    1    3 1   
     2    1    6 1   
     3    1    8 1   
     4    2   14 1   
     5    2   21 1   
     6    2   41 1   
     7    4   13 1   
     8    4   22 1   
     9    4   24 1   
    10    5   15 1   
    11    5   16 1   
    12    5   17 1   
    13    5   42 1   
    14    7    8 1   
    15    7   10 1   
    16    7   19 1   
    17    8   20 1   
    18    9   16 1   
    19    9   37 1   
    20    9   38 1   
    21    9   39 1   
    22   10   11 1   
    23   10   23 1   
    24   12   13 1   
    25   12   25 1   
    26   12   40 1   
    27   14   15 1   
    28   14   26 1   
    29   14   27 1   
    30   15   28 1   
    31   15   29 1   
    32   16   32 1   
    33   16   33 1   
    34   17   18 1   
    35   17   30 1   
    36   17   31 1   
    37   18   34 1   
    38   18   35 1   
    39   18   36 1   
@<TRIPOS>SUBSTRUCTURE
     1 ZN4         1 TEMP              0 ****  ****    0 ROOT
