@<TRIPOS>MOLECULE
ZN4
   42    39     1     0     0
SMALL
bcc


@<TRIPOS>ATOM
      1 S02        -0.8580   -1.0560   -0.8830 s4        1 ZN4      2.125800
      2 N11         1.5550   -0.1640   -0.1060 n3        1 ZN4     -0.404000
      3 O01        -1.2090    0.2230   -0.5870 o         1 ZN4     -0.443400
      4 C05        -5.6580    0.9090   -3.3600 c2        1 ZN4     -0.072000
      5 N14         4.7950    0.3170   -2.1040 n4        1 ZN4     -0.008000
      6 O19        -0.1690   -1.3740   -2.0110 o         1 ZN4     -0.443400
      7 C04        -1.8560   -2.0870    1.3200 c2        1 ZN4      0.312000
      8 C03        -1.1500   -2.1560    0.1350 c2        1 ZN4     -1.251000
      9 C18         5.0200    0.4620   -4.6130 c3        1 ZN4     -0.256000
     10 C10        -2.1110   -3.1800    2.1680 c2        1 ZN4     -0.561000
     11 C09        -1.7910   -4.4770    2.0500 c1        1 ZN4      0.511000
     12 C07        -3.6760   -0.7660   -3.3730 c2        1 ZN4     -0.106000
     13 C06        -4.6680    0.0690   -3.3520 c1        1 ZN4     -0.144000
     14 C12         2.5400   -0.3570   -1.1440 c3        1 ZN4     -0.110000
     15 C13         3.7970    0.5350   -1.0140 c3        1 ZN4     -0.175000
     16 C17         4.3970    1.0440   -3.3620 c3        1 ZN4     -0.126000
     17 C15         6.1720    0.7420   -1.6600 c3        1 ZN4     -0.126000
     18 C16         6.8580   -0.2690   -0.7670 c3        1 ZN4     -0.256000
     19 H031       -2.2690   -1.1020    1.6410 ha        1 ZN4      0.174000
     20 H032       -0.7760   -3.1820   -0.1120 h4        1 ZN4      0.236000
     21 H11         1.8950   -0.4870    0.7820 hn        1 ZN4      0.186500
     22 H05        -5.5370    1.9720   -3.0930 ha        1 ZN4      0.169500
     23 H10        -2.6980   -2.9600    3.1040 ha        1 ZN4      0.252000
     24 H06        -6.6780    0.6040   -3.6540 ha        1 ZN4      0.169500
     25 H09        -3.0310   -1.0290   -4.2180 h4        1 ZN4      0.192000
     26 H121        2.0300   -0.1580   -2.1330 h1        1 ZN4      0.129500
     27 H122        2.8520   -1.4420   -1.1340 h1        1 ZN4      0.129500
     28 H131        3.5050    1.6240   -1.0240 hx        1 ZN4      0.147000
     29 H132        4.3070    0.3160   -0.0300 hx        1 ZN4      0.147000
     30 H151        6.0720    1.7340   -1.1340 hx        1 ZN4      0.146000
     31 H152        6.7910    0.8940   -2.5930 hx        1 ZN4      0.146000
     32 H171        4.6950    2.1250   -3.2400 hx        1 ZN4      0.146000
     33 H172        3.2730    0.9900   -3.4460 hx        1 ZN4      0.146000
     34 H161        6.9680   -1.2620   -1.2680 hc        1 ZN4      0.122833
     35 H162        7.8870    0.1180   -0.5400 hc        1 ZN4      0.122833
     36 H163        6.3240   -0.4080    0.2040 hc        1 ZN4      0.122833
     37 H181        4.7390   -0.6100   -4.7590 hc        1 ZN4      0.122833
     38 H182        4.6340    1.0450   -5.4900 hc        1 ZN4      0.122833
     39 H183        6.1340    0.5470   -4.6100 hc        1 ZN4      0.122833
     40 CL8        -3.2940   -1.7250   -1.9660 cl        1 ZN4     -0.149000
     41 H112        1.2990    0.8060   -0.0210 hn        1 ZN4      0.186500
     42 H141        4.8320   -0.6900   -2.3170 hn        1 ZN4      0.243000
@<TRIPOS>BOND
     1    1    3 1   
     2    1    6 1   
     3    1    8 1   
     4    2   14 1   
     5    2   21 1   
     6    2   41 1   
     7    4   13 1   
     8    4   22 1   
     9    4   24 1   
    10    5   15 1   
    11    5   16 1   
    12    5   17 1   
    13    5   42 1   
    14    7    8 1   
    15    7   10 1   
    16    7   19 1   
    17    8   20 1   
    18    9   16 1   
    19    9   37 1   
    20    9   38 1   
    21    9   39 1   
    22   10   11 1   
    23   10   23 1   
    24   12   13 1   
    25   12   25 1   
    26   12   40 1   
    27   14   15 1   
    28   14   26 1   
    29   14   27 1   
    30   15   28 1   
    31   15   29 1   
    32   16   32 1   
    33   16   33 1   
    34   17   18 1   
    35   17   30 1   
    36   17   31 1   
    37   18   34 1   
    38   18   35 1   
    39   18   36 1   
@<TRIPOS>SUBSTRUCTURE
     1 ZN4         1 TEMP              0 ****  ****    0 ROOT
