@<TRIPOS>MOLECULE
ZNE
   74    77     1     0     0
SMALL
bcc


@<TRIPOS>ATOM
      1 C1          6.6120    2.9030   -0.4950 c3        1 ZNE      0.183300
      2 N1         -8.4870    0.3790   -0.7760 nc        1 ZNE     -0.636000
      3 O1          5.8860    3.4170    0.6190 oh        1 ZNE     -0.596800
      4 S1         -8.1620    2.6840    0.3240 ss        1 ZNE     -0.070300
      5 C2          8.0480    2.6920   -0.0280 c3        1 ZNE     -0.069400
      6 O2          9.5110    1.3610    1.2620 oh        1 ZNE     -0.600800
      7 C3          8.1350    1.5110    0.9300 c3        1 ZNE      0.145100
      8 O3         -7.0370   -0.6480    1.6820 oh        1 ZNE     -0.585800
      9 C4          7.6020    0.2350    0.2810 c3        1 ZNE     -0.075200
     10 C5          6.2130    0.4230   -0.2310 ce        1 ZNE     -0.068200
     11 C6          5.2580   -0.4930    0.0330 cf        1 ZNE     -0.116000
     12 C7          3.8790   -0.3970   -0.3870 cf        1 ZNE     -0.152000
     13 C8          3.0150   -1.4220   -0.4870 c2        1 ZNE     -0.075400
     14 C9          3.3620   -2.8590   -0.2720 c3        1 ZNE     -0.044200
     15 C10         6.0010    1.6300   -1.0280 ce        1 ZNE     -0.121200
     16 C11         2.3450   -3.6140    0.5690 c3        1 ZNE     -0.073400
     17 C12         0.9000   -3.3510    0.1830 c3        1 ZNE     -0.067400
     18 C13         0.6200   -1.8570    0.1240 c3        1 ZNE     -0.039000
     19 C14         1.6030   -1.2570   -0.9220 c3        1 ZNE     -0.038500
     20 C15         1.0280    0.1210   -1.2150 c3        1 ZNE     -0.073400
     21 C16        -0.4860   -0.0640   -1.0970 c3        1 ZNE     -0.079400
     22 C17        -0.7450   -1.4550   -0.4810 c3        1 ZNE     -0.053700
     23 C18         0.8170   -1.2170    1.4880 c3        1 ZNE     -0.083100
     24 C19         5.3310    1.6290   -2.1870 c2        1 ZNE     -0.194000
     25 C20        -1.9390   -1.4440    0.4690 c3        1 ZNE     -0.054700
     26 C21        -2.1710   -2.8060    1.0950 c3        1 ZNE     -0.092100
     27 C22        -3.2000   -1.0080   -0.2760 c3        1 ZNE     -0.079400
     28 C23        -4.2510   -0.4580    0.6650 c3        1 ZNE     -0.080400
     29 C24        -5.4880   -0.0280   -0.0950 c3        1 ZNE     -0.107400
     30 C25        -6.5880    0.4180    0.8670 c3        1 ZNE      0.120800
     31 C26        -7.7250    1.0360    0.1050 cd        1 ZNE      0.344700
     32 C27        -9.4440    1.2380   -1.2860 cc        1 ZNE      0.332200
     33 C31        -9.3970    2.5340   -0.7900 cd        1 ZNE     -0.255400
     34 H1          6.6030    3.6910   -1.3050 h1        1 ZNE      0.038700
     35 HO1         4.9490    3.3150    0.4190 ho        1 ZNE      0.404000
     36 H2          8.7020    2.5080   -0.9180 hc        1 ZNE      0.067200
     37 H2A         8.4100    3.6150    0.4920 hc        1 ZNE      0.067200
     38 HO2         9.5620    0.6440    1.9040 ho        1 ZNE      0.399000
     39 H3          7.5430    1.7410    1.8610 h1        1 ZNE      0.053700
     40 H4          8.2740   -0.0470   -0.5750 hc        1 ZNE      0.054200
     41 H4A         7.6420   -0.6020    1.0270 hc        1 ZNE      0.054200
     42 H6          5.5240   -1.3750    0.6430 ha        1 ZNE      0.125000
     43 H7          3.5340    0.6250   -0.6330 ha        1 ZNE      0.127000
     44 H9          3.4320   -3.3450   -1.2840 hc        1 ZNE      0.048200
     45 H9A         4.3690   -2.9630    0.2110 hc        1 ZNE      0.048200
     46 H11         2.5510   -4.7130    0.4760 hc        1 ZNE      0.041200
     47 H11A        2.4890   -3.3410    1.6490 hc        1 ZNE      0.041200
     48 H12         0.6850   -3.8100   -0.8170 hc        1 ZNE      0.043200
     49 H12A        0.2270   -3.8450    0.9300 hc        1 ZNE      0.043200
     50 H14         1.4950   -1.8660   -1.8710 hc        1 ZNE      0.055700
     51 H15         1.3880    0.8740   -0.4700 hc        1 ZNE      0.044200
     52 H15A        1.3200    0.4770   -2.2320 hc        1 ZNE      0.044200
     53 H16        -0.9220    0.7390   -0.4520 hc        1 ZNE      0.042700
     54 H16A       -0.9680    0.0050   -2.1030 hc        1 ZNE      0.042700
     55 H17        -0.9770   -2.1790   -1.3100 hc        1 ZNE      0.047700
     56 H18         1.8940   -1.2420    1.7810 hc        1 ZNE      0.037700
     57 H18A        0.4860   -0.1500    1.4670 hc        1 ZNE      0.037700
     58 H18B        0.2250   -1.7600    2.2630 hc        1 ZNE      0.037700
     59 H19         5.1910    2.5400   -2.7850 ha        1 ZNE      0.121000
     60 H19A        4.8940    0.7150   -2.6110 ha        1 ZNE      0.121000
     61 H20        -1.7350   -0.7010    1.2910 hc        1 ZNE      0.051700
     62 H21        -3.1820   -2.8510    1.5680 hc        1 ZNE      0.035367
     63 H21A       -2.1080   -3.6110    0.3230 hc        1 ZNE      0.035367
     64 H21B       -1.4130   -3.0120    1.8870 hc        1 ZNE      0.035367
     65 H22        -2.9500   -0.2190   -1.0330 hc        1 ZNE      0.042200
     66 H22A       -3.6170   -1.8830   -0.8400 hc        1 ZNE      0.042200
     67 H23        -4.5400   -1.2320    1.4250 hc        1 ZNE      0.048200
     68 H23A       -3.8330    0.4170    1.2290 hc        1 ZNE      0.048200
     69 H24        -5.2390    0.8180   -0.7870 hc        1 ZNE      0.056700
     70 H24A       -5.8660   -0.8780   -0.7220 hc        1 ZNE      0.056700
     71 H25        -6.1820    1.1690    1.6060 h1        1 ZNE      0.080700
     72 H27       -10.1540    0.8520   -2.0270 h4        1 ZNE      0.045100
     73 H31       -10.0650    3.3420   -1.0770 h4        1 ZNE      0.182000
     74 HO3        -7.3780   -1.3400    1.1000 ho        1 ZNE      0.415000
@<TRIPOS>BOND
     1    1    3 1   
     2    1    5 1   
     3    1   15 1   
     4    1   34 1   
     5    2   31 2   
     6    2   32 1   
     7    3   35 1   
     8    4   31 1   
     9    4   33 1   
    10    5    7 1   
    11    5   36 1   
    12    5   37 1   
    13    6    7 1   
    14    6   38 1   
    15    7    9 1   
    16    7   39 1   
    17    8   30 1   
    18    8   74 1   
    19    9   10 1   
    20    9   40 1   
    21    9   41 1   
    22   10   11 2   
    23   10   15 1   
    24   11   12 1   
    25   11   42 1   
    26   12   13 2   
    27   12   43 1   
    28   13   14 1   
    29   13   19 1   
    30   14   16 1   
    31   14   44 1   
    32   14   45 1   
    33   15   24 2   
    34   16   17 1   
    35   16   46 1   
    36   16   47 1   
    37   17   18 1   
    38   17   48 1   
    39   17   49 1   
    40   18   19 1   
    41   18   22 1   
    42   18   23 1   
    43   19   20 1   
    44   19   50 1   
    45   20   21 1   
    46   20   51 1   
    47   20   52 1   
    48   21   22 1   
    49   21   53 1   
    50   21   54 1   
    51   22   25 1   
    52   22   55 1   
    53   23   56 1   
    54   23   57 1   
    55   23   58 1   
    56   24   59 1   
    57   24   60 1   
    58   25   26 1   
    59   25   27 1   
    60   25   61 1   
    61   26   62 1   
    62   26   63 1   
    63   26   64 1   
    64   27   28 1   
    65   27   65 1   
    66   27   66 1   
    67   28   29 1   
    68   28   67 1   
    69   28   68 1   
    70   29   30 1   
    71   29   69 1   
    72   29   70 1   
    73   30   31 1   
    74   30   71 1   
    75   32   33 2   
    76   32   72 1   
    77   33   73 1   
@<TRIPOS>SUBSTRUCTURE
     1 ZNE         1 TEMP              0 ****  ****    0 ROOT
