@<TRIPOS>MOLECULE
ZNE
   74    77     1     0     0
SMALL
bcc


@<TRIPOS>ATOM
      1 C1          0.5440   -0.6180   -0.4000 c3        1 ZNE      0.186300
      2 N1        -13.6010    3.5520    4.5090 nc        1 ZNE     -0.642000
      3 O1          0.0460    0.7020   -0.1940 oh        1 ZNE     -0.589800
      4 S1        -13.0990    1.4270    3.1480 ss        1 ZNE     -0.067300
      5 C2          2.0630   -0.6710   -0.2680 c3        1 ZNE     -0.146400
      6 O2          3.9030   -0.5620    1.3110 oh        1 ZNE     -0.599800
      7 C3          2.4940   -0.4310    1.1740 c3        1 ZNE      0.146100
      8 O3        -11.6330    2.5880    6.5240 oh        1 ZNE     -0.589800
      9 C4          1.8720   -1.4710    2.1030 c3        1 ZNE     -0.036200
     10 C5          0.3850   -1.4790    1.9730 ce        1 ZNE     -0.073200
     11 C6         -0.3910   -1.4710    3.0770 cf        1 ZNE     -0.109000
     12 C7         -1.8350   -1.4420    3.0740 cf        1 ZNE     -0.149000
     13 C8         -2.6310   -1.8570    4.0740 c2        1 ZNE     -0.082400
     14 C9         -2.1550   -2.5170    5.3280 c3        1 ZNE     -0.044200
     15 C10        -0.1330   -1.5140    0.6070 ce        1 ZNE     -0.069200
     16 C11        -2.8150   -1.9830    6.5880 c3        1 ZNE     -0.073400
     17 C12        -4.3210   -1.8160    6.4790 c3        1 ZNE     -0.067400
     18 C13        -4.6870   -1.0150    5.2390 c3        1 ZNE     -0.039000
     19 C14        -4.1140   -1.7900    4.0180 c3        1 ZNE     -0.035500
     20 C15        -4.8260   -1.1700    2.8260 c3        1 ZNE     -0.074400
     21 C16        -6.2150   -0.8090    3.3550 c3        1 ZNE     -0.078400
     22 C17        -6.1930   -0.9730    4.8890 c3        1 ZNE     -0.054700
     23 C18        -4.1110    0.3880    5.3150 c3        1 ZNE     -0.083100
     24 C19        -1.1420   -2.3090    0.2280 c2        1 ZNE     -0.193000
     25 C20        -7.0290    0.0930    5.5900 c3        1 ZNE     -0.054700
     26 C21        -6.9800   -0.0540    7.0980 c3        1 ZNE     -0.093100
     27 C22        -8.4820    0.0150    5.1210 c3        1 ZNE     -0.079400
     28 C23        -9.2120    1.3270    5.3250 c3        1 ZNE     -0.077400
     29 C24       -10.6500    1.2220    4.8640 c3        1 ZNE     -0.083400
     30 C25       -11.4010    2.5280    5.1250 c3        1 ZNE      0.120800
     31 C26       -12.6870    2.5890    4.3480 cd        1 ZNE      0.344700
     32 C27       -14.6560    3.3400    3.6410 cc        1 ZNE      0.334200
     33 C31       -14.5310    2.2210    2.8270 cd        1 ZNE     -0.260400
     34 H1          0.2630   -0.9410   -1.4460 h1        1 ZNE      0.034700
     35 HO1         0.5360    1.2770   -0.7930 ho        1 ZNE      0.396000
     36 H2          2.4280   -1.6750   -0.6030 hc        1 ZNE      0.052700
     37 H2A         2.5260    0.1020   -0.9340 hc        1 ZNE      0.052700
     38 HO2         4.3000    0.1040    0.7390 ho        1 ZNE      0.398000
     39 H3          2.1770    0.6040    1.4900 h1        1 ZNE      0.048700
     40 H4          2.1870   -1.2480    3.1560 hc        1 ZNE      0.062200
     41 H4A         2.2760   -2.4850    1.8400 hc        1 ZNE      0.062200
     42 H6          0.0970   -1.4510    4.0690 ha        1 ZNE      0.124000
     43 H7         -2.2920   -1.0220    2.1560 ha        1 ZNE      0.137000
     44 H9         -1.0430   -2.4150    5.4390 hc        1 ZNE      0.047200
     45 H9A        -2.3760   -3.6160    5.2370 hc        1 ZNE      0.047200
     46 H11        -2.3570   -0.9920    6.8490 hc        1 ZNE      0.040700
     47 H11A       -2.5880   -2.6840    7.4340 hc        1 ZNE      0.040700
     48 H12        -4.8110   -2.8240    6.4300 hc        1 ZNE      0.042200
     49 H12A       -4.6990   -1.3040    7.4020 hc        1 ZNE      0.042200
     50 H14        -4.4790   -2.8600    4.0990 hc        1 ZNE      0.052700
     51 H15        -4.8870   -1.8850    1.9700 hc        1 ZNE      0.046200
     52 H15A       -4.2930   -0.2530    2.4710 hc        1 ZNE      0.046200
     53 H16        -6.9910   -1.4790    2.9100 hc        1 ZNE      0.040700
     54 H16A       -6.4710    0.2440    3.0770 hc        1 ZNE      0.040700
     55 H17        -6.6320   -1.9760    5.1510 hc        1 ZNE      0.046700
     56 H18        -2.9960    0.3580    5.2520 hc        1 ZNE      0.037700
     57 H18A       -4.4890    1.0100    4.4670 hc        1 ZNE      0.037700
     58 H18B       -4.4000    0.8790    6.2750 hc        1 ZNE      0.037700
     59 H19        -1.5240   -2.3240   -0.8010 ha        1 ZNE      0.120000
     60 H19A       -1.6400   -2.9940    0.9280 ha        1 ZNE      0.120000
     61 H20        -6.6200    1.1060    5.3140 hc        1 ZNE      0.051700
     62 H21        -6.0030    0.3080    7.4990 hc        1 ZNE      0.035700
     63 H21A       -7.1130   -1.1220    7.3950 hc        1 ZNE      0.035700
     64 H21B       -7.7910    0.5470    7.5760 hc        1 ZNE      0.035700
     65 H22        -8.5240   -0.2540    4.0330 hc        1 ZNE      0.041200
     66 H22A       -9.0080   -0.8010    5.6830 hc        1 ZNE      0.041200
     67 H23        -9.1990    1.6180    6.4080 hc        1 ZNE      0.050200
     68 H23A       -8.6910    2.1400    4.7540 hc        1 ZNE      0.050200
     69 H24       -10.6840    0.9910    3.7660 hc        1 ZNE      0.055200
     70 H24A      -11.1620    0.3890    5.4150 hc        1 ZNE      0.055200
     71 H25       -10.7630    3.4080    4.8140 h1        1 ZNE      0.056700
     72 H27       -15.4940    4.0460    3.6500 h4        1 ZNE      0.045100
     73 H31       -15.2570    1.9010    2.0830 h4        1 ZNE      0.182000
     74 HO3       -12.1080    3.4090    6.7040 ho        1 ZNE      0.420000
@<TRIPOS>BOND
     1    1    3 1   
     2    1    5 1   
     3    1   15 1   
     4    1   34 1   
     5    2   31 2   
     6    2   32 1   
     7    3   35 1   
     8    4   31 1   
     9    4   33 1   
    10    5    7 1   
    11    5   36 1   
    12    5   37 1   
    13    6    7 1   
    14    6   38 1   
    15    7    9 1   
    16    7   39 1   
    17    8   30 1   
    18    8   74 1   
    19    9   10 1   
    20    9   40 1   
    21    9   41 1   
    22   10   11 2   
    23   10   15 1   
    24   11   12 1   
    25   11   42 1   
    26   12   13 2   
    27   12   43 1   
    28   13   14 1   
    29   13   19 1   
    30   14   16 1   
    31   14   44 1   
    32   14   45 1   
    33   15   24 2   
    34   16   17 1   
    35   16   46 1   
    36   16   47 1   
    37   17   18 1   
    38   17   48 1   
    39   17   49 1   
    40   18   19 1   
    41   18   22 1   
    42   18   23 1   
    43   19   20 1   
    44   19   50 1   
    45   20   21 1   
    46   20   51 1   
    47   20   52 1   
    48   21   22 1   
    49   21   53 1   
    50   21   54 1   
    51   22   25 1   
    52   22   55 1   
    53   23   56 1   
    54   23   57 1   
    55   23   58 1   
    56   24   59 1   
    57   24   60 1   
    58   25   26 1   
    59   25   27 1   
    60   25   61 1   
    61   26   62 1   
    62   26   63 1   
    63   26   64 1   
    64   27   28 1   
    65   27   65 1   
    66   27   66 1   
    67   28   29 1   
    68   28   67 1   
    69   28   68 1   
    70   29   30 1   
    71   29   69 1   
    72   29   70 1   
    73   30   31 1   
    74   30   71 1   
    75   32   33 2   
    76   32   72 1   
    77   33   73 1   
@<TRIPOS>SUBSTRUCTURE
     1 ZNE         1 TEMP              0 ****  ****    0 ROOT
