@<TRIPOS>MOLECULE
ZNN
   27    25     1     0     0
SMALL
bcc


@<TRIPOS>ATOM
      1 N           0.1610    0.3200   -0.3380 nz        1 ZNN     -0.837600
      2 CA          1.6060    0.5740   -0.0710 c3        1 ZNN      0.100800
      3 CB          2.0980   -0.0670    1.2240 c3        1 ZNN     -0.107400
      4 CG          3.5740    0.2440    1.4120 c3        1 ZNN     -0.103400
      5 CD          4.0590   -0.4010    2.7080 c3        1 ZNN      0.100800
      6 NE          5.5010   -0.1520    2.9850 ny        1 ZNN     -0.675800
      7 CZ          5.9840   -0.7990    4.2810 c         1 ZNN      0.440800
      8 O           5.1620   -1.4260    4.9230 o         1 ZNN     -0.373100
      9 CO          7.4340   -0.5950    4.6360 ce        1 ZNN      0.426200
     10 N6          8.1900    0.0870    3.8760 n2        1 ZNN     -0.728100
     11 N8         10.3470   -0.6130    6.3910 n1        1 ZNN      0.000500
     12 N9         11.1850   -0.7260    7.1030 n1        1 ZNN      0.000500
     13 H1         -0.4190    0.6970    0.4210 hn        1 ZNN      0.473800
     14 H2         -0.1140    0.7740   -1.2200 hn        1 ZNN      0.473800
     15 H4          2.1910    0.1700   -0.9490 hx        1 ZNN      0.122700
     16 H5          1.7520    1.6940   -0.0270 hx        1 ZNN      0.122700
     17 H6          1.9510   -1.1810    1.1880 hc        1 ZNN      0.084700
     18 H7          1.5160    0.3270    2.1010 hc        1 ZNN      0.084700
     19 H8          4.1570   -0.1500    0.5370 hc        1 ZNN      0.080700
     20 H9          3.7230    1.3570    1.4500 hc        1 ZNN      0.080700
     21 H10         3.9070   -1.5200    2.6680 hx        1 ZNN      0.120700
     22 H11         3.4690   -0.0040    3.5860 hx        1 ZNN      0.120700
     23 H12         5.6770    0.8600    3.0490 hn        1 ZNN      0.471800
     24 H13         9.1520    0.2130    4.1270 hn        1 ZNN      0.492400
     25 H14         7.6710   -1.1110    5.5970 h4        1 ZNN      0.080800
     26 HN3        -0.0200   -0.6880   -0.4160 hn        1 ZNN      0.473800
     27 HE3         6.0750   -0.5170    2.2140 hn        1 ZNN      0.471800
@<TRIPOS>BOND
     1    1    2 1   
     2    1   13 1   
     3    1   14 1   
     4    1   26 1   
     5    2    3 1   
     6    2   15 1   
     7    2   16 1   
     8    3    4 1   
     9    3   17 1   
    10    3   18 1   
    11    4    5 1   
    12    4   19 1   
    13    4   20 1   
    14    5    6 1   
    15    5   21 1   
    16    5   22 1   
    17    6    7 1   
    18    6   23 1   
    19    6   27 1   
    20    7    8 2   
    21    7    9 1   
    22    9   10 2   
    23    9   25 1   
    24   10   24 1   
    25   11   12 3   
@<TRIPOS>SUBSTRUCTURE
     1 ZNN         1 TEMP              0 ****  ****    0 ROOT
