@<TRIPOS>MOLECULE
ZNP
   27    27     1     0     0
SMALL
bcc


@<TRIPOS>ATOM
      1 CAF         0.0520    0.1380   -0.0540 ca        1 ZNP     -0.127500
      2 CAG         1.4460    0.1610   -0.0190 ca        1 ZNP     -0.125000
      3 CAH         2.1180    0.0320    1.1970 ca        1 ZNP     -0.124000
      4 CAI         1.3920   -0.1150    2.3790 ca        1 ZNP     -0.125000
      5 CAJ        -0.0010   -0.1360    2.3470 ca        1 ZNP     -0.127500
      6 CAE        -0.6810   -0.0120    1.1290 ca        1 ZNP     -0.100300
      7 CAD        -2.1690   -0.0160    1.0990 c3        1 ZNP     -0.029100
      8 CAB        -2.7450   -1.4040    1.3640 c3        1 ZNP     -0.140700
      9 CAA        -2.4430   -2.3120    0.1780 c3        1 ZNP     -0.078700
     10 NAK        -2.6090   -3.7910    0.4660 no        1 ZNP      0.233300
     11 OAN        -2.6390   -4.5440   -0.4670 o         1 ZNP     -0.215000
     12 OAM        -2.6870   -4.1760    1.6030 o         1 ZNP     -0.215000
     13 CAC        -4.2580   -1.2980    1.5570 c         1 ZNP      0.648100
     14 OAO        -4.9060   -0.3320    1.1070 o         1 ZNP     -0.610100
     15 NAL        -4.8860   -2.3120    2.2270 n         1 ZNP     -0.668000
     16 HAF        -0.4730    0.2490   -1.0140 ha        1 ZNP      0.133500
     17 HAG         2.0150    0.2820   -0.9520 ha        1 ZNP      0.136000
     18 HAH         3.2170    0.0500    1.2230 ha        1 ZNP      0.136000
     19 HAI         1.9190   -0.2130    3.3400 ha        1 ZNP      0.136000
     20 HAJ        -0.5710   -0.2460    3.2810 ha        1 ZNP      0.133500
     21 HAD        -2.5640    0.6830    1.8860 hc        1 ZNP      0.076700
     22 HADA       -2.5510    0.3600    0.1120 hc        1 ZNP      0.076700
     23 HAB        -2.2670   -1.8190    2.2980 hc        1 ZNP      0.098700
     24 HAA        -1.3680   -2.1820   -0.1370 h1        1 ZNP      0.113700
     25 HAAA       -3.1150   -2.0780   -0.6930 h1        1 ZNP      0.113700
     26 HNAL       -5.8650   -2.2670    2.3710 hn        1 ZNP      0.325000
     27 HNAA       -4.3790   -3.0740    2.6050 hn        1 ZNP      0.325000
@<TRIPOS>BOND
     1    1    2 ar  
     2    1    6 ar  
     3    1   16 1   
     4    2    3 ar  
     5    2   17 1   
     6    3    4 ar  
     7    3   18 1   
     8    4    5 ar  
     9    4   19 1   
    10    5    6 ar  
    11    5   20 1   
    12    6    7 1   
    13    7    8 1   
    14    7   21 1   
    15    7   22 1   
    16    8    9 1   
    17    8   13 1   
    18    8   23 1   
    19    9   10 1   
    20    9   24 1   
    21    9   25 1   
    22   10   11 1   
    23   10   12 1   
    24   13   14 2   
    25   13   15 1   
    26   15   26 1   
    27   15   27 1   
@<TRIPOS>SUBSTRUCTURE
     1 ZNP         1 TEMP              0 ****  ****    0 ROOT
