@<TRIPOS>MOLECULE
ZNP
   27    27     1     0     0
SMALL
bcc


@<TRIPOS>ATOM
      1 CAF        -2.3540   -0.1090    1.2690 ca        1 ZNP     -0.127500
      2 CAG        -3.5680   -0.7430    1.0090 ca        1 ZNP     -0.125000
      3 CAH        -4.1440   -0.6600   -0.2590 ca        1 ZNP     -0.124000
      4 CAI        -3.5030    0.0610   -1.2670 ca        1 ZNP     -0.125000
      5 CAJ        -2.2900    0.6960   -1.0090 ca        1 ZNP     -0.127500
      6 CAE        -1.7050    0.6130    0.2610 ca        1 ZNP     -0.100300
      7 CAD        -0.4190    1.3080    0.5390 c3        1 ZNP     -0.029100
      8 CAB         0.7640    0.6160   -0.1330 c3        1 ZNP     -0.140700
      9 CAA         1.0210   -0.7220    0.5490 c3        1 ZNP     -0.078700
     10 NAK         1.8950   -1.6700   -0.2470 no        1 ZNP      0.233300
     11 OAN         2.3480   -2.6250    0.3200 o         1 ZNP     -0.215000
     12 OAM         2.1000   -1.4610   -1.4130 o         1 ZNP     -0.215000
     13 CAC         2.0060    1.5000   -0.0110 c         1 ZNP      0.648100
     14 OAO         2.1000    2.3730    0.8760 o         1 ZNP     -0.610100
     15 NAL         3.0250    1.2920   -0.8990 n         1 ZNP     -0.668000
     16 HAF        -1.9090   -0.1700    2.2730 ha        1 ZNP      0.133500
     17 HAG        -4.0740   -1.3060    1.8070 ha        1 ZNP      0.136000
     18 HAH        -5.1020   -1.1600   -0.4630 ha        1 ZNP      0.136000
     19 HAI        -3.9570    0.1310   -2.2660 ha        1 ZNP      0.136000
     20 HAJ        -1.7900    1.2700   -1.8030 ha        1 ZNP      0.133500
     21 HAD        -0.4690    2.3650    0.1560 hc        1 ZNP      0.076700
     22 HADA       -0.2300    1.3740    1.6440 hc        1 ZNP      0.076700
     23 HAB         0.5150    0.4530   -1.2200 hc        1 ZNP      0.098700
     24 HAA         1.5260   -0.5800    1.5440 h1        1 ZNP      0.113700
     25 HAAA        0.0440   -1.2650    0.7020 h1        1 ZNP      0.113700
     26 HNAL        2.9530    0.6150   -1.6180 hn        1 ZNP      0.325000
     27 HNAA        3.8390    1.8530   -0.8460 hn        1 ZNP      0.325000
@<TRIPOS>BOND
     1    1    2 ar  
     2    1    6 ar  
     3    1   16 1   
     4    2    3 ar  
     5    2   17 1   
     6    3    4 ar  
     7    3   18 1   
     8    4    5 ar  
     9    4   19 1   
    10    5    6 ar  
    11    5   20 1   
    12    6    7 1   
    13    7    8 1   
    14    7   21 1   
    15    7   22 1   
    16    8    9 1   
    17    8   13 1   
    18    8   23 1   
    19    9   10 1   
    20    9   24 1   
    21    9   25 1   
    22   10   11 1   
    23   10   12 1   
    24   13   14 2   
    25   13   15 1   
    26   15   26 1   
    27   15   27 1   
@<TRIPOS>SUBSTRUCTURE
     1 ZNP         1 TEMP              0 ****  ****    0 ROOT
