@<TRIPOS>MOLECULE
ZO0
   39    41     1     0     0
SMALL
bcc


@<TRIPOS>ATOM
      1 F13         0.0520    0.0820    0.6840 f         1 ZO0     -0.221633
      2 C11         1.3670    0.0640    0.3110 c3        1 ZO0      0.617600
      3 F14         2.0580   -0.0470    1.4880 f         1 ZO0     -0.221633
      4 F12         1.5300   -1.1380   -0.3260 f         1 ZO0     -0.221633
      5 C2          1.8410    1.2760   -0.5580 ca        1 ZO0      0.592300
      6 N1          0.9470    2.2030   -0.8980 nb        1 ZO0     -0.644000
      7 C6          1.4200    3.2570   -1.6600 ca        1 ZO0      0.410600
      8 C7          0.5230    4.2980   -2.0570 ca        1 ZO0     -0.169300
      9 C8          0.9870    5.3620   -2.7920 ca        1 ZO0     -0.105000
     10 C9          2.3480    5.4480   -3.1610 ca        1 ZO0     -0.131000
     11 C10         3.2330    4.4580   -2.8000 ca        1 ZO0     -0.086000
     12 C5          2.7920    3.3390   -2.0570 ca        1 ZO0     -0.240600
     13 C4          3.6620    2.2450   -1.6330 ca        1 ZO0      0.672200
     14 N3          3.1830    1.2290   -0.8960 nb        1 ZO0     -0.722000
     15 N15         5.0480    2.3100   -2.0000 nh        1 ZO0     -0.735300
     16 C16         5.9710    1.7320   -1.0280 c3        1 ZO0      0.179800
     17 C17         7.3780    2.3150   -1.1330 c3        1 ZO0     -0.107400
     18 C18         8.2780    1.5880   -2.1280 c3        1 ZO0      0.175800
     19 N19         7.7370    1.2710   -3.4360 n3        1 ZO0     -0.752600
     20 C22         7.5020   -0.1360   -3.6590 c3        1 ZO0      0.162100
     21 C20         6.6850    2.1370   -3.9080 c3        1 ZO0      0.182800
     22 C21         5.2580    1.8860   -3.3800 c3        1 ZO0      0.136800
     23 H7         -0.5360    4.2320   -1.7610 ha        1 ZO0      0.160000
     24 H8          0.2980    6.1650   -3.0980 ha        1 ZO0      0.143000
     25 H9          2.6930    6.3190   -3.7380 ha        1 ZO0      0.142000
     26 H10         4.2960    4.5420   -3.0800 ha        1 ZO0      0.156000
     27 H161        5.5820    1.9690    0.0040 h1        1 ZO0      0.053700
     28 H162        6.0240    0.6090   -1.1230 h1        1 ZO0      0.053700
     29 H211        5.0070    0.7920   -3.5120 h1        1 ZO0      0.047700
     30 H212        4.5500    2.4800   -4.0260 h1        1 ZO0      0.047700
     31 H171        7.3340    3.4060   -1.3880 hc        1 ZO0      0.056200
     32 H172        7.8560    2.2320   -0.1210 hc        1 ZO0      0.056200
     33 H181        8.6500    0.6410   -1.6410 h1        1 ZO0      0.046200
     34 H182        9.1780    2.2440   -2.3140 h1        1 ZO0      0.046200
     35 H221        8.4780   -0.6800   -3.5510 h1        1 ZO0      0.032700
     36 H222        7.1220   -0.2870   -4.7030 h1        1 ZO0      0.032700
     37 H223        6.7630   -0.5900   -2.9420 h1        1 ZO0      0.032700
     38 H201        6.6280    2.0060   -5.0280 h1        1 ZO0      0.059700
     39 H202        6.9830    3.2020   -3.6960 h1        1 ZO0      0.059700
@<TRIPOS>BOND
     1    1    2 1   
     2    2    3 1   
     3    2    4 1   
     4    2    5 1   
     5    5    6 ar  
     6    5   14 ar  
     7    6    7 ar  
     8    7    8 ar  
     9    7   12 ar  
    10    8    9 ar  
    11    8   23 1   
    12    9   10 ar  
    13    9   24 1   
    14   10   11 ar  
    15   10   25 1   
    16   11   12 ar  
    17   11   26 1   
    18   12   13 ar  
    19   13   14 ar  
    20   13   15 1   
    21   15   16 1   
    22   15   22 1   
    23   16   17 1   
    24   16   27 1   
    25   16   28 1   
    26   17   18 1   
    27   17   31 1   
    28   17   32 1   
    29   18   19 1   
    30   18   33 1   
    31   18   34 1   
    32   19   20 1   
    33   19   21 1   
    34   20   35 1   
    35   20   36 1   
    36   20   37 1   
    37   21   22 1   
    38   21   38 1   
    39   21   39 1   
    40   22   29 1   
    41   22   30 1   
@<TRIPOS>SUBSTRUCTURE
     1 ZO0         1 TEMP              0 ****  ****    0 ROOT
