@<TRIPOS>MOLECULE
ZO0
   39    41     1     0     0
SMALL
bcc


@<TRIPOS>ATOM
      1 F13         0.0530    0.0810    0.6860 f         1 ZO0     -0.221633
      2 C11         1.3690    0.0620    0.3110 c3        1 ZO0      0.617600
      3 F14         2.0610   -0.0500    1.4880 f         1 ZO0     -0.221633
      4 F12         1.5300   -1.1390   -0.3260 f         1 ZO0     -0.221633
      5 C2          1.8420    1.2750   -0.5570 ca        1 ZO0      0.592300
      6 N1          0.9480    2.2030   -0.8950 nb        1 ZO0     -0.644000
      7 C6          1.4210    3.2570   -1.6570 ca        1 ZO0      0.410600
      8 C7          0.5240    4.2990   -2.0520 ca        1 ZO0     -0.169300
      9 C8          0.9870    5.3630   -2.7860 ca        1 ZO0     -0.105000
     10 C9          2.3480    5.4490   -3.1560 ca        1 ZO0     -0.131000
     11 C10         3.2330    4.4590   -2.7970 ca        1 ZO0     -0.086000
     12 C5          2.7920    3.3390   -2.0540 ca        1 ZO0     -0.240600
     13 C4          3.6630    2.2450   -1.6330 ca        1 ZO0      0.672200
     14 N3          3.1830    1.2280   -0.8960 nb        1 ZO0     -0.722000
     15 N15         5.0480    2.3100   -2.0010 nh        1 ZO0     -0.735300
     16 C16         5.9720    1.7310   -1.0300 c3        1 ZO0      0.179800
     17 C17         7.3790    2.3130   -1.1350 c3        1 ZO0     -0.107400
     18 C18         8.2770    1.5870   -2.1310 c3        1 ZO0      0.175800
     19 N19         7.7360    1.2710   -3.4390 n3        1 ZO0     -0.752600
     20 C22         7.5010   -0.1360   -3.6630 c3        1 ZO0      0.162100
     21 C20         6.6840    2.1380   -3.9100 c3        1 ZO0      0.182800
     22 C21         5.2560    1.8870   -3.3810 c3        1 ZO0      0.136800
     23 H7         -0.5350    4.2330   -1.7550 ha        1 ZO0      0.160000
     24 H8          0.2980    6.1670   -3.0910 ha        1 ZO0      0.143000
     25 H9          2.6920    6.3220   -3.7320 ha        1 ZO0      0.142000
     26 H10         4.2960    4.5430   -3.0780 ha        1 ZO0      0.156000
     27 H161        5.5830    1.9670    0.0030 h1        1 ZO0      0.053700
     28 H162        6.0250    0.6080   -1.1250 h1        1 ZO0      0.053700
     29 H211        4.5480    2.4820   -4.0260 h1        1 ZO0      0.047700
     30 H212        5.0050    0.7930   -3.5130 h1        1 ZO0      0.047700
     31 H171        7.8570    2.2290   -0.1230 hc        1 ZO0      0.056200
     32 H172        7.3350    3.4050   -1.3890 hc        1 ZO0      0.056200
     33 H181        9.1780    2.2430   -2.3180 h1        1 ZO0      0.046200
     34 H182        8.6500    0.6390   -1.6450 h1        1 ZO0      0.046200
     35 H221        7.1200   -0.2850   -4.7070 h1        1 ZO0      0.032700
     36 H222        6.7620   -0.5900   -2.9460 h1        1 ZO0      0.032700
     37 H223        8.4760   -0.6800   -3.5560 h1        1 ZO0      0.032700
     38 H201        6.6250    2.0080   -5.0300 h1        1 ZO0      0.059700
     39 H202        6.9820    3.2030   -3.6970 h1        1 ZO0      0.059700
@<TRIPOS>BOND
     1    1    2 1   
     2    2    3 1   
     3    2    4 1   
     4    2    5 1   
     5    5    6 ar  
     6    5   14 ar  
     7    6    7 ar  
     8    7    8 ar  
     9    7   12 ar  
    10    8    9 ar  
    11    8   23 1   
    12    9   10 ar  
    13    9   24 1   
    14   10   11 ar  
    15   10   25 1   
    16   11   12 ar  
    17   11   26 1   
    18   12   13 ar  
    19   13   14 ar  
    20   13   15 1   
    21   15   16 1   
    22   15   22 1   
    23   16   17 1   
    24   16   27 1   
    25   16   28 1   
    26   17   18 1   
    27   17   31 1   
    28   17   32 1   
    29   18   19 1   
    30   18   33 1   
    31   18   34 1   
    32   19   20 1   
    33   19   21 1   
    34   20   35 1   
    35   20   36 1   
    36   20   37 1   
    37   21   22 1   
    38   21   38 1   
    39   21   39 1   
    40   22   29 1   
    41   22   30 1   
@<TRIPOS>SUBSTRUCTURE
     1 ZO0         1 TEMP              0 ****  ****    0 ROOT
