@<TRIPOS>MOLECULE
ZO0
   39    41     1     0     0
SMALL
bcc


@<TRIPOS>ATOM
      1 F13        -4.0730   -2.1930    0.1550 f         1 ZO0     -0.221633
      2 C11        -2.7090   -2.2050    0.2630 c3        1 ZO0      0.617600
      3 F14        -2.4650   -2.8030    1.4700 f         1 ZO0     -0.221633
      4 F12        -2.2950   -3.1030   -0.6830 f         1 ZO0     -0.221633
      5 C2         -2.0080   -0.8140    0.1220 ca        1 ZO0      0.592300
      6 N1         -2.7610    0.2570   -0.1220 nb        1 ZO0     -0.644000
      7 C6         -2.0910    1.4640   -0.2310 ca        1 ZO0      0.410600
      8 C7         -2.8310    2.6610   -0.4830 ca        1 ZO0     -0.169300
      9 C8         -2.1790    3.8680   -0.5670 ca        1 ZO0     -0.105000
     10 C9         -0.7790    3.9460   -0.4000 ca        1 ZO0     -0.131000
     11 C10        -0.0380    2.8100   -0.1640 ca        1 ZO0     -0.086000
     12 C5         -0.6700    1.5480   -0.0860 ca        1 ZO0     -0.240600
     13 C4          0.0380    0.2940    0.1610 ca        1 ZO0      0.672200
     14 N3         -0.6310   -0.8670    0.2590 nb        1 ZO0     -0.722000
     15 N15         1.4620    0.3500    0.3290 nh        1 ZO0     -0.735300
     16 C16         2.0120   -0.6290    1.2610 c3        1 ZO0      0.179800
     17 C17         3.3480   -0.1900    1.8570 c3        1 ZO0     -0.107400
     18 C18         4.5600   -0.5930    1.0230 c3        1 ZO0      0.175800
     19 N19         4.5170   -0.3590   -0.4070 n3        1 ZO0     -0.752600
     20 C22         4.4220   -1.5590   -1.2050 c3        1 ZO0      0.162100
     21 C20         3.6630    0.7190   -0.8420 c3        1 ZO0      0.182800
     22 C21         2.1500    0.4360   -0.9550 c3        1 ZO0      0.136800
     23 H7         -3.9240    2.5980   -0.6040 ha        1 ZO0      0.160000
     24 H8         -2.7480    4.7910   -0.7600 ha        1 ZO0      0.143000
     25 H9         -0.2860    4.9290   -0.4590 ha        1 ZO0      0.142000
     26 H10         1.0520    2.8850   -0.0210 ha        1 ZO0      0.156000
     27 H161        1.2820   -0.7450    2.1130 h1        1 ZO0      0.053700
     28 H162        2.1340   -1.6410    0.7770 h1        1 ZO0      0.053700
     29 H211        1.9990   -0.5040   -1.5610 h1        1 ZO0      0.047700
     30 H212        1.6890    1.2920   -1.5270 h1        1 ZO0      0.047700
     31 H171        3.3560    0.9170    2.0300 hc        1 ZO0      0.056200
     32 H172        3.4480   -0.6820    2.8610 hc        1 ZO0      0.056200
     33 H181        5.4460   -0.0060    1.4080 h1        1 ZO0      0.046200
     34 H182        4.7740   -1.6840    1.2140 h1        1 ZO0      0.046200
     35 H221        3.4980   -2.1660   -1.0000 h1        1 ZO0      0.032700
     36 H222        4.4320   -1.2820   -2.2920 h1        1 ZO0      0.032700
     37 H223        5.3190   -2.1990   -0.9900 h1        1 ZO0      0.032700
     38 H201        3.8320    1.6000   -0.1610 h1        1 ZO0      0.059700
     39 H202        4.0010    1.0090   -1.8800 h1        1 ZO0      0.059700
@<TRIPOS>BOND
     1    1    2 1   
     2    2    3 1   
     3    2    4 1   
     4    2    5 1   
     5    5    6 ar  
     6    5   14 ar  
     7    6    7 ar  
     8    7    8 ar  
     9    7   12 ar  
    10    8    9 ar  
    11    8   23 1   
    12    9   10 ar  
    13    9   24 1   
    14   10   11 ar  
    15   10   25 1   
    16   11   12 ar  
    17   11   26 1   
    18   12   13 ar  
    19   13   14 ar  
    20   13   15 1   
    21   15   16 1   
    22   15   22 1   
    23   16   17 1   
    24   16   27 1   
    25   16   28 1   
    26   17   18 1   
    27   17   31 1   
    28   17   32 1   
    29   18   19 1   
    30   18   33 1   
    31   18   34 1   
    32   19   20 1   
    33   19   21 1   
    34   20   35 1   
    35   20   36 1   
    36   20   37 1   
    37   21   22 1   
    38   21   38 1   
    39   21   39 1   
    40   22   29 1   
    41   22   30 1   
@<TRIPOS>SUBSTRUCTURE
     1 ZO0         1 TEMP              0 ****  ****    0 ROOT
