@<TRIPOS>MOLECULE
ZO6
   19    21     1     0     0
SMALL
bcc


@<TRIPOS>ATOM
      1 C9         -2.7700    0.9980   -0.0000 cc        1 ZO6     -0.221800
      2 C8         -3.1870   -0.3070   -0.0000 cd        1 ZO6     -0.177400
      3 S          -1.9180   -1.4050   -0.0000 ss        1 ZO6      0.107500
      4 C7         -0.7420   -0.2160   -0.0000 ca        1 ZO6     -0.199400
      5 C           0.6720   -0.3240   -0.0000 ca        1 ZO6     -0.091300
      6 C6         -1.3270    1.0840   -0.0000 ca        1 ZO6      0.398100
      7 N1         -0.5940    2.2520   -0.0000 nb        1 ZO6     -0.612000
      8 C5          0.7160    2.1350   -0.0000 ca        1 ZO6      0.415200
      9 C4          1.4270    0.8770   -0.0000 ca        1 ZO6     -0.128300
     10 C3          2.8360    0.7890   -0.0000 ca        1 ZO6     -0.210300
     11 C2          3.4250   -0.4710    0.0000 ca        1 ZO6      0.380200
     12 N           2.7170   -1.6370    0.0000 nb        1 ZO6     -0.647000
     13 C1          1.3910   -1.5590    0.0000 ca        1 ZO6      0.407200
     14 H9         -3.4130    1.8810   -0.0010 ha        1 ZO6      0.172000
     15 H8         -4.2260   -0.6360   -0.0000 h4        1 ZO6      0.177000
     16 H1          0.8390   -2.5170    0.0000 h4        1 ZO6      0.026100
     17 H5          1.2980    3.0750   -0.0000 h4        1 ZO6      0.027100
     18 H3          3.4470    1.7010   -0.0000 ha        1 ZO6      0.148000
     19 H2          4.5230   -0.5930    0.0000 h4        1 ZO6      0.027100
@<TRIPOS>BOND
     1    1    2 2   
     2    1    6 1   
     3    1   14 1   
     4    2    3 1   
     5    2   15 1   
     6    3    4 1   
     7    4    5 ar  
     8    4    6 ar  
     9    5    9 ar  
    10    5   13 ar  
    11    6    7 ar  
    12    7    8 ar  
    13    8    9 ar  
    14    8   17 1   
    15    9   10 ar  
    16   10   11 ar  
    17   10   18 1   
    18   11   12 ar  
    19   11   19 1   
    20   12   13 ar  
    21   13   16 1   
@<TRIPOS>SUBSTRUCTURE
     1 ZO6         1 TEMP              0 ****  ****    0 ROOT
