@<TRIPOS>MOLECULE
ZO8
   19    21     1     0     0
SMALL
bcc


@<TRIPOS>ATOM
      1 CAO         0.8450    0.4680   -0.0000 ca        1 ZO8      0.057000
      2 CAN         1.4140   -0.8330   -0.0000 ca        1 ZO8     -0.288600
      3 CAH         2.8340   -0.9450    0.0010 ca        1 ZO8      0.438200
      4 CAF         3.0910    1.3460    0.0010 ca        1 ZO8      0.404200
      5 CAL         1.7210    1.5790    0.0000 ca        1 ZO8     -0.239300
      6 CAC        -2.7530    1.3430   -0.0020 cc        1 ZO8     -0.194400
      7 CAG        -1.4280    1.7040   -0.0010 cd        1 ZO8     -0.111200
      8 CAM        -0.5760    0.5550   -0.0010 ca        1 ZO8     -0.190100
      9 CAJ        -1.3340   -0.6510   -0.0010 ca        1 ZO8      0.369600
     10 NAC        -0.7780   -1.9090   -0.0010 nb        1 ZO8     -0.626000
     11 SAK        -2.9880   -0.3140   -0.0020 ss        1 ZO8      0.046100
     12 CAK         0.5380   -1.9770   -0.0010 ca        1 ZO8      0.442200
     13 N           3.6530    0.1030    0.0010 nb        1 ZO8     -0.669000
     14 HAL         1.3170    2.5990    0.0000 ha        1 ZO8      0.148000
     15 HAH         3.3080   -1.9440    0.0010 h4        1 ZO8      0.026100
     16 HAK         0.9800   -2.9910   -0.0010 h4        1 ZO8      0.028100
     17 HAF         3.8140    2.1820    0.0010 h4        1 ZO8      0.025100
     18 HAC        -3.5920    2.0390   -0.0020 h4        1 ZO8      0.176000
     19 HAG        -1.0480    2.7280   -0.0010 ha        1 ZO8      0.158000
@<TRIPOS>BOND
     1    1    2 ar  
     2    1    5 ar  
     3    1    8 ar  
     4    2    3 ar  
     5    2   12 ar  
     6    3   13 ar  
     7    3   15 1   
     8    4    5 ar  
     9    4   13 ar  
    10    4   17 1   
    11    5   14 1   
    12    6    7 2   
    13    6   11 1   
    14    6   18 1   
    15    7    8 1   
    16    7   19 1   
    17    8    9 ar  
    18    9   10 ar  
    19    9   11 1   
    20   10   12 ar  
    21   12   16 1   
@<TRIPOS>SUBSTRUCTURE
     1 ZO8         1 TEMP              0 ****  ****    0 ROOT
