@<TRIPOS>MOLECULE
ZO8
   19    13     1     0     0
SMALL
bcc


@<TRIPOS>ATOM
      1 CAO         0.0620   -0.0040    0.4260 c1        1 ZO8      0.057000
      2 CAN         1.4150   -0.0040    0.4260 c1        1 ZO8     -0.158000
      3 CAH         2.1170   -0.0040    1.6460 c1        1 ZO8     -0.025000
      4 CAF         0.0660   -0.0040    2.8300 c1        1 ZO8     -0.061000
      5 CAL        -0.6300   -0.0040    1.6290 c1        1 ZO8     -0.174000
      6 CAC        -2.3700   -0.0000   -2.5420 c1        1 ZO8     -0.435000
      7 CAG        -2.2050   -0.0020   -1.1060 c1        1 ZO8     -0.123000
      8 CAM        -0.6320   -0.0030   -0.7780 c1        1 ZO8     -0.113000
      9 CAJ         0.0870   -0.0030   -2.0150 c1        1 ZO8     -0.286000
     10 NAC         1.4490   -0.0030   -2.0100 n1        1 ZO8     -0.100000
     11 SAK        -0.9620   -0.0010   -3.1810 s         1 ZO8      0.614000
     12 CAK         2.1340   -0.0030   -0.8180 c1        1 ZO8     -0.025000
     13 N           1.4340   -0.0040    2.8280 n1        1 ZO8     -0.143000
     14 HAL        -1.6060   -0.0040    1.6310 ha        1 ZO8      0.148000
     15 HAH         3.0940   -0.0040    1.6460 ha        1 ZO8      0.164000
     16 HAK         3.1100   -0.0030   -0.8170 ha        1 ZO8      0.164000
     17 HAF        -0.4200   -0.0040    3.6760 ha        1 ZO8      0.162000
     18 HAC        -3.2180    0.0540   -3.0230 DU        1 ZO8      0.167000
     19 HAG        -2.9260   -0.0010   -0.4480 DU        1 ZO8      0.167000
@<TRIPOS>BOND
     1    1    5 1   
     2    1    8 1   
     3    2    3 1   
     4    2   12 1   
     5    3   15 1   
     6    4   13 1   
     7    4   17 1   
     8    5   14 1   
     9    6    7 1   
    10    6   11 1   
    11    7    8 1   
    12    9   10 1   
    13   12   16 1   
@<TRIPOS>SUBSTRUCTURE
     1 ZO8         1 TEMP              0 ****  ****    0 ROOT
