@<TRIPOS>MOLECULE
ZO9
   32    35     1     0     0
SMALL
bcc


@<TRIPOS>ATOM
      1 C          -3.9300    1.7700   -0.1500 ca        1 ZO9     -0.149000
      2 N          -0.1940    1.7530   -0.4790 nc        1 ZO9     -0.576100
      3 O           3.8880   -0.3280   -0.4150 os        1 ZO9      0.126600
      4 C1         -4.0760    0.4550    0.3330 ca        1 ZO9     -0.109000
      5 N1         -0.4260   -0.4030    0.3230 na        1 ZO9     -0.132300
      6 C2         -2.9860   -0.3760    0.5300 ca        1 ZO9     -0.129000
      7 N2          2.6090   -0.6600   -0.3650 nc        1 ZO9     -0.320300
      8 C3         -1.7160    0.1380    0.2290 ca        1 ZO9     -0.065200
      9 N3          4.1140    0.9890   -0.3090 nc        1 ZO9     -0.436300
     10 C4         -1.5560    1.4940   -0.2680 ca        1 ZO9      0.068400
     11 N4          2.6230    2.9080    0.0930 nh        1 ZO9     -0.912500
     12 C5         -2.6890    2.3030   -0.4530 ca        1 ZO9     -0.069000
     13 C6          0.4530    0.6130   -0.1320 cd        1 ZO9      0.373800
     14 C7         -0.1180   -1.7440    0.7340 c3        1 ZO9      0.074300
     15 C8         -0.0490   -2.7570   -0.3820 cx        1 ZO9     -0.151700
     16 C9         -0.2570   -4.2050   -0.0210 cx        1 ZO9     -0.124900
     17 C10        -1.2980   -3.4770   -0.8180 cx        1 ZO9     -0.124900
     18 C11         1.8950    0.4650   -0.2060 cd        1 ZO9      0.186700
     19 C12         2.8960    1.5900   -0.1610 cd        1 ZO9      0.497900
     20 H          -4.8320    2.3860   -0.2880 ha        1 ZO9      0.136000
     21 H1         -5.0870    0.0820    0.5580 ha        1 ZO9      0.135000
     22 H2         -3.1080   -1.4020    0.9030 ha        1 ZO9      0.138000
     23 HN4         3.3510    3.5600   -0.0960 hn        1 ZO9      0.438800
     24 HN4A        1.6990    3.2150   -0.1130 hn        1 ZO9      0.438800
     25 H5         -2.5810    3.3300   -0.8290 ha        1 ZO9      0.147000
     26 H7          0.8720   -1.7350    1.2760 h1        1 ZO9      0.069700
     27 H7A        -0.9140   -2.0560    1.4730 h1        1 ZO9      0.069700
     28 H8          0.7090   -2.5130   -1.1530 hc        1 ZO9      0.103700
     29 H9          0.3700   -4.9670   -0.5180 hc        1 ZO9      0.073950
     30 H9A        -0.4730   -4.4710    1.0290 hc        1 ZO9      0.073950
     31 H10        -2.2590   -3.2210   -0.3380 hc        1 ZO9      0.073950
     32 H10A       -1.4250   -3.7170   -1.8890 hc        1 ZO9      0.073950
@<TRIPOS>BOND
     1    1    4 ar  
     2    1   12 ar  
     3    1   20 1   
     4    2   10 1   
     5    2   13 2   
     6    3    7 1   
     7    3    9 1   
     8    4    6 ar  
     9    4   21 1   
    10    5    8 1   
    11    5   13 1   
    12    5   14 1   
    13    6    8 ar  
    14    6   22 1   
    15    7   18 2   
    16    8   10 ar  
    17    9   19 2   
    18   10   12 ar  
    19   11   19 1   
    20   11   23 1   
    21   11   24 1   
    22   12   25 1   
    23   13   18 1   
    24   14   15 1   
    25   14   26 1   
    26   14   27 1   
    27   15   16 1   
    28   15   17 1   
    29   15   28 1   
    30   16   17 1   
    31   16   29 1   
    32   16   30 1   
    33   17   31 1   
    34   17   32 1   
    35   18   19 1   
@<TRIPOS>SUBSTRUCTURE
     1 ZO9         1 TEMP              0 ****  ****    0 ROOT
