@<TRIPOS>MOLECULE
ZO9
   32    35     1     0     0
SMALL
bcc


@<TRIPOS>ATOM
      1 C           0.1060    0.0590    0.1210 ca        1 ZO9     -0.149000
      2 N          -0.3740    0.3100    3.8320 nc        1 ZO9     -0.576100
      3 O           1.1910    0.6830    8.1230 os        1 ZO9      0.126600
      4 C1          1.5080   -0.0810    0.1280 ca        1 ZO9     -0.109000
      5 N1          1.9250    0.0700    3.8510 na        1 ZO9     -0.132300
      6 C2          2.2360   -0.0860    1.3060 ca        1 ZO9     -0.129000
      7 N2          1.6650    0.7420    6.8900 nc        1 ZO9     -0.320300
      8 C3          1.5250    0.0530    2.5080 ca        1 ZO9     -0.065200
      9 N3         -0.0750    0.2510    8.2000 nc        1 ZO9     -0.436300
     10 C4          0.0790    0.1950    2.5100 ca        1 ZO9      0.068400
     11 N4         -1.6570   -0.5840    6.5060 nv        1 ZO9     -0.912500
     12 C5         -0.6200    0.1960    1.2910 ca        1 ZO9     -0.069000
     13 C6          0.7380    0.2430    4.6060 cd        1 ZO9      0.373800
     14 C7          3.2840   -0.0010    4.3120 c3        1 ZO9      0.074300
     15 C8          3.9740    1.3300    4.4840 cx        1 ZO9     -0.151700
     16 C9          5.4800    1.3430    4.4430 cx        1 ZO9     -0.124900
     17 C10         4.6970    1.9550    3.3210 cx        1 ZO9     -0.124900
     18 C11         0.7010    0.3230    6.0550 cd        1 ZO9      0.186700
     19 C12        -0.4820   -0.0170    6.9240 cd        1 ZO9      0.497900
     20 H          -0.4200    0.0580   -0.8460 ha        1 ZO9      0.136000
     21 H1          2.0360   -0.1860   -0.8320 ha        1 ZO9      0.135000
     22 H2          3.3290   -0.1910    1.3030 ha        1 ZO9      0.138000
     23 HN4        -1.9010   -0.4430    5.5520 hn        1 ZO9      0.438800
     24 HN4A       -2.4120   -0.5760    7.1540 hn        1 ZO9      0.438800
     25 H5         -1.7130    0.3040    1.2800 ha        1 ZO9      0.147000
     26 H7          3.8560   -0.6240    3.5620 h1        1 ZO9      0.069700
     27 H7A         3.3000   -0.5470    5.2990 h1        1 ZO9      0.069700
     28 H8          3.4640    2.0010    5.2030 hc        1 ZO9      0.103700
     29 H9          6.0210    0.3960    4.2670 hc        1 ZO9      0.073950
     30 H9A         6.0210    2.0000    5.1470 hc        1 ZO9      0.073950
     31 H10         4.6760    3.0540    3.2120 hc        1 ZO9      0.073950
     32 H10A        4.6760    1.4450    2.3410 hc        1 ZO9      0.073950
@<TRIPOS>BOND
     1    1    4 ar  
     2    1   12 ar  
     3    1   20 1   
     4    2   10 1   
     5    2   13 2   
     6    3    7 1   
     7    3    9 1   
     8    4    6 ar  
     9    4   21 1   
    10    5    8 1   
    11    5   13 1   
    12    5   14 1   
    13    6    8 ar  
    14    6   22 1   
    15    7   18 2   
    16    8   10 ar  
    17    9   19 2   
    18   10   12 ar  
    19   11   19 1   
    20   11   23 1   
    21   11   24 1   
    22   12   25 1   
    23   13   18 1   
    24   14   15 1   
    25   14   26 1   
    26   14   27 1   
    27   15   16 1   
    28   15   17 1   
    29   15   28 1   
    30   16   17 1   
    31   16   29 1   
    32   16   30 1   
    33   17   31 1   
    34   17   32 1   
    35   18   19 1   
@<TRIPOS>SUBSTRUCTURE
     1 ZO9         1 TEMP              0 ****  ****    0 ROOT
