@<TRIPOS>MOLECULE
ZOE
   52    53     1     0     0
SMALL
bcc


@<TRIPOS>ATOM
      1 OAD        -0.2350    0.0170   -0.6430 o         1 ZOE     -0.497200
      2 SAY         1.2270   -0.2150   -0.5050 s4        1 ZOE      0.261600
      3 CAO         1.4900   -0.6660    1.1720 c3        1 ZOE     -0.093100
      4 CAV         2.5100   -1.7930    1.2130 c3        1 ZOE      0.081700
      5 NAQ         3.8860   -1.3230    1.3610 n         1 ZOE     -0.535900
      6 CAU         4.6850   -1.8590    0.3120 c         1 ZOE      0.748500
      7 OAC         5.9090   -1.6810    0.1970 o         1 ZOE     -0.611500
      8 NAR         3.8920   -2.6310   -0.5860 n         1 ZOE     -0.521900
      9 CAX         2.4910   -2.5650   -0.1820 c3        1 ZOE      0.079700
     10 CAW         1.5000   -1.8720   -1.1140 c3        1 ZOE     -0.078400
     11 CAN         1.9030   -1.8370   -2.5700 c3        1 ZOE     -0.055400
     12 CAJ         0.7090   -1.5310   -3.4560 c3        1 ZOE     -0.094400
     13 CAI         1.1520   -1.2530   -4.8770 c3        1 ZOE     -0.076400
     14 CAM        -0.0560   -1.0880   -5.7780 c3        1 ZOE     -0.166400
     15 CAT         0.3620   -0.5950   -7.1390 c         1 ZOE      0.554100
     16 OAB         1.2280    0.2430   -7.3770 o         1 ZOE     -0.482100
     17 NAP        -0.3790   -1.1970   -8.2670 n4        1 ZOE     -0.719800
     18 CAK         0.0030   -0.7340   -9.6240 c3        1 ZOE      0.129800
     19 CAG        -1.0000   -1.1770  -10.6880 c3        1 ZOE     -0.108400
     20 CAF        -0.9030   -2.6500  -11.0460 c3        1 ZOE     -0.087400
     21 CAH        -2.2700   -3.2880  -11.2490 c3        1 ZOE     -0.060400
     22 CAL        -2.8110   -3.9830  -10.0110 c3        1 ZOE     -0.168400
     23 CAS        -2.4260   -3.2260   -8.7590 c         1 ZOE      0.905600
     24 OAA        -1.4760   -3.6620   -8.0220 o         1 ZOE     -0.865800
     25 OAE        -2.9550   -2.0990   -8.4870 o         1 ZOE     -0.865800
     26 H2          0.5450   -1.0010    1.6680 h1        1 ZOE      0.106700
     27 H3          1.8440    0.2310    1.7390 h1        1 ZOE      0.106700
     28 H4          2.2410   -2.5140    2.0350 h1        1 ZOE      0.066700
     29 H5          4.2770   -1.3190    2.2740 hn        1 ZOE      0.319500
     30 H6          4.1070   -2.5600   -1.5530 hn        1 ZOE      0.315500
     31 H7          2.1540   -3.6270   -0.0140 h1        1 ZOE      0.085700
     32 H8          0.5320   -2.4430   -1.0430 h1        1 ZOE      0.110700
     33 H9          2.3270   -2.8320   -2.8750 hc        1 ZOE      0.049200
     34 H10         2.7030   -1.0660   -2.7330 hc        1 ZOE      0.049200
     35 H11         0.1460   -0.6470   -3.0510 hc        1 ZOE      0.065200
     36 H12         0.0020   -2.4030   -3.4430 hc        1 ZOE      0.065200
     37 H13         1.7860   -2.1000   -5.2500 hc        1 ZOE      0.057700
     38 H14         1.7800   -0.3230   -4.9090 hc        1 ZOE      0.057700
     39 H15        -0.7590   -0.3200   -5.3510 hc        1 ZOE      0.114200
     40 H16        -0.6220   -2.0610   -5.8480 hc        1 ZOE      0.114200
     41 H17        -1.4210   -1.0600   -8.1210 hn        1 ZOE      0.516300
     42 H18         1.0280   -1.1350   -9.8540 hx        1 ZOE      0.080700
     43 H19         0.0600    0.3920   -9.6030 hx        1 ZOE      0.080700
     44 H20        -2.0460   -0.9410  -10.3390 hc        1 ZOE      0.080700
     45 H21        -0.8020   -0.5530  -11.5990 hc        1 ZOE      0.080700
     46 H22        -0.3510   -3.2190  -10.2510 hc        1 ZOE      0.047200
     47 H23        -0.3060   -2.7530  -11.9910 hc        1 ZOE      0.047200
     48 H24        -3.0030   -2.5060  -11.5830 hc        1 ZOE      0.040700
     49 H25        -2.1960   -4.0440  -12.0750 hc        1 ZOE      0.040700
     50 H26        -3.9260   -4.0540  -10.0770 hc        1 ZOE      0.056700
     51 H27        -2.3950   -5.0220   -9.9440 hc        1 ZOE      0.056700
     52 HAP2       -0.2810   -2.2500   -8.2090 hn        1 ZOE      0.516300
@<TRIPOS>BOND
     1    1    2 2   
     2    2    3 1   
     3    2   10 1   
     4    3    4 1   
     5    3   26 1   
     6    3   27 1   
     7    4    5 1   
     8    4    9 1   
     9    4   28 1   
    10    5    6 1   
    11    5   29 1   
    12    6    7 2   
    13    6    8 1   
    14    8    9 1   
    15    8   30 1   
    16    9   10 1   
    17    9   31 1   
    18   10   11 1   
    19   10   32 1   
    20   11   12 1   
    21   11   33 1   
    22   11   34 1   
    23   12   13 1   
    24   12   35 1   
    25   12   36 1   
    26   13   14 1   
    27   13   37 1   
    28   13   38 1   
    29   14   15 1   
    30   14   39 1   
    31   14   40 1   
    32   15   16 2   
    33   15   17 1   
    34   17   18 1   
    35   17   41 1   
    36   17   52 1   
    37   18   19 1   
    38   18   42 1   
    39   18   43 1   
    40   19   20 1   
    41   19   44 1   
    42   19   45 1   
    43   20   21 1   
    44   20   46 1   
    45   20   47 1   
    46   21   22 1   
    47   21   48 1   
    48   21   49 1   
    49   22   23 1   
    50   22   50 1   
    51   22   51 1   
    52   23   24 1   
    53   23   25 1   
@<TRIPOS>SUBSTRUCTURE
     1 ZOE         1 TEMP              0 ****  ****    0 ROOT
