@<TRIPOS>MOLECULE
ZOE
   52    53     1     0     0
SMALL
bcc


@<TRIPOS>ATOM
      1 OAD        -0.7350   -0.6030   -0.7380 o         1 ZOE     -0.499200
      2 SAY         0.7480   -0.5040   -0.6810 s4        1 ZOE      0.266600
      3 CAO         1.1810   -1.0000    0.9470 c3        1 ZOE     -0.096100
      4 CAV         2.3560   -1.9620    0.8840 c3        1 ZOE      0.083700
      5 NAQ         3.6540   -1.3110    1.0650 ns        1 ZOE     -0.536900
      6 CAU         4.5110   -1.6590   -0.0170 c         1 ZOE      0.748500
      7 OAC         5.7000   -1.3120   -0.1110 o         1 ZOE     -0.614500
      8 NAR         3.8240   -2.4670   -0.9690 ns        1 ZOE     -0.518900
      9 CAX         2.4290   -2.6160   -0.5660 c3        1 ZOE      0.080700
     10 CAW         1.3450   -2.0010   -1.4490 c3        1 ZOE     -0.077400
     11 CAN         1.7640   -1.7110   -2.8720 c3        1 ZOE     -0.059400
     12 CAJ         0.5640   -1.4020   -3.7480 c3        1 ZOE     -0.089400
     13 CAI         1.0020   -0.9880   -5.1360 c3        1 ZOE     -0.072400
     14 CAM        -0.1970   -0.6600   -6.0000 c3        1 ZOE     -0.154400
     15 CAT         0.2570   -0.1860   -7.3710 c         1 ZOE      0.650100
     16 OAB         0.4270    1.0260   -7.6120 o         1 ZOE     -0.617100
     17 NAP         0.5260   -1.1600   -8.3150 ns        1 ZOE     -0.562900
     18 CAK         0.8290   -0.8410   -9.6810 c3        1 ZOE      0.085000
     19 CAG        -0.3450   -0.9170  -10.6620 c3        1 ZOE     -0.107400
     20 CAF        -1.0510   -2.2570  -10.6520 c3        1 ZOE     -0.081400
     21 CAH        -2.3240   -2.2230   -9.8300 c3        1 ZOE     -0.081400
     22 CAL        -2.8110   -3.6130   -9.4790 c3        1 ZOE     -0.129400
     23 CAS        -2.0250   -4.2140   -8.3590 c         1 ZOE      0.645100
     24 OAA        -2.3060   -5.5280   -8.1350 oh        1 ZOE     -0.604100
     25 OAE        -1.1820   -3.7000   -7.6140 o         1 ZOE     -0.579000
     26 H2          1.4290   -0.0870    1.5450 h1        1 ZOE      0.104700
     27 H3          0.3240   -1.4960    1.4680 h1        1 ZOE      0.104700
     28 H4          2.2120   -2.7790    1.6460 h1        1 ZOE      0.062700
     29 H5          4.0460   -1.3060    1.9760 hn        1 ZOE      0.318500
     30 H6          4.0190   -2.2910   -1.9280 hn        1 ZOE      0.315500
     31 H7          2.2390   -3.7240   -0.4790 h1        1 ZOE      0.081700
     32 H8          0.4960   -2.7400   -1.4920 h1        1 ZOE      0.107700
     33 H9          2.2980   -2.6020   -3.3020 hc        1 ZOE      0.048700
     34 H10         2.4790   -0.8450   -2.8990 hc        1 ZOE      0.048700
     35 H11        -0.0960   -2.3070   -3.8130 hc        1 ZOE      0.054200
     36 H12        -0.0490   -0.5840   -3.2810 hc        1 ZOE      0.054200
     37 H13         1.6730   -0.0910   -5.0740 hc        1 ZOE      0.052200
     38 H14         1.5920   -1.8170   -5.6080 hc        1 ZOE      0.052200
     39 H15        -0.8660   -1.5580   -6.0890 hc        1 ZOE      0.072700
     40 H16        -0.7910    0.1710   -5.5340 hc        1 ZOE      0.072700
     41 H17         0.1970   -2.0840   -8.1340 hn        1 ZOE      0.324500
     42 H18         1.6260   -1.5630  -10.0250 h1        1 ZOE      0.060200
     43 H19         1.2540    0.2030   -9.7200 h1        1 ZOE      0.060200
     44 H20         0.0720   -0.7230  -11.6860 hc        1 ZOE      0.052200
     45 H21        -1.0740   -0.0950  -10.4410 hc        1 ZOE      0.052200
     46 H22        -1.3050   -2.5550  -11.7030 hc        1 ZOE      0.041700
     47 H23        -0.3650   -3.0490  -10.2470 hc        1 ZOE      0.041700
     48 H24        -3.1270   -1.6950  -10.4090 hc        1 ZOE      0.059200
     49 H25        -2.1560   -1.6420   -8.8840 hc        1 ZOE      0.059200
     50 H26        -3.8860   -3.5770   -9.1530 hc        1 ZOE      0.085200
     51 H27        -2.7490   -4.2940  -10.3690 hc        1 ZOE      0.085200
     52 HAP2       -1.7760   -5.8560   -7.3890 ho        1 ZOE      0.447000
@<TRIPOS>BOND
     1    1    2 2   
     2    2    3 1   
     3    2   10 1   
     4    3    4 1   
     5    3   26 1   
     6    3   27 1   
     7    4    5 1   
     8    4    9 1   
     9    4   28 1   
    10    5    6 1   
    11    5   29 1   
    12    6    7 2   
    13    6    8 1   
    14    8    9 1   
    15    8   30 1   
    16    9   10 1   
    17    9   31 1   
    18   10   11 1   
    19   10   32 1   
    20   11   12 1   
    21   11   33 1   
    22   11   34 1   
    23   12   13 1   
    24   12   35 1   
    25   12   36 1   
    26   13   14 1   
    27   13   37 1   
    28   13   38 1   
    29   14   15 1   
    30   14   39 1   
    31   14   40 1   
    32   15   16 2   
    33   15   17 1   
    34   17   18 1   
    35   17   41 1   
    36   18   19 1   
    37   18   42 1   
    38   18   43 1   
    39   19   20 1   
    40   19   44 1   
    41   19   45 1   
    42   20   21 1   
    43   20   46 1   
    44   20   47 1   
    45   21   22 1   
    46   21   48 1   
    47   21   49 1   
    48   22   23 1   
    49   22   50 1   
    50   22   51 1   
    51   23   24 1   
    52   23   25 2   
    53   24   52 1   
@<TRIPOS>SUBSTRUCTURE
     1 ZOE         1 TEMP              0 ****  ****    0 ROOT
