@<TRIPOS>MOLECULE
ZOF
   52    53     1     0     0
SMALL
bcc


@<TRIPOS>ATOM
      1 OAW         5.6540    0.1300    0.9370 oh        1 ZOF     -0.605100
      2 CAV         5.5440   -0.4650   -0.2840 c         1 ZOF      0.646100
      3 OAX         6.5930   -0.8890   -0.7830 o         1 ZOF     -0.575000
      4 CAU         4.1460   -0.5210   -0.8160 c3        1 ZOF     -0.125400
      5 CAT         3.6870    0.8200   -1.3570 c3        1 ZOF     -0.075400
      6 CAS         3.9750    1.0230   -2.8310 c3        1 ZOF     -0.080400
      7 CAR         5.4540    1.0530   -3.1610 c3        1 ZOF     -0.110400
      8 CAQ         5.8940   -0.2300   -3.8770 c3        1 ZOF      0.096000
      9 NAO         7.2880   -0.5430   -3.7490 n         1 ZOF     -0.565900
     10 CAN         8.2170   -0.2070   -4.7150 c         1 ZOF      0.651100
     11 OAP         7.8680    0.2700   -5.8140 o         1 ZOF     -0.618100
     12 CAM         9.6720   -0.5030   -4.3920 c3        1 ZOF     -0.150400
     13 CAL        10.5800   -0.0250   -5.5040 c3        1 ZOF     -0.073400
     14 CAK        12.0260   -0.3440   -5.1950 c3        1 ZOF     -0.082400
     15 CAI        12.9330    0.1400   -6.3100 c3        1 ZOF     -0.070400
     16 CAH        14.3850   -0.1290   -5.9920 c3        1 ZOF     -0.002600
     17 SAG        14.9590    1.0000   -4.7330 ss        1 ZOF     -0.302200
     18 CAF        16.6600    0.9190   -5.2010 c3        1 ZOF     -0.043300
     19 CAC        16.7630    0.4650   -6.6550 c3        1 ZOF      0.159500
     20 CAD        15.3490   -0.0270   -7.1740 c3        1 ZOF      0.163500
     21 NAE        14.9930    0.8620   -8.2780 nh        1 ZOF     -0.802200
     22 CAA        16.0850    1.8140   -8.4680 c2        1 ZOF      0.715100
     23 NAJ        16.1560    2.7760   -9.3400 n2        1 ZOF     -0.823100
     24 NAB        17.2090    1.4690   -7.6180 nh        1 ZOF     -0.765200
     25 H2          3.4710   -0.8360    0.0250 hc        1 ZOF      0.080200
     26 H3          4.1070   -1.3070   -1.6160 hc        1 ZOF      0.080200
     27 H4          4.1570    1.6460   -0.7600 hc        1 ZOF      0.055200
     28 H5          2.5760    0.8930   -1.2040 hc        1 ZOF      0.055200
     29 H6          3.5120    2.0000   -3.1380 hc        1 ZOF      0.047200
     30 H7          3.4600    0.2220   -3.4250 hc        1 ZOF      0.047200
     31 H8          5.6780    1.9300   -3.8230 hc        1 ZOF      0.049700
     32 H9          6.0460    1.1950   -2.2180 hc        1 ZOF      0.049700
     33 H10         5.3210   -1.1030   -3.4450 h1        1 ZOF      0.057700
     34 H11         5.6370   -0.1430   -4.9710 h1        1 ZOF      0.057700
     35 H12         7.6030   -0.7890   -2.8380 hn        1 ZOF      0.325500
     36 H13         9.9520   -0.0010   -3.4290 hc        1 ZOF      0.063200
     37 H14         9.7930   -1.6100   -4.2480 hc        1 ZOF      0.063200
     38 H15        10.2740   -0.5090   -6.4690 hc        1 ZOF      0.060200
     39 H16        10.4490    1.0810   -5.6410 hc        1 ZOF      0.060200
     40 H17        12.1490   -1.4520   -5.0610 hc        1 ZOF      0.046700
     41 H18        12.3280    0.1430   -4.2290 hc        1 ZOF      0.046700
     42 H19        12.6580   -0.3860   -7.2640 hc        1 ZOF      0.059200
     43 H20        12.7640    1.2390   -6.4650 hc        1 ZOF      0.059200
     44 H21        14.4750   -1.1700   -5.5800 h1        1 ZOF      0.081700
     45 H22        17.1140    1.9250   -5.0250 h1        1 ZOF      0.080200
     46 H23        17.1980    0.1920   -4.5450 h1        1 ZOF      0.080200
     47 H24        17.4970   -0.3880   -6.7250 h1        1 ZOF      0.090700
     48 H25        15.4680   -1.0530   -7.6290 h1        1 ZOF      0.090700
     49 H26        14.1120    1.3210   -8.1590 hn        1 ZOF      0.394800
     50 H27        15.3610    2.8720   -9.9340 hn        1 ZOF      0.401400
     51 H28        17.6640    2.2640   -7.2170 hn        1 ZOF      0.411800
     52 HAO2        6.5830    0.1280    1.2220 ho        1 ZOF      0.445000
@<TRIPOS>BOND
     1    1    2 1   
     2    1   52 1   
     3    2    3 2   
     4    2    4 1   
     5    4    5 1   
     6    4   25 1   
     7    4   26 1   
     8    5    6 1   
     9    5   27 1   
    10    5   28 1   
    11    6    7 1   
    12    6   29 1   
    13    6   30 1   
    14    7    8 1   
    15    7   31 1   
    16    7   32 1   
    17    8    9 1   
    18    8   33 1   
    19    8   34 1   
    20    9   10 1   
    21    9   35 1   
    22   10   11 2   
    23   10   12 1   
    24   12   13 1   
    25   12   36 1   
    26   12   37 1   
    27   13   14 1   
    28   13   38 1   
    29   13   39 1   
    30   14   15 1   
    31   14   40 1   
    32   14   41 1   
    33   15   16 1   
    34   15   42 1   
    35   15   43 1   
    36   16   17 1   
    37   16   20 1   
    38   16   44 1   
    39   17   18 1   
    40   18   19 1   
    41   18   45 1   
    42   18   46 1   
    43   19   20 1   
    44   19   24 1   
    45   19   47 1   
    46   20   21 1   
    47   20   48 1   
    48   21   22 1   
    49   21   49 1   
    50   22   23 2   
    51   22   24 1   
    52   23   50 1   
    53   24   51 1   
@<TRIPOS>SUBSTRUCTURE
     1 ZOF         1 TEMP              0 ****  ****    0 ROOT
