@<TRIPOS>MOLECULE
ZOF
   52    53     1     0     0
SMALL
bcc


@<TRIPOS>ATOM
      1 OAW         5.6490    0.1000    0.9320 oh        1 ZOF     -0.605100
      2 CAV         5.5240   -0.4610   -0.3040 c         1 ZOF      0.646100
      3 OAX         6.5610   -0.8980   -0.8140 o         1 ZOF     -0.575000
      4 CAU         4.1250   -0.4670   -0.8360 c3        1 ZOF     -0.125400
      5 CAT         3.7000    0.8990   -1.3430 c3        1 ZOF     -0.075400
      6 CAS         3.9950    1.1340   -2.8110 c3        1 ZOF     -0.080400
      7 CAR         5.4740    1.1350   -3.1390 c3        1 ZOF     -0.110400
      8 CAQ         5.8820   -0.1410   -3.8880 c3        1 ZOF      0.096000
      9 NAO         7.2680   -0.4910   -3.7700 ns        1 ZOF     -0.565900
     10 CAN         8.2050   -0.1540   -4.7270 c         1 ZOF      0.651100
     11 OAP         7.8670    0.3600   -5.8140 o         1 ZOF     -0.618100
     12 CAM         9.6520   -0.4940   -4.4130 c3        1 ZOF     -0.150400
     13 CAL        10.5710   -0.0090   -5.5120 c3        1 ZOF     -0.073400
     14 CAK        12.0090   -0.3730   -5.2130 c3        1 ZOF     -0.082400
     15 CAI        12.9280    0.1180   -6.3160 c3        1 ZOF     -0.070400
     16 CAH        14.3730   -0.1940   -6.0060 c3        1 ZOF     -0.002600
     17 SAG        14.9750    0.8860   -4.7190 ss        1 ZOF     -0.302200
     18 CAF        16.6730    0.7750   -5.1900 c3        1 ZOF     -0.043300
     19 CAC        16.7640    0.3570   -6.6550 c3        1 ZOF      0.159500
     20 CAD        15.3390   -0.0850   -7.1860 c3        1 ZOF      0.163500
     21 NAE        15.0050    0.8410   -8.2660 nu        1 ZOF     -0.802200
     22 CAA        16.1200    1.7700   -8.4310 c2        1 ZOF      0.715100
     23 NAJ        16.2150    2.7530   -9.2770 n2        1 ZOF     -0.823100
     24 NAB        17.2350    1.3750   -7.5920 nu        1 ZOF     -0.765200
     25 H2          3.4420   -0.7860   -0.0040 hc        1 ZOF      0.080200
     26 H3          4.0650   -1.2300   -1.6570 hc        1 ZOF      0.080200
     27 H4          2.5910    0.9970   -1.1880 hc        1 ZOF      0.055200
     28 H5          4.1910    1.6970   -0.7240 hc        1 ZOF      0.055200
     29 H6          3.4600    0.3620   -3.4250 hc        1 ZOF      0.047200
     30 H7          3.5570    2.1300   -3.0920 hc        1 ZOF      0.047200
     31 H8          5.7200    2.0220   -3.7790 hc        1 ZOF      0.049700
     32 H9          6.0690    1.2370   -2.1930 hc        1 ZOF      0.049700
     33 H10         5.6270   -0.0190   -4.9800 h1        1 ZOF      0.057700
     34 H11         5.2880   -1.0100   -3.4780 h1        1 ZOF      0.057700
     35 H12         6.5770    0.0660    1.2160 ho        1 ZOF      0.445000
     36 H13         9.7450   -1.6070   -4.2990 hc        1 ZOF      0.063200
     37 H14         9.9440   -0.0250   -3.4370 hc        1 ZOF      0.063200
     38 H15        10.2530   -0.4600   -6.4900 hc        1 ZOF      0.060200
     39 H16        10.4680    1.1030   -5.6200 hc        1 ZOF      0.060200
     40 H17        12.3230    0.0820   -4.2350 hc        1 ZOF      0.046700
     41 H18        12.1040   -1.4860   -5.1090 hc        1 ZOF      0.046700
     42 H19        12.7860    1.2250   -6.4410 hc        1 ZOF      0.059200
     43 H20        12.6390   -0.3750   -7.2830 hc        1 ZOF      0.059200
     44 H21        14.4370   -1.2490   -5.6230 h1        1 ZOF      0.081700
     45 H22        17.1930    0.0180   -4.5530 h1        1 ZOF      0.080200
     46 H23        17.1510    1.7640   -4.9870 h1        1 ZOF      0.080200
     47 H24        17.4760   -0.5120   -6.7480 h1        1 ZOF      0.090700
     48 H25        15.4320   -1.1010   -7.6680 h1        1 ZOF      0.090700
     49 H26        14.1350    1.3190   -8.1340 hn        1 ZOF      0.394800
     50 H27        15.4220    2.8850   -9.8680 hn        1 ZOF      0.401400
     51 H28        17.7100    2.1470   -7.1700 hn        1 ZOF      0.411800
     52 HAO2        7.5770   -0.7690   -2.8650 hn        1 ZOF      0.325500
@<TRIPOS>BOND
     1    1    2 1   
     2    1   35 1   
     3    2    3 2   
     4    2    4 1   
     5    4    5 1   
     6    4   25 1   
     7    4   26 1   
     8    5    6 1   
     9    5   27 1   
    10    5   28 1   
    11    6    7 1   
    12    6   29 1   
    13    6   30 1   
    14    7    8 1   
    15    7   31 1   
    16    7   32 1   
    17    8    9 1   
    18    8   33 1   
    19    8   34 1   
    20    9   10 1   
    21    9   52 1   
    22   10   11 2   
    23   10   12 1   
    24   12   13 1   
    25   12   36 1   
    26   12   37 1   
    27   13   14 1   
    28   13   38 1   
    29   13   39 1   
    30   14   15 1   
    31   14   40 1   
    32   14   41 1   
    33   15   16 1   
    34   15   42 1   
    35   15   43 1   
    36   16   17 1   
    37   16   20 1   
    38   16   44 1   
    39   17   18 1   
    40   18   19 1   
    41   18   45 1   
    42   18   46 1   
    43   19   20 1   
    44   19   24 1   
    45   19   47 1   
    46   20   21 1   
    47   20   48 1   
    48   21   22 1   
    49   21   49 1   
    50   22   23 2   
    51   22   24 1   
    52   23   50 1   
    53   24   51 1   
@<TRIPOS>SUBSTRUCTURE
     1 ZOF         1 TEMP              0 ****  ****    0 ROOT
