@<TRIPOS>MOLECULE
ZOL
   22    22     1     0     0
SMALL
bcc


@<TRIPOS>ATOM
      1 O17         0.3120   -2.4650    0.6000 o         1 ZOL     -0.974833
      2 P14        -0.8190   -1.8960   -0.2620 p5        1 ZOL      1.253700
      3 O16        -0.4440   -1.9070   -1.7260 o         1 ZOL     -0.974833
      4 O15        -2.1110   -2.6430   -0.0130 o         1 ZOL     -0.974833
      5 C8         -0.9210   -0.0380    0.3840 c3        1 ZOL     -0.153600
      6 P9         -1.4440    1.6330   -0.1100 p5        1 ZOL      1.253700
      7 O10        -1.8760    2.2210    1.2430 o         1 ZOL     -0.974833
      8 O11        -0.2210    2.4080   -0.6000 o         1 ZOL     -0.974833
      9 O12        -2.5850    1.6770   -1.1040 o         1 ZOL     -0.974833
     10 O13        -1.8530   -0.3880    1.3980 oh        1 ZOL     -0.634800
     11 C7          0.3930    0.1760    1.1430 c3        1 ZOL      0.041300
     12 N15         1.7110    0.2580    0.5280 na        1 ZOL     -0.075900
     13 C16         2.6730   -0.7580    0.5800 cc        1 ZOL      0.352400
     14 N17         3.9000   -0.3140    0.1900 nd        1 ZOL     -0.823000
     15 C18         3.7050    1.0300   -0.1410 cd        1 ZOL      0.107200
     16 C19         2.3460    1.3890    0.0490 cc        1 ZOL     -0.222600
     17 H13        -2.1060    0.4190    1.8810 ho        1 ZOL      0.365000
     18 H71         0.2820    1.1500    1.7160 h1        1 ZOL      0.030200
     19 H72         0.4690   -0.6910    1.8710 h1        1 ZOL      0.030200
     20 H16         2.3340   -1.7890    0.8070 h5        1 ZOL      0.118100
     21 H18         4.5120    1.6480   -0.5170 h4        1 ZOL     -0.050900
     22 H19         1.7430    2.2860   -0.1850 h4        1 ZOL      0.257000
@<TRIPOS>BOND
     1    1    2 1   
     2    2    3 1   
     3    2    4 1   
     4    2    5 1   
     5    5    6 1   
     6    5   10 1   
     7    5   11 1   
     8    6    7 1   
     9    6    8 1   
    10    6    9 1   
    11   10   17 1   
    12   11   12 1   
    13   11   18 1   
    14   11   19 1   
    15   12   13 1   
    16   12   16 1   
    17   13   14 2   
    18   13   20 1   
    19   14   15 1   
    20   15   16 2   
    21   15   21 1   
    22   16   22 1   
@<TRIPOS>SUBSTRUCTURE
     1 ZOL         1 TEMP              0 ****  ****    0 ROOT
