@<TRIPOS>MOLECULE
ZOL
   22    22     1     0     0
SMALL
bcc


@<TRIPOS>ATOM
      1 O17         0.2470   -0.0380    0.2290 o         1 ZOL     -0.969833
      2 P14         1.6810   -0.4180   -0.1300 p5        1 ZOL      1.249200
      3 O16         2.3750   -1.0780    1.0410 o         1 ZOL     -0.969833
      4 O15         1.7140   -1.2810   -1.3820 o         1 ZOL     -0.969833
      5 C8          2.5130    1.2200   -0.6430 c3        1 ZOL     -0.198600
      6 P9          4.1450    1.9560   -1.0490 p5        1 ZOL      1.249200
      7 O10         3.8540    3.3880   -1.4900 o         1 ZOL     -0.969833
      8 O11         5.0030    2.0250    0.2210 o         1 ZOL     -0.969833
      9 O12         4.8070    1.1490   -2.1480 o         1 ZOL     -0.969833
     10 O13         2.0030    1.2190   -2.0050 oh        1 ZOL     -0.678800
     11 C7          1.6830    2.3070    0.0200 c3        1 ZOL      0.031300
     12 N15         1.8580    2.6790    1.4210 na        1 ZOL     -0.076900
     13 C16         0.8160    3.0870    2.2640 cc        1 ZOL      0.299400
     14 N17         1.2780    3.5780    3.4470 nd        1 ZOL     -0.807000
     15 C18         2.6650    3.4770    3.3520 cd        1 ZOL      0.110200
     16 C19         3.0360    2.9140    2.0990 cc        1 ZOL     -0.197600
     17 H13         2.3990    0.4130   -2.3710 ho        1 ZOL      0.426000
     18 H71         1.8860    3.2620   -0.5630 h1        1 ZOL      0.061700
     19 H72         0.5950    2.0040   -0.0850 h1        1 ZOL      0.061700
     20 H16        -0.2300    2.9380    1.9950 h5        1 ZOL      0.020100
     21 H18         3.3160    3.7830    4.1620 h4        1 ZOL     -0.041900
     22 H19         4.0090    2.6320    1.5700 h4        1 ZOL      0.309000
@<TRIPOS>BOND
     1    1    2 1   
     2    2    3 1   
     3    2    4 1   
     4    2    5 1   
     5    5    6 1   
     6    5   10 1   
     7    5   11 1   
     8    6    7 1   
     9    6    8 1   
    10    6    9 1   
    11   10   17 1   
    12   11   12 1   
    13   11   18 1   
    14   11   19 1   
    15   12   13 1   
    16   12   16 1   
    17   13   14 2   
    18   13   20 1   
    19   14   15 1   
    20   15   16 2   
    21   15   21 1   
    22   16   22 1   
@<TRIPOS>SUBSTRUCTURE
     1 ZOL         1 TEMP              0 ****  ****    0 ROOT
