@<TRIPOS>MOLECULE
ZOM
   33    34     1     0     0
SMALL
bcc


@<TRIPOS>ATOM
      1 CL         -5.0250   -2.0250    1.4640 cl        1 ZOM     -0.117400
      2 N1          1.2690   -0.1490   -0.1510 na        1 ZOM     -0.021100
      3 C2          2.5250   -0.2980   -0.7260 cc        1 ZOM      0.025400
      4 C3          2.7750    0.8230   -1.5600 cd        1 ZOM     -0.256000
      5 C4          1.6550    1.6890   -1.4640 cd        1 ZOM     -0.045300
      6 C5          0.7120    1.0710   -0.5940 cc        1 ZOM     -0.275900
      7 O6         -0.8740    2.8060   -0.3990 o         1 ZOM     -0.576100
      8 C8          4.1740   -1.4380    0.8250 c         1 ZOM      0.923600
      9 OH          3.5460   -1.8410    1.8470 o         1 ZOM     -0.828300
     10 C10         1.4960    2.9780   -2.1390 c3        1 ZOM     -0.027800
     11 C1B        -1.6590    0.6620    0.1870 ca        1 ZOM     -0.135600
     12 C2B        -2.3990    0.9590    1.3370 ca        1 ZOM     -0.087500
     13 C3B        -3.4380    0.1240    1.7430 ca        1 ZOM     -0.137500
     14 C4B        -3.7470   -1.0070    0.9810 ca        1 ZOM      0.023400
     15 C5B        -3.0200   -1.3100   -0.1740 ca        1 ZOM     -0.137500
     16 C6B        -1.9750   -0.4750   -0.5660 ca        1 ZOM     -0.087500
     17 OXT         5.3780   -1.0740    0.8170 o         1 ZOM     -0.828300
     18 H3          3.6780    0.9830   -2.1370 ha        1 ZOM      0.151000
     19 H7          2.8390   -2.4120   -0.5860 hc        1 ZOM      0.048700
     20 H7A         4.1820   -1.4490   -1.3530 hc        1 ZOM      0.048700
     21 H9          0.2020   -0.3620    1.6410 h1        1 ZOM      0.070367
     22 H9A         0.0130   -1.7180    0.4330 h1        1 ZOM      0.070367
     23 H9B         1.5840   -1.5460    1.3860 h1        1 ZOM      0.070367
     24 H10         2.1040    3.0130   -3.0760 hc        1 ZOM      0.039700
     25 H10A        0.4210    3.1680   -2.3900 hc        1 ZOM      0.039700
     26 H10B        1.8370    3.8040   -1.4640 hc        1 ZOM      0.039700
     27 H2B        -2.1560    1.8630    1.9170 ha        1 ZOM      0.151500
     28 H3B        -4.0100    0.3560    2.6530 ha        1 ZOM      0.141500
     29 H5B        -3.2650   -2.2020   -0.7690 ha        1 ZOM      0.141500
     30 H6B        -1.3900   -0.7110   -1.4690 ha        1 ZOM      0.151500
     31 C7          3.4190   -1.4550   -0.5320 c3        1 ZOM     -0.173100
     32 C6         -0.5950    1.6000   -0.2670 c         1 ZOM      0.618300
     33 C9          0.7400   -0.9860    0.8790 c3        1 ZOM     -0.019400
@<TRIPOS>BOND
     1    1   14 1   
     2    2    3 1   
     3    2    6 1   
     4    2   33 1   
     5    3    4 2   
     6    3   31 1   
     7    4    5 1   
     8    4   18 1   
     9    5    6 2   
    10    5   10 1   
    11    6   32 1   
    12    7   32 2   
    13    8    9 1   
    14    8   17 1   
    15    8   31 1   
    16   10   24 1   
    17   10   25 1   
    18   10   26 1   
    19   11   12 ar  
    20   11   16 ar  
    21   11   32 1   
    22   12   13 ar  
    23   12   27 1   
    24   13   14 ar  
    25   13   28 1   
    26   14   15 ar  
    27   15   16 ar  
    28   15   29 1   
    29   16   30 1   
    30   19   31 1   
    31   20   31 1   
    32   21   33 1   
    33   22   33 1   
    34   23   33 1   
@<TRIPOS>SUBSTRUCTURE
     1 ZOM         1 TEMP              0 ****  ****    0 ROOT
