@<TRIPOS>MOLECULE
ZOM
   33    32     1     0     0
SMALL
bcc


@<TRIPOS>ATOM
      1 Cl          1.8030   -1.5260    1.5160 cl        1 ZOM     -0.135400
      2 N1          8.1450    0.2130   -1.7130 na        1 ZOM     -0.104100
      3 C2          9.5030    0.2950   -1.8680 cc        1 ZOM     -0.098300
      4 C3          9.9690    1.4880   -1.2640 cd        1 ZOM     -0.273000
      5 C4          8.8310    2.1550   -0.7300 cd        1 ZOM     -0.075300
      6 C5          7.6960    1.3420   -1.0190 cc        1 ZOM     -0.263900
      7 O6          5.9470    2.6640   -0.1420 o         1 ZOM     -0.603100
      8 C8          6.9840   -2.4830   -3.3230 c         1 ZOM      0.890800
      9 OH          6.1560   -1.7140   -2.7320 o         1 ZOM     -0.862300
     10 C10         8.8290    3.4370   -0.0250 c3        1 ZOM     -0.023800
     11 C1B         5.3250    0.4890   -0.9590 c3        1 ZOM     -0.170200
     12 C2B         3.9510    0.8240   -0.5150 c2        1 ZOM     -0.096300
     13 C3B         3.0050   -0.0440   -0.2980 c1        1 ZOM     -0.025800
     14 C4B         2.0320   -0.8860   -0.0680 ce        1 ZOM      0.109600
     15 C5B         1.1100   -1.3440   -1.0230 cg        1 ZOM     -0.130300
     16 C6B         0.3270   -1.7370   -1.8390 c1        1 ZOM     -0.149500
     17 OXT         8.2280   -2.2360   -3.2710 o         1 ZOM     -0.862300
     18 H3         10.9980    1.8240   -1.2190 ha        1 ZOM      0.134000
     19 H7         10.0420   -0.4950   -2.3990 h4        1 ZOM      0.188000
     20 H7A         7.3080   -4.2540   -4.5720 ha        1 ZOM      0.105000
     21 H9          7.5650   -0.5340   -2.0760 hn        1 ZOM      0.378700
     22 H9A         4.4390   -3.4500   -3.6680 ha        1 ZOM      0.098000
     23 H9B         4.8880   -4.9140   -4.7220 ha        1 ZOM      0.098000
     24 H10         8.0010    3.4740    0.7280 hc        1 ZOM      0.036033
     25 H10A        8.6680    4.2760   -0.7500 hc        1 ZOM      0.036033
     26 H10B        9.8040    3.6050    0.4950 hc        1 ZOM      0.036033
     27 H2B         5.3200    0.2790   -2.0710 hc        1 ZOM      0.126700
     28 H3B         3.7480    1.9050   -0.3700 ha        1 ZOM      0.161000
     29 H5B        -0.3560   -2.0880   -2.5680 ha        1 ZOM      0.160500
     30 H6B         5.6820   -0.4690   -0.4890 hc        1 ZOM      0.126700
     31 C7          6.5070   -3.6790   -4.0810 ce        1 ZOM     -0.200200
     32 C6          6.3080    1.5940   -0.6650 c         1 ZOM      0.618700
     33 C9          5.2280   -4.0330   -4.1640 c2        1 ZOM     -0.228000
@<TRIPOS>BOND
     1    1   14 1   
     2    2    3 1   
     3    2    6 1   
     4    2   21 1   
     5    3    4 2   
     6    3   19 1   
     7    4    5 1   
     8    4   18 1   
     9    5    6 2   
    10    5   10 1   
    11    6   32 1   
    12    7   32 2   
    13    8    9 1   
    14    8   17 1   
    15    8   31 1   
    16   10   24 1   
    17   10   25 1   
    18   10   26 1   
    19   11   12 1   
    20   11   27 1   
    21   11   30 1   
    22   11   32 1   
    23   12   13 2   
    24   12   28 1   
    25   13   14 2   
    26   14   15 1   
    27   15   16 3   
    28   16   29 1   
    29   20   31 1   
    30   22   33 1   
    31   23   33 1   
    32   31   33 2   
@<TRIPOS>SUBSTRUCTURE
     1 ZOM         1 TEMP              0 ****  ****    0 ROOT
