@<TRIPOS>MOLECULE
ZOM
   33    27     1     0     0
SMALL
bcc


@<TRIPOS>ATOM
      1 CL         -6.0410    0.4110   -2.3690 cl        1 ZOM     -0.041000
      2 N1          0.9750    0.1200    1.3310 n2        1 ZOM     -0.102000
      3 C2          2.1050   -0.6610    1.3250 c1        1 ZOM     -0.095500
      4 C3          2.3550   -1.0330    0.0310 c1        1 ZOM     -0.132000
      5 C4          1.3880   -0.4870   -0.7630 c1        1 ZOM     -0.132000
      6 C5          0.5320    0.2280    0.0430 c1        1 ZOM     -0.095500
      7 C6         -0.3550    1.3430   -0.4590 c1        1 ZOM      0.334000
      8 O6          0.0950    2.4500   -0.6080 o         1 ZOM     -0.358000
      9 C7          2.8680   -1.1550    2.5470 c2        1 ZOM     -0.210000
     10 C8          3.8920   -2.2480    2.1060 c2        1 ZOM      0.345000
     11 C9          0.3360    0.7050    2.5060 c2        1 ZOM     -0.115500
     12 OH          3.5040   -3.4440    1.9080 o         1 ZOM     -0.564500
     13 C10         1.3750   -0.4940   -2.2790 c2        1 ZOM     -0.115500
     14 C1B        -1.8510    1.0320   -0.8800 c2        1 ZOM     -0.090000
     15 C2B        -2.8930    1.8220   -0.3910 c2        1 ZOM     -0.093000
     16 C3B        -4.1880    1.6600   -0.8920 c1        1 ZOM     -0.132000
     17 C4B        -4.4280    0.7250   -1.8610 c1        1 ZOM     -0.062000
     18 C5B        -3.3740   -0.0670   -2.3490 c1        1 ZOM     -0.134000
     19 C6B        -2.0960    0.0980   -1.8490 c1        1 ZOM     -0.096000
     20 OXT         5.1490   -1.9680    2.0740 o         1 ZOM     -0.564500
     21 H3          3.0890   -1.5860   -0.2670 DU        1 ZOM      0.201000
     22 H7          3.3190   -0.4570    2.9270 ha        1 ZOM      0.085500
     23 H7A         2.2180   -1.5470    3.2220 ha        1 ZOM      0.085500
     24 H9          0.9940    0.8460    3.1940 ha        1 ZOM      0.083833
     25 H9A        -0.3810    0.0780    2.8460 ha        1 ZOM      0.083833
     26 H9B        -0.0490    1.5220    2.2730 ha        1 ZOM      0.083833
     27 H10         0.6480   -1.1280   -2.6100 ha        1 ZOM      0.083833
     28 H10A        1.1940    0.4030   -2.6010 ha        1 ZOM      0.083833
     29 H10B        2.2400   -0.7900   -2.6130 ha        1 ZOM      0.083833
     30 H2B        -2.7240    2.4570    0.2980 ha        1 ZOM      0.151000
     31 H3B        -4.9800    2.2590   -0.5230 ha        1 ZOM      0.142000
     32 H5B        -3.5390   -0.7180   -3.0800 ha        1 ZOM      0.140000
     33 H6B        -1.3750   -0.3780   -2.2350 ha        1 ZOM      0.145000
@<TRIPOS>BOND
     1    1   17 1   
     2    2    3 1   
     3    2    6 1   
     4    3    4 1   
     5    4    5 1   
     6    5    6 1   
     7    7    8 1   
     8    7   14 1   
     9    9   10 1   
    10    9   22 1   
    11    9   23 1   
    12   10   12 1   
    13   10   20 1   
    14   11   24 1   
    15   11   25 1   
    16   11   26 1   
    17   13   27 1   
    18   13   28 1   
    19   13   29 1   
    20   14   15 1   
    21   14   19 1   
    22   15   16 1   
    23   15   30 1   
    24   16   31 1   
    25   17   18 1   
    26   18   32 1   
    27   19   33 1   
@<TRIPOS>SUBSTRUCTURE
     1 ZOM         1 TEMP              0 ****  ****    0 ROOT
