@<TRIPOS>MOLECULE
ZON
   22    23     1     0     0
SMALL
bcc


@<TRIPOS>ATOM
      1 NAA         3.6700    0.5240    0.5190 n3        1 ZON     -1.032700
      2 OAB         1.7120    1.8670   -0.1120 o         1 ZON     -0.645300
      3 OAC         2.1670   -0.1980   -1.2850 o         1 ZON     -0.645300
      4 CAD        -3.6950    0.9920   -0.4440 ca        1 ZON     -0.094000
      5 CAE        -2.6720    1.9130   -0.1710 ca        1 ZON     -0.151000
      6 CAF        -3.4900   -0.3850   -0.3430 ca        1 ZON     -0.122000
      7 CAG        -1.3970    1.5040    0.2200 ca        1 ZON     -0.057000
      8 CAH         1.2870   -0.3000    1.1420 c3        1 ZON     -0.310900
      9 NAI        -0.4540   -2.0220    0.6150 nc        1 ZON     -0.371200
     10 OAJ        -1.7200   -2.0890    0.2330 os        1 ZON     -0.004600
     11 CAK        -0.0450   -0.7450    0.7020 cd        1 ZON      0.383900
     12 CAL        -2.2200   -0.7810    0.0490 ca        1 ZON      0.051100
     13 CAM        -1.1650    0.1380    0.3400 ca        1 ZON     -0.228900
     14 SAN         2.1930    0.5410   -0.0930 s6        1 ZON      1.464900
     15 HNAA        4.0370    1.2470    1.0860 hn        1 ZON      0.453300
     16 HNAB        4.3400   -0.1740    0.3110 hn        1 ZON      0.453300
     17 HAE        -2.8810    2.9880   -0.2740 ha        1 ZON      0.141000
     18 HAF        -4.2820   -1.1130   -0.5610 ha        1 ZON      0.157000
     19 HAG        -0.5920    2.2340    0.4060 ha        1 ZON      0.171000
     20 HAH         1.1310    0.3820    2.0240 h1        1 ZON      0.123200
     21 HAHA        1.8590   -1.1830    1.5420 h1        1 ZON      0.123200
     22 HAD        -4.6840    1.3650   -0.7500 ha        1 ZON      0.140000
@<TRIPOS>BOND
     1    1   14 1   
     2    1   15 1   
     3    1   16 1   
     4    2   14 2   
     5    3   14 2   
     6    4    5 ar  
     7    4    6 ar  
     8    4   22 1   
     9    5    7 ar  
    10    5   17 1   
    11    6   12 ar  
    12    6   18 1   
    13    7   13 ar  
    14    7   19 1   
    15    8   11 1   
    16    8   14 1   
    17    8   20 1   
    18    8   21 1   
    19    9   10 1   
    20    9   11 2   
    21   10   12 1   
    22   11   13 1   
    23   12   13 ar  
@<TRIPOS>SUBSTRUCTURE
     1 ZON         1 TEMP              0 ****  ****    0 ROOT
