@<TRIPOS>MOLECULE
ZON
   23    24     1     0     0
SMALL
bcc


@<TRIPOS>ATOM
      1 NAA        -0.1370   -0.0250   -0.4470 nz        1 ZON     -0.797500
      2 OAB         1.5820   -0.1470    1.4180 o         1 ZON     -0.532800
      3 OAC         2.1690   -1.0380   -0.7470 o         1 ZON     -0.532800
      4 CAD         6.7670    3.2500    1.6030 ca        1 ZON     -0.079000
      5 CAE         5.5260    3.3420    2.2580 ca        1 ZON     -0.116000
      6 CAF         6.8890    2.6800    0.3360 ca        1 ZON     -0.090000
      7 CAG         4.3500    2.8680    1.6800 ca        1 ZON     -0.076000
      8 CAH         2.0730    1.5430   -0.4380 c3        1 ZON     -0.345900
      9 NAI         4.2540    1.3150   -1.6530 nc        1 ZON     -0.315200
     10 OAJ         5.5190    1.5950   -1.4920 os        1 ZON      0.044400
     11 CAK         3.5380    1.6800   -0.5640 cd        1 ZON      0.266900
     12 CAL         5.7100    2.2120   -0.2270 ca        1 ZON      0.043100
     13 CAM         4.4370    2.2890    0.4170 ca        1 ZON     -0.217900
     14 SAN         1.7120   -0.0220    0.0540 s6        1 ZON      1.372900
     15 HNAA       -0.3090   -0.7630   -1.1320 hn        1 ZON      0.462467
     16 HNAB       -0.4630    0.8490   -0.8490 hn        1 ZON      0.462467
     17 HAF         7.8540    2.6050   -0.1860 ha        1 ZON      0.180000
     18 HAG         3.3900    2.9520    2.2080 ha        1 ZON      0.144000
     19 HAH         1.7350    2.3260    0.3070 h1        1 ZON      0.169700
     20 HAHA        1.6100    1.8670   -1.4180 h1        1 ZON      0.169700
     21 HAD         7.6680    3.6420    2.1050 ha        1 ZON      0.165000
     22 HAA3       -0.7180   -0.2240    0.3690 hn        1 ZON      0.462467
     23 HAE         5.4850    3.8050    3.2580 ha        1 ZON      0.161000
@<TRIPOS>BOND
     1    1   14 1   
     2    1   15 1   
     3    1   16 1   
     4    1   22 1   
     5    2   14 2   
     6    3   14 2   
     7    4    5 ar  
     8    4    6 ar  
     9    4   21 1   
    10    5    7 ar  
    11    5   23 1   
    12    6   12 ar  
    13    6   17 1   
    14    7   13 ar  
    15    7   18 1   
    16    8   11 1   
    17    8   14 1   
    18    8   19 1   
    19    8   20 1   
    20    9   10 1   
    21    9   11 2   
    22   10   12 1   
    23   11   13 1   
    24   12   13 ar  
@<TRIPOS>SUBSTRUCTURE
     1 ZON         1 TEMP              0 ****  ****    0 ROOT
