@<TRIPOS>MOLECULE
ZOO
   50    52     1     0     0
SMALL
bcc


@<TRIPOS>ATOM
      1 C1          1.5590    5.0660    0.2530 c3        1 ZOO      0.086300
      2 F1          6.4470   -1.7470   -0.8010 f         1 ZOO     -0.243800
      3 N1          0.9900    3.7700    0.0920 n         1 ZOO     -0.439300
      4 O1          2.0750    2.6280    1.8120 o         1 ZOO     -0.592500
      5 C2          1.3660    2.6100    0.8030 c         1 ZOO      0.687500
      6 F2          5.3230   -3.3080    0.2100 f         1 ZOO     -0.243800
      7 N2         -0.0210    2.0340   -1.0850 n2        1 ZOO     -0.677900
      8 O2          4.4910   -2.4400   -1.7120 os        1 ZOO     -0.379900
      9 C3          0.6780    1.3950    0.0640 c3        1 ZOO      0.188800
     10 F3         -8.2810   -0.9350   -2.7190 f         1 ZOO     -0.246300
     11 N3         -0.1810    4.2730   -2.0260 nh        1 ZOO     -0.870800
     12 C4          0.2120    3.3480   -1.0450 c2        1 ZOO      0.630800
     13 F4         -2.8770   -1.2730    3.5990 f         1 ZOO     -0.131900
     14 C5          1.7240    0.3960   -0.3870 ca        1 ZOO     -0.105300
     15 C6          1.5640   -0.2990   -1.5950 ca        1 ZOO     -0.079500
     16 C7          2.5050   -1.2360   -2.0060 ca        1 ZOO     -0.166500
     17 C8          3.6220   -1.4900   -1.1920 ca        1 ZOO      0.131100
     18 C9          3.7890   -0.8170    0.0210 ca        1 ZOO     -0.166500
     19 C10         2.8350    0.1190    0.4160 ca        1 ZOO     -0.079500
     20 C11         5.6530   -2.8330   -1.0250 c3        1 ZOO      0.592700
     21 C12        -0.2880    0.7000    1.0040 ca        1 ZOO     -0.094300
     22 C13         0.0430    0.5270    2.3550 ca        1 ZOO     -0.089000
     23 C14        -0.8230   -0.1310    3.2190 ca        1 ZOO     -0.173000
     24 C15        -2.0450   -0.6390    2.7420 ca        1 ZOO      0.152900
     25 C16        -2.3860   -0.4870    1.3760 ca        1 ZOO     -0.014000
     26 C17        -1.4920    0.1800    0.5230 ca        1 ZOO     -0.055000
     27 C18        -3.5940   -0.9920    0.8660 cg        1 ZOO     -0.114000
     28 C19        -4.6230   -1.4210    0.4250 c1        1 ZOO     -0.108100
     29 C20        -5.8510   -1.9490   -0.0850 c3        1 ZOO      0.003700
     30 C21        -6.4240   -1.0890   -1.1970 c3        1 ZOO     -0.114400
     31 C22        -7.7310   -1.6940   -1.7040 c3        1 ZOO      0.158900
     32 H1          2.1780    5.3520   -0.6400 h1        1 ZOO      0.053700
     33 H1A         0.7420    5.8260    0.3870 h1        1 ZOO      0.053700
     34 H1B         2.2110    5.0630    1.1690 h1        1 ZOO      0.053700
     35 HN3        -0.3880    5.1830   -1.6740 hn        1 ZOO      0.415800
     36 HN3A       -0.8660    3.9190   -2.6610 hn        1 ZOO      0.415800
     37 H6          0.6860   -0.1170   -2.2370 ha        1 ZOO      0.157000
     38 H7          2.3850   -1.7800   -2.9530 ha        1 ZOO      0.152500
     39 H9          4.6600   -1.0190    0.6620 ha        1 ZOO      0.152500
     40 H10         2.9720    0.6380    1.3800 ha        1 ZOO      0.157000
     41 H11         6.1380   -3.6110   -1.6890 h3        1 ZOO      0.126700
     42 H13         1.0010    0.9110    2.7460 ha        1 ZOO      0.164000
     43 H14        -0.5620   -0.2610    4.2790 ha        1 ZOO      0.153000
     44 H17        -1.7650    0.2770   -0.5410 ha        1 ZOO      0.162000
     45 H20        -5.6730   -2.9940   -0.4700 hc        1 ZOO      0.063200
     46 H20A       -6.5980   -2.0270    0.7550 hc        1 ZOO      0.063200
     47 H21        -6.6140   -0.0500   -0.8250 hc        1 ZOO      0.063200
     48 H21A       -5.6950   -1.0140   -2.0440 hc        1 ZOO      0.063200
     49 H22        -8.4760   -1.7570   -0.8610 h1        1 ZOO      0.041700
     50 H22A       -7.5460   -2.7330   -2.0950 h1        1 ZOO      0.041700
@<TRIPOS>BOND
     1    1    3 1   
     2    1   32 1   
     3    1   33 1   
     4    1   34 1   
     5    2   20 1   
     6    3    5 1   
     7    3   12 1   
     8    4    5 2   
     9    5    9 1   
    10    6   20 1   
    11    7    9 1   
    12    7   12 2   
    13    8   17 1   
    14    8   20 1   
    15    9   14 1   
    16    9   21 1   
    17   10   31 1   
    18   11   12 1   
    19   11   35 1   
    20   11   36 1   
    21   13   24 1   
    22   14   15 ar  
    23   14   19 ar  
    24   15   16 ar  
    25   15   37 1   
    26   16   17 ar  
    27   16   38 1   
    28   17   18 ar  
    29   18   19 ar  
    30   18   39 1   
    31   19   40 1   
    32   20   41 1   
    33   21   22 ar  
    34   21   26 ar  
    35   22   23 ar  
    36   22   42 1   
    37   23   24 ar  
    38   23   43 1   
    39   24   25 ar  
    40   25   26 ar  
    41   25   27 1   
    42   26   44 1   
    43   27   28 3   
    44   28   29 1   
    45   29   30 1   
    46   29   45 1   
    47   29   46 1   
    48   30   31 1   
    49   30   47 1   
    50   30   48 1   
    51   31   49 1   
    52   31   50 1   
@<TRIPOS>SUBSTRUCTURE
     1 ZOO         1 TEMP              0 ****  ****    0 ROOT
