@<TRIPOS>MOLECULE
ZOO
   50    46     1     0     0
SMALL
bcc


@<TRIPOS>ATOM
      1 C1         -4.1540   -0.7260   -2.4290 c3        1 ZOO     -0.069000
      2 F1          0.7640   -6.6340   -0.7230 f         1 ZOO     -0.175500
      3 N1         -2.7730   -0.3640   -2.3810 n         1 ZOO     -0.328000
      4 O1         -2.2100   -0.7740   -0.0540 o         1 ZOO     -0.313000
      5 C2         -1.8790   -0.4160   -1.1550 c2        1 ZOO      0.294000
      6 F2          2.6100   -6.3770   -1.8480 f         1 ZOO     -0.175500
      7 N2         -0.6070   -0.4630   -3.1010 n1        1 ZOO     -0.264000
      8 O2          2.3310   -5.2360    0.0760 os        1 ZOO     -0.269000
      9 C3         -0.4180   -0.4830   -1.7520 c2        1 ZOO      0.093000
     10 F3         -0.8510    5.7070    5.7860 f         1 ZOO     -0.176000
     11 N3         -2.2320    0.2070   -4.7410 n3        1 ZOO     -0.310000
     12 C4         -1.8680   -0.3980   -3.4610 c2        1 ZOO      0.183000
     13 F4          2.3640    4.2250   -0.1710 f         1 ZOO     -0.096000
     14 C5          0.2870   -1.8030   -1.3200 c2        1 ZOO     -0.081000
     15 C6          1.5220   -2.1380   -1.8540 c2        1 ZOO     -0.075500
     16 C7          2.1850   -3.2880   -1.4140 c1        1 ZOO     -0.162000
     17 C8          1.6060   -4.0960   -0.4420 c1        1 ZOO      0.053000
     18 C9          0.3640   -3.7590    0.0950 c1        1 ZOO     -0.124000
     19 C10        -0.2960   -2.6160   -0.3420 c1        1 ZOO     -0.095000
     20 C11         2.0760   -6.4480   -0.6240 c3        1 ZOO      0.335000
     21 C12         0.4130    0.7520   -1.3020 c2        1 ZOO     -0.081000
     22 C13         1.1590    1.4560   -2.2290 c2        1 ZOO     -0.075500
     23 C14         1.8480    2.6120   -1.8420 c1        1 ZOO     -0.162000
     24 C15         1.7830    3.0570   -0.5170 c1        1 ZOO      0.117000
     25 C16         1.0320    2.3490    0.4200 c1        1 ZOO      0.001000
     26 C17         0.3460    1.1990    0.0360 c1        1 ZOO     -0.095000
     27 C18         1.0390    2.7830    1.8820 c1        1 ZOO     -0.128000
     28 C19         1.0450    3.1330    3.0500 c1        1 ZOO     -0.125000
     29 C20         1.0510    3.5710    4.4950 c2        1 ZOO     -0.054000
     30 C21        -0.3550    3.5260    5.0360 c3        1 ZOO     -0.191000
     31 C22        -0.4790    4.4930    6.2290 c3        1 ZOO      0.008000
     32 H1         -4.2550   -1.5560   -2.9330 h1        1 ZOO      0.093000
     33 H1A        -4.4990   -0.8560   -1.4980 h1        1 ZOO      0.093000
     34 H1B        -4.6620   -0.0160   -2.8670 h1        1 ZOO      0.093000
     35 HN3        -2.9020    0.8230   -4.7780 hn        1 ZOO      0.211000
     36 HN3A       -1.7260    0.0230   -5.5060 hn        1 ZOO      0.211000
     37 H6          1.9300   -1.5690   -2.5380 ha        1 ZOO      0.156000
     38 H7          3.0520   -3.5230   -1.7880 ha        1 ZOO      0.152500
     39 H9         -0.0460   -4.3310    0.7830 ha        1 ZOO      0.151000
     40 H10        -1.1820   -2.3760    0.0420 ha        1 ZOO      0.163000
     41 H11         2.4810   -7.2060   -0.1310 h3        1 ZOO      0.163000
     42 H13         1.2070    1.1430   -3.1670 ha        1 ZOO      0.156000
     43 H14         2.3770    3.1110   -2.5000 ha        1 ZOO      0.152500
     44 H17        -0.1820    0.7000    0.6940 ha        1 ZOO      0.163000
     45 H20         1.6190    2.9720    5.0150 ha        1 ZOO      0.108000
     46 H20A        1.3960    4.4860    4.5570 ha        1 ZOO      0.108000
     47 H21        -0.5630    2.6120    5.3320 hc        1 ZOO      0.102000
     48 H21A       -0.9840    3.7930    4.3330 hc        1 ZOO      0.102000
     49 H22        -1.1540    4.1520    6.8590 h1        1 ZOO      0.082000
     50 H22A        0.3880    4.5640    6.6850 h1        1 ZOO      0.082000
@<TRIPOS>BOND
     1    1    3 1   
     2    1   32 1   
     3    1   33 1   
     4    1   34 1   
     5    2   20 1   
     6    3    5 1   
     7    3   12 1   
     8    4    5 1   
     9    5    9 1   
    10    6   20 1   
    11    7   12 1   
    12    8   17 1   
    13    8   20 1   
    14    9   14 1   
    15    9   21 1   
    16   10   31 1   
    17   11   12 1   
    18   11   35 1   
    19   11   36 1   
    20   13   24 1   
    21   14   15 1   
    22   14   19 1   
    23   15   16 1   
    24   15   37 1   
    25   16   38 1   
    26   17   18 1   
    27   18   39 1   
    28   19   40 1   
    29   20   41 1   
    30   21   22 1   
    31   21   26 1   
    32   22   23 1   
    33   22   42 1   
    34   23   43 1   
    35   24   25 1   
    36   25   27 1   
    37   26   44 1   
    38   27   28 1   
    39   29   30 1   
    40   29   45 1   
    41   29   46 1   
    42   30   31 1   
    43   30   47 1   
    44   30   48 1   
    45   31   49 1   
    46   31   50 1   
@<TRIPOS>SUBSTRUCTURE
     1 ZOO         1 TEMP              0 ****  ****    0 ROOT
