@<TRIPOS>MOLECULE
ZOO
   51    53     1     0     0
SMALL
bcc


@<TRIPOS>ATOM
      1 C1         -0.0420   -0.2530    0.0090 c3        1 ZOO      0.055300
      2 F1          5.2310    6.0400    2.6480 f         1 ZOO     -0.238300
      3 N1          1.3480    0.0640    0.0570 n         1 ZOO     -0.431300
      4 O1          1.7730   -0.2380    2.3370 o         1 ZOO     -0.495500
      5 C2          2.2080   -0.1150    1.2010 c         1 ZOO      0.689500
      6 F2          5.7780    4.9180    4.4260 f         1 ZOO     -0.238300
      7 N2          3.5100    0.0510   -0.8330 n2        1 ZOO     -0.522900
      8 O2          6.7280    4.3580    2.4480 os        1 ZOO     -0.373900
      9 C3          3.6880   -0.0800    0.6560 c3        1 ZOO      0.211800
     10 F3          8.3910   -5.3250   -5.8770 f         1 ZOO     -0.241300
     11 N3          1.6640    0.2730   -2.4330 nz        1 ZOO     -0.780600
     12 C4          2.2150    0.1040   -1.0700 c2        1 ZOO      0.470800
     13 F4          6.3430   -4.8290    2.2400 f         1 ZOO     -0.108900
     14 C5          4.4350    1.1250    1.1720 ca        1 ZOO     -0.151300
     15 C6          5.7930    1.2510    0.8410 ca        1 ZOO     -0.069500
     16 C7          6.5300    2.3410    1.2830 ca        1 ZOO     -0.161500
     17 C8          5.8970    3.3220    2.0730 ca        1 ZOO      0.166100
     18 C9          4.5440    3.2030    2.4100 ca        1 ZOO     -0.161500
     19 C10         3.8190    2.1040    1.9540 ca        1 ZOO     -0.069500
     20 C11         6.2770    5.4210    3.2640 c3        1 ZOO      0.594700
     21 C12         4.3920   -1.3610    1.0400 ca        1 ZOO     -0.139300
     22 C13         4.2760   -1.8270    2.3570 ca        1 ZOO     -0.077000
     23 C14         4.9280   -2.9850    2.7550 ca        1 ZOO     -0.160000
     24 C15         5.7230   -3.7010    1.8370 ca        1 ZOO      0.177900
     25 C16         5.8640   -3.2290    0.5080 ca        1 ZOO      0.010000
     26 C17         5.1980   -2.0520    0.1320 ca        1 ZOO     -0.075000
     27 C18         6.6570   -3.9110   -0.4280 cg        1 ZOO     -0.160000
     28 C19         7.3370   -4.4950   -1.2240 c1        1 ZOO     -0.056100
     29 C20         8.1550   -5.2010   -2.1630 c3        1 ZOO     -0.011300
     30 C21         7.8040   -4.8510   -3.5970 c3        1 ZOO     -0.114400
     31 C22         8.6970   -5.6270   -4.5650 c3        1 ZOO      0.158900
     32 H1         -0.2310   -1.2370   -0.5000 h1        1 ZOO      0.071700
     33 H1A        -0.6030    0.5610   -0.5240 h1        1 ZOO      0.071700
     34 H1B        -0.4210   -0.3170    1.0690 h1        1 ZOO      0.071700
     35 HN3         2.4210    0.1900   -3.1280 hn        1 ZOO      0.484133
     36 HN3A        0.9550   -0.4510   -2.6060 hn        1 ZOO      0.484133
     37 H6          6.2820    0.4720    0.2330 ha        1 ZOO      0.147000
     38 H7          7.5960    2.4470    1.0340 ha        1 ZOO      0.169000
     39 H9          4.0520    3.9650    3.0360 ha        1 ZOO      0.169000
     40 H10         2.7590    2.0210    2.2430 ha        1 ZOO      0.147000
     41 H11         7.1840    6.0860    3.4030 h3        1 ZOO      0.146700
     42 H13         3.6690   -1.2730    3.0950 ha        1 ZOO      0.167000
     43 H14         4.8370   -3.3520    3.7890 ha        1 ZOO      0.171000
     44 H17         5.3490   -1.6880   -0.8960 ha        1 ZOO      0.149000
     45 H20         8.0310   -6.3100   -2.0010 hc        1 ZOO      0.077200
     46 H20A        9.2380   -4.9560   -1.9680 hc        1 ZOO      0.077200
     47 H21         7.9360   -3.7520   -3.7720 hc        1 ZOO      0.057700
     48 H21A        6.7310   -5.0990   -3.8050 hc        1 ZOO      0.057700
     49 H22         8.5590   -6.7330   -4.4100 h1        1 ZOO      0.048700
     50 H22A        9.7770   -5.3700   -4.3790 h1        1 ZOO      0.048700
     51 H33         1.2330    1.2040   -2.5050 hn        1 ZOO      0.484133
@<TRIPOS>BOND
     1    1    3 1   
     2    1   32 1   
     3    1   33 1   
     4    1   34 1   
     5    2   20 1   
     6    3    5 1   
     7    3   12 1   
     8    4    5 2   
     9    5    9 1   
    10    6   20 1   
    11    7    9 1   
    12    7   12 2   
    13    8   17 1   
    14    8   20 1   
    15    9   14 1   
    16    9   21 1   
    17   10   31 1   
    18   11   12 1   
    19   11   35 1   
    20   11   36 1   
    21   11   51 1   
    22   13   24 1   
    23   14   15 ar  
    24   14   19 ar  
    25   15   16 ar  
    26   15   37 1   
    27   16   17 ar  
    28   16   38 1   
    29   17   18 ar  
    30   18   19 ar  
    31   18   39 1   
    32   19   40 1   
    33   20   41 1   
    34   21   22 ar  
    35   21   26 ar  
    36   22   23 ar  
    37   22   42 1   
    38   23   24 ar  
    39   23   43 1   
    40   24   25 ar  
    41   25   26 ar  
    42   25   27 1   
    43   26   44 1   
    44   27   28 3   
    45   28   29 1   
    46   29   30 1   
    47   29   45 1   
    48   29   46 1   
    49   30   31 1   
    50   30   47 1   
    51   30   48 1   
    52   31   49 1   
    53   31   50 1   
@<TRIPOS>SUBSTRUCTURE
     1 ZOO         1 TEMP              0 ****  ****    0 ROOT
