@<TRIPOS>MOLECULE
ZOO
   51    53     1     0     0
SMALL
bcc


@<TRIPOS>ATOM
      1 C1          0.0570   -0.2330   -0.0860 c3        1 ZOO      0.055300
      2 F1          5.2500    6.0350    2.7630 f         1 ZOO     -0.238300
      3 N1          1.4450    0.0750    0.0240 n         1 ZOO     -0.431300
      4 O1          1.7640   -0.2190    2.3220 o         1 ZOO     -0.495500
      5 C2          2.2510   -0.1050    1.2070 c         1 ZOO      0.689500
      6 F2          5.7080    4.9170    4.5690 f         1 ZOO     -0.238300
      7 N2          3.6460    0.0420   -0.7670 n2        1 ZOO     -0.522900
      8 O2          6.7430    4.3410    2.6390 os        1 ZOO     -0.373900
      9 C3          3.7550   -0.0830    0.7290 c3        1 ZOO      0.211800
     10 F3          8.7020   -5.4010   -5.5610 f         1 ZOO     -0.241300
     11 N3          1.8760    0.2690   -2.4500 n4        1 ZOO     -0.780600
     12 C4          2.3630    0.1030   -1.0630 c2        1 ZOO      0.470800
     13 F4          6.3000   -4.8440    2.4530 f         1 ZOO     -0.108900
     14 C5          4.4870    1.1180    1.2730 ca        1 ZOO     -0.151300
     15 C6          5.8590    1.2330    1.0040 ca        1 ZOO     -0.069500
     16 C7          6.5830    2.3190    1.4750 ca        1 ZOO     -0.161500
     17 C8          5.9220    3.3090    2.2300 ca        1 ZOO      0.166100
     18 C9          4.5540    3.2020    2.5060 ca        1 ZOO     -0.161500
     19 C10         3.8430    2.1060    2.0220 ca        1 ZOO     -0.069500
     20 C11         6.2640    5.4110    3.4280 c3        1 ZOO      0.594700
     21 C12         4.4310   -1.3680    1.1500 ca        1 ZOO     -0.139300
     22 C13         4.2520   -1.8260    2.4630 ca        1 ZOO     -0.077000
     23 C14         4.8770   -2.9870    2.8950 ca        1 ZOO     -0.160000
     24 C15         5.7070   -3.7140    2.0180 ca        1 ZOO      0.177900
     25 C16         5.9120   -3.2480    0.6940 ca        1 ZOO      0.010000
     26 C17         5.2720   -2.0680    0.2830 ca        1 ZOO     -0.075000
     27 C18         6.7420   -3.9410   -0.2020 cg        1 ZOO     -0.160000
     28 C19         7.4520   -4.5340   -0.9640 c1        1 ZOO     -0.056100
     29 C20         8.3070   -5.2500   -1.8620 c3        1 ZOO     -0.011300
     30 C21         8.0190   -4.9090   -3.3120 c3        1 ZOO     -0.114400
     31 C22         8.9500   -5.6950   -4.2340 c3        1 ZOO      0.158900
     32 H1         -0.4730    0.5820   -0.6480 h1        1 ZOO      0.071700
     33 H1A        -0.1160   -1.2180   -0.5990 h1        1 ZOO      0.071700
     34 H1B        -0.3710   -0.2890    0.9560 h1        1 ZOO      0.071700
     35 HN3         1.1700   -0.4510   -2.6520 hn        1 ZOO      0.484133
     36 HN3A        2.6640    0.1770   -3.1100 hn        1 ZOO      0.484133
     37 H6          6.3690    0.4480    0.4220 ha        1 ZOO      0.147000
     38 H7          7.6610    2.4170    1.2740 ha        1 ZOO      0.169000
     39 H9          4.0400    3.9700    3.1060 ha        1 ZOO      0.169000
     40 H10         2.7700    2.0320    2.2630 ha        1 ZOO      0.147000
     41 H11         7.1670    6.0690    3.6060 h3        1 ZOO      0.146700
     42 H13         3.6160   -1.2650    3.1700 ha        1 ZOO      0.167000
     43 H14         4.7360   -3.3490    3.9260 ha        1 ZOO      0.171000
     44 H17         5.4730   -1.7110   -0.7390 ha        1 ZOO      0.149000
     45 H20         9.3820   -5.0090   -1.6210 hc        1 ZOO      0.077200
     46 H20A        8.1710   -6.3570   -1.6980 hc        1 ZOO      0.077200
     47 H21         6.9550   -5.1540   -3.5640 hc        1 ZOO      0.057700
     48 H21A        8.1640   -3.8120   -3.4880 hc        1 ZOO      0.057700
     49 H22         8.8000   -6.8000   -4.0780 h1        1 ZOO      0.048700
     50 H22A       10.0220   -5.4410   -4.0040 h1        1 ZOO      0.048700
     51 H33         1.4560    1.2040   -2.5460 hn        1 ZOO      0.484133
@<TRIPOS>BOND
     1    1    3 1   
     2    1   32 1   
     3    1   33 1   
     4    1   34 1   
     5    2   20 1   
     6    3    5 1   
     7    3   12 1   
     8    4    5 2   
     9    5    9 1   
    10    6   20 1   
    11    7    9 1   
    12    7   12 2   
    13    8   17 1   
    14    8   20 1   
    15    9   14 1   
    16    9   21 1   
    17   10   31 1   
    18   11   12 1   
    19   11   35 1   
    20   11   36 1   
    21   11   51 1   
    22   13   24 1   
    23   14   15 ar  
    24   14   19 ar  
    25   15   16 ar  
    26   15   37 1   
    27   16   17 ar  
    28   16   38 1   
    29   17   18 ar  
    30   18   19 ar  
    31   18   39 1   
    32   19   40 1   
    33   20   41 1   
    34   21   22 ar  
    35   21   26 ar  
    36   22   23 ar  
    37   22   42 1   
    38   23   24 ar  
    39   23   43 1   
    40   24   25 ar  
    41   25   26 ar  
    42   25   27 1   
    43   26   44 1   
    44   27   28 3   
    45   28   29 1   
    46   29   30 1   
    47   29   45 1   
    48   29   46 1   
    49   30   31 1   
    50   30   47 1   
    51   30   48 1   
    52   31   49 1   
    53   31   50 1   
@<TRIPOS>SUBSTRUCTURE
     1 ZOO         1 TEMP              0 ****  ****    0 ROOT
