@<TRIPOS>MOLECULE
ZOP
   73    77     1     0     0
SMALL
bcc


@<TRIPOS>ATOM
      1 CAJ         0.7840   -0.6940   -0.5210 c3        1 ZOP      0.168800
      2 CAL         2.0350   -0.0640    0.0890 c3        1 ZOP     -0.076900
      3 CAW         1.6780    0.9250    1.1760 c3        1 ZOP     -0.082400
      4 CAV         0.7880    0.2730    2.2120 c3        1 ZOP     -0.076900
      5 CAK        -0.4390   -0.3590    1.5600 c3        1 ZOP      0.168800
      6 NAI        -0.1060   -1.2790    0.4770 n3        1 ZOP     -0.743600
      7 CAH        -1.2900   -1.8720   -0.1250 c3        1 ZOP      0.199100
      8 CAG        -1.8700   -3.0050    0.6770 ca        1 ZOP     -0.004300
      9 CAS        -3.2550   -3.2240    0.6380 ca        1 ZOP     -0.106000
     10 CAR        -3.8300   -4.2830    1.3320 ca        1 ZOP     -0.098500
     11 CAF        -1.0600   -3.8690    1.4260 ca        1 ZOP     -0.106000
     12 CAE        -1.6140   -4.9320    2.1320 ca        1 ZOP     -0.098500
     13 CAQ        -3.0050   -5.1380    2.0840 ca        1 ZOP     -0.079400
     14 NAP        -3.6030   -6.2210    2.8780 n4        1 ZOP     -0.527200
     15 CAO        -3.8150   -7.4710    2.1130 ce        1 ZOP      0.152800
     16 CAN        -5.0320   -7.4660    1.2910 ca        1 ZOP     -0.160800
     17 CAM        -6.2850   -7.5490    1.9180 ca        1 ZOP     -0.103000
     18 CAC        -7.4470   -7.5170    1.1500 ca        1 ZOP     -0.121500
     19 CAA        -7.3650   -7.3940   -0.2390 ca        1 ZOP     -0.078000
     20 CAB        -6.1190   -7.3100   -0.8620 ca        1 ZOP     -0.121500
     21 CAD        -4.9500   -7.3450   -0.1030 ca        1 ZOP     -0.103000
     22 CBD        -2.9630   -8.5120    2.2260 cd        1 ZOP     -0.086400
     23 CBC        -3.0050   -9.8340    1.5890 ca        1 ZOP     -0.070800
     24 CBB        -3.8800  -10.4200    0.6940 ca        1 ZOP     -0.047000
     25 CBJ        -1.7210   -8.5430    3.1080 c         1 ZOP      0.703700
     26 OBK        -1.3210   -7.6350    3.8470 o         1 ZOP     -0.584500
     27 NBI        -1.1120   -9.7970    2.9580 n         1 ZOP     -0.444100
     28 CBH        -1.8570  -10.5750    2.0600 ca        1 ZOP      0.085600
     29 CBG        -1.6140  -11.8740    1.6210 ca        1 ZOP     -0.099000
     30 CBF        -2.5320  -12.4440    0.7170 ca        1 ZOP     -0.133600
     31 CBA        -3.6430  -11.7320    0.2600 ca        1 ZOP     -0.127000
     32 OBE        -1.0920  -14.2720    0.0860 o         1 ZOP     -0.394100
     33 CAX        -2.5750  -15.7090   -2.2220 c3        1 ZOP     -0.134100
     34 CAT        -3.6210  -14.8930   -1.4950 c3        1 ZOP      0.119800
     35 C21        -2.2110  -13.8060    0.2500 c         1 ZOP      0.557700
     36 N25        -3.3880  -14.7290   -0.0160 n4        1 ZOP     -0.592200
     37 C29        -3.1870  -16.0400    0.6560 c3        1 ZOP      0.082100
     38 HAJ1        0.2490    0.0910   -1.1330 h1        1 ZOP      0.032950
     39 HAJ2        1.1010   -1.5180   -1.2200 h1        1 ZOP      0.032950
     40 HAL1        2.6010    0.4500   -0.7300 hc        1 ZOP      0.054700
     41 HAL2        2.6960   -0.8660    0.5100 hc        1 ZOP      0.054700
     42 HAW1        2.6120    1.3060    1.6650 hc        1 ZOP      0.053700
     43 HAW2        1.1510    1.8080    0.7270 hc        1 ZOP      0.053700
     44 HAV1        0.4370    1.0350    2.9550 hc        1 ZOP      0.054700
     45 HAV2        1.3670   -0.5080    2.7700 hc        1 ZOP      0.054700
     46 HAK1       -1.1180    0.4700    1.1970 h1        1 ZOP      0.032950
     47 HAK2       -1.0050   -0.9480    2.3350 h1        1 ZOP      0.032950
     48 HAH1       -2.1030   -1.1040   -0.3010 h1        1 ZOP      0.061200
     49 HAH2       -1.0130   -2.3010   -1.1340 h1        1 ZOP      0.061200
     50 HAS        -3.9030   -2.5450    0.0580 ha        1 ZOP      0.180500
     51 HAF         0.0320   -3.7030    1.4700 ha        1 ZOP      0.180500
     52 HAR        -4.9210   -4.4310    1.2880 ha        1 ZOP      0.160500
     53 HAE        -0.9580   -5.5880    2.7310 ha        1 ZOP      0.160500
     54 HAM        -6.3570   -7.6540    3.0120 ha        1 ZOP      0.148500
     55 HAD        -3.9690   -7.2640   -0.5970 ha        1 ZOP      0.148500
     56 HAC        -8.4320   -7.5830    1.6410 ha        1 ZOP      0.167500
     57 HAA        -8.2880   -7.3560   -0.8430 ha        1 ZOP      0.170000
     58 HAB        -6.0560   -7.2030   -1.9580 ha        1 ZOP      0.167500
     59 HBB        -4.7550   -9.8630    0.3150 ha        1 ZOP      0.178000
     60 HBA        -4.3400  -12.1660   -0.4750 ha        1 ZOP      0.145000
     61 HBI        -0.2710  -10.0790    3.4020 hn        1 ZOP      0.382500
     62 HBG        -0.7280  -12.4410    1.9540 ha        1 ZOP      0.186000
     63 HAX1       -2.7980  -15.6550   -3.3190 hc        1 ZOP      0.087033
     64 HAX2       -2.6060  -16.7840   -1.9150 hc        1 ZOP      0.087033
     65 HAX3       -1.5420  -15.3150   -2.0530 hc        1 ZOP      0.087033
     66 HAT1       -4.6310  -15.3850   -1.6120 hx        1 ZOP      0.099200
     67 HAT2       -3.6700  -13.8540   -1.9330 hx        1 ZOP      0.099200
     68 H291       -2.2040  -16.4800    0.3320 hx        1 ZOP      0.113700
     69 H292       -4.0220  -16.7350    0.3700 hx        1 ZOP      0.113700
     70 H293       -3.1810  -15.8880    1.7680 hx        1 ZOP      0.113700
     71 HAP        -2.9860   -6.3990    3.6930 hn        1 ZOP      0.476800
     72 HAP2       -4.5260   -5.9040    3.2140 hn        1 ZOP      0.476800
     73 H251       -4.2280  -14.2890    0.3810 hn        1 ZOP      0.452800
@<TRIPOS>BOND
     1    1    2 1   
     2    1    6 1   
     3    1   38 1   
     4    1   39 1   
     5    2    3 1   
     6    2   40 1   
     7    2   41 1   
     8    3    4 1   
     9    3   42 1   
    10    3   43 1   
    11    4    5 1   
    12    4   44 1   
    13    4   45 1   
    14    5    6 1   
    15    5   46 1   
    16    5   47 1   
    17    6    7 1   
    18    7    8 1   
    19    7   48 1   
    20    7   49 1   
    21    8    9 ar  
    22    8   11 ar  
    23    9   10 ar  
    24    9   50 1   
    25   10   13 ar  
    26   10   52 1   
    27   11   12 ar  
    28   11   51 1   
    29   12   13 ar  
    30   12   53 1   
    31   13   14 1   
    32   14   15 1   
    33   14   71 1   
    34   14   72 1   
    35   15   16 1   
    36   15   22 2   
    37   16   17 ar  
    38   16   21 ar  
    39   17   18 ar  
    40   17   54 1   
    41   18   19 ar  
    42   18   56 1   
    43   19   20 ar  
    44   19   57 1   
    45   20   21 ar  
    46   20   58 1   
    47   21   55 1   
    48   22   23 1   
    49   22   25 1   
    50   23   24 ar  
    51   23   28 ar  
    52   24   31 ar  
    53   24   59 1   
    54   25   26 2   
    55   25   27 1   
    56   27   28 1   
    57   27   61 1   
    58   28   29 ar  
    59   29   30 ar  
    60   29   62 1   
    61   30   31 ar  
    62   30   35 1   
    63   31   60 1   
    64   32   35 2   
    65   33   34 1   
    66   33   63 1   
    67   33   64 1   
    68   33   65 1   
    69   34   36 1   
    70   34   66 1   
    71   34   67 1   
    72   35   36 1   
    73   36   37 1   
    74   36   73 1   
    75   37   68 1   
    76   37   69 1   
    77   37   70 1   
@<TRIPOS>SUBSTRUCTURE
     1 ZOP         1 TEMP              0 ****  ****    0 ROOT
