@<TRIPOS>MOLECULE
ZOP
   71    75     1     0     0
SMALL
bcc


@<TRIPOS>ATOM
      1 CAJ        -8.4090   -0.9030   -0.6490 c3        1 ZOP      0.168300
      2 CAL        -9.2980   -0.2260   -1.6910 c3        1 ZOP     -0.076900
      3 CAW        -9.5340    1.2290   -1.3480 c3        1 ZOP     -0.079400
      4 CAV        -8.2160    1.9430   -1.1430 c3        1 ZOP     -0.076900
      5 CAK        -7.3540    1.2180   -0.1110 c3        1 ZOP      0.168300
      6 NAI        -7.1570   -0.1930   -0.4170 n3        1 ZOP     -0.729600
      7 CAH        -6.3390   -0.8710    0.5820 c3        1 ZOP      0.216100
      8 CAG        -4.9340   -0.3540    0.6790 ca        1 ZOP     -0.093300
      9 CAS        -4.3750   -0.0890    1.9330 ca        1 ZOP     -0.101000
     10 CAR        -3.0560    0.3340    2.0500 ca        1 ZOP     -0.150500
     11 CAF        -4.1510   -0.1760   -0.4660 ca        1 ZOP     -0.101000
     12 CAE        -2.8330    0.2590   -0.3670 ca        1 ZOP     -0.150500
     13 CAQ        -2.2590    0.5110    0.8950 ca        1 ZOP      0.131600
     14 NAP        -0.9460    0.9990    1.0460 nh        1 ZOP     -0.628400
     15 CAO         0.1810    0.5260    0.4230 ce        1 ZOP      0.322800
     16 CAN         0.0610   -0.5830   -0.5550 ca        1 ZOP     -0.094800
     17 CAM        -0.0250   -1.9040   -0.1000 ca        1 ZOP     -0.101500
     18 CAC        -0.1120   -2.9490   -1.0200 ca        1 ZOP     -0.133000
     19 CAA        -0.1160   -2.6800   -2.3880 ca        1 ZOP     -0.114000
     20 CAB        -0.0310   -1.3630   -2.8410 ca        1 ZOP     -0.133000
     21 CAD         0.0570   -0.3130   -1.9290 ca        1 ZOP     -0.101500
     22 CBD         1.4210    1.0580    0.7000 cd        1 ZOP     -0.281400
     23 CBC         2.7300    0.7060    0.1570 ca        1 ZOP     -0.033800
     24 CBB         3.1610   -0.2250   -0.7690 ca        1 ZOP     -0.108000
     25 CBJ         1.6690    2.1630    1.6760 c         1 ZOP      0.719700
     26 OBK         0.8570    2.7820    2.3880 o         1 ZOP     -0.659500
     27 NBI         3.0560    2.4210    1.7000 n         1 ZOP     -0.470100
     28 CBH         3.7040    1.5740    0.7870 ca        1 ZOP      0.036600
     29 CBG         5.0570    1.4870    0.4800 ca        1 ZOP     -0.144000
     30 CBF         5.4530    0.5300   -0.4680 ca        1 ZOP     -0.113600
     31 CBA         4.5240   -0.3060   -1.0840 ca        1 ZOP     -0.110000
     32 OBE         7.2120    0.6150   -2.0760 o         1 ZOP     -0.600100
     33 CAX        10.0150    1.3530    0.2060 c3        1 ZOP     -0.118100
     34 CAT         9.2470    0.1330   -0.2830 c3        1 ZOP      0.087000
     35 C21         6.8850    0.4400   -0.8840 c         1 ZOP      0.673700
     36 N25         7.8440    0.1100    0.0670 n         1 ZOP     -0.473800
     37 C29         7.5240   -0.0470    1.4540 c3        1 ZOP      0.081300
     38 HAJ1       -9.0020   -1.0160    0.3070 h1        1 ZOP      0.031200
     39 HAJ2       -8.1510   -1.9370   -1.0130 h1        1 ZOP      0.031200
     40 HAL1       -8.8190   -0.3010   -2.7010 hc        1 ZOP      0.047450
     41 HAL2      -10.2730   -0.7770   -1.7330 hc        1 ZOP      0.047450
     42 HAW1      -10.1120    1.7240   -2.1710 hc        1 ZOP      0.040200
     43 HAW2      -10.1510    1.3000   -0.4130 hc        1 ZOP      0.040200
     44 HAV1       -7.6660    2.0060   -2.1180 hc        1 ZOP      0.047450
     45 HAV2       -8.3950    2.9880   -0.7810 hc        1 ZOP      0.047450
     46 HAK1       -6.3350    1.6980   -0.0820 h1        1 ZOP      0.031200
     47 HAK2       -7.8270    1.3560    0.9070 h1        1 ZOP      0.031200
     48 HAH1       -6.8180   -0.8250    1.6070 h1        1 ZOP      0.039200
     49 HAH2       -6.2800   -1.9600    0.2890 h1        1 ZOP      0.039200
     50 HAS        -4.9800   -0.2180    2.8440 ha        1 ZOP      0.144000
     51 HAF        -4.5850   -0.3710   -1.4590 ha        1 ZOP      0.144000
     52 HAR        -2.6410    0.5370    3.0500 ha        1 ZOP      0.143500
     53 HAE        -2.2420    0.4020   -1.2850 ha        1 ZOP      0.143500
     54 HAM        -0.0210   -2.1170    0.9790 ha        1 ZOP      0.146000
     55 HAD         0.1320    0.7260   -2.2860 ha        1 ZOP      0.146000
     56 HAC        -0.1790   -3.9870   -0.6610 ha        1 ZOP      0.140000
     57 HAA        -0.1860   -3.5070   -3.1110 ha        1 ZOP      0.138000
     58 HAB        -0.0320   -1.1510   -3.9210 ha        1 ZOP      0.140000
     59 HBB         2.4460   -0.8980   -1.2660 ha        1 ZOP      0.147000
     60 HBA         4.8650   -1.0320   -1.8390 ha        1 ZOP      0.147000
     61 HBI         3.4900    3.1570    2.1910 hn        1 ZOP      0.339500
     62 HBG         5.7980    2.1460    0.9530 ha        1 ZOP      0.142000
     63 HAX1       11.0850    1.2470   -0.0940 hc        1 ZOP      0.040367
     64 HAX2        9.6100    2.2890   -0.2460 hc        1 ZOP      0.040367
     65 HAX3        9.9630    1.4440    1.3180 hc        1 ZOP      0.040367
     66 HAT1        9.3360    0.0740   -1.4070 h1        1 ZOP      0.061200
     67 HAT2        9.7240   -0.7930    0.1520 h1        1 ZOP      0.061200
     68 H291        7.6420    0.9250    2.0090 h1        1 ZOP      0.039700
     69 H292        6.4690   -0.4070    1.5800 h1        1 ZOP      0.039700
     70 H293        8.2190   -0.8010    1.9130 h1        1 ZOP      0.039700
     71 HAP        -0.8210    1.6770    1.7780 hn        1 ZOP      0.478800
@<TRIPOS>BOND
     1    1    2 1   
     2    1    6 1   
     3    1   38 1   
     4    1   39 1   
     5    2    3 1   
     6    2   40 1   
     7    2   41 1   
     8    3    4 1   
     9    3   42 1   
    10    3   43 1   
    11    4    5 1   
    12    4   44 1   
    13    4   45 1   
    14    5    6 1   
    15    5   46 1   
    16    5   47 1   
    17    6    7 1   
    18    7    8 1   
    19    7   48 1   
    20    7   49 1   
    21    8    9 ar  
    22    8   11 ar  
    23    9   10 ar  
    24    9   50 1   
    25   10   13 ar  
    26   10   52 1   
    27   11   12 ar  
    28   11   51 1   
    29   12   13 ar  
    30   12   53 1   
    31   13   14 1   
    32   14   15 1   
    33   14   71 1   
    34   15   16 1   
    35   15   22 2   
    36   16   17 ar  
    37   16   21 ar  
    38   17   18 ar  
    39   17   54 1   
    40   18   19 ar  
    41   18   56 1   
    42   19   20 ar  
    43   19   57 1   
    44   20   21 ar  
    45   20   58 1   
    46   21   55 1   
    47   22   23 1   
    48   22   25 1   
    49   23   24 ar  
    50   23   28 ar  
    51   24   31 ar  
    52   24   59 1   
    53   25   26 2   
    54   25   27 1   
    55   27   28 1   
    56   27   61 1   
    57   28   29 ar  
    58   29   30 ar  
    59   29   62 1   
    60   30   31 ar  
    61   30   35 1   
    62   31   60 1   
    63   32   35 2   
    64   33   34 1   
    65   33   63 1   
    66   33   64 1   
    67   33   65 1   
    68   34   36 1   
    69   34   66 1   
    70   34   67 1   
    71   35   36 1   
    72   36   37 1   
    73   37   68 1   
    74   37   69 1   
    75   37   70 1   
@<TRIPOS>SUBSTRUCTURE
     1 ZOP         1 TEMP              0 ****  ****    0 ROOT
