@<TRIPOS>MOLECULE
ZOP
   72    76     1     0     0
SMALL
bcc


@<TRIPOS>ATOM
      1 CAJ        -1.9810    0.7690    0.3040 c3        1 ZOP      0.167800
      2 CAL        -1.0230    1.4900   -0.6420 c3        1 ZOP     -0.076900
      3 CAW         0.3610    1.6030   -0.0410 c3        1 ZOP     -0.080400
      4 CAV         0.8650    0.2400    0.3820 c3        1 ZOP     -0.076900
      5 CAK        -0.1330   -0.4500    1.3080 c3        1 ZOP      0.167800
      6 NAI        -1.4780   -0.5260    0.7510 n3        1 ZOP     -0.732600
      7 CAH        -2.4150   -1.1790    1.6570 c3        1 ZOP      0.209100
      8 CAG        -2.1500   -2.6440    1.8540 ca        1 ZOP     -0.062300
      9 CAS        -2.2520   -3.1980    3.1360 ca        1 ZOP     -0.105500
     10 CAR        -2.0650   -4.5600    3.3400 ca        1 ZOP     -0.128500
     11 CAF        -1.8480   -3.4780    0.7730 ca        1 ZOP     -0.105500
     12 CAE        -1.6490   -4.8430    0.9610 ca        1 ZOP     -0.128500
     13 CAQ        -1.7630   -5.4010    2.2480 ca        1 ZOP      0.081600
     14 NAP        -1.5160   -6.7770    2.4940 nu        1 ZOP     -0.577400
     15 CAO        -2.0820   -7.8190    1.8410 ce        1 ZOP      0.374800
     16 CAN        -3.0590   -7.5640    0.7540 ca        1 ZOP     -0.120800
     17 CAM        -4.3910   -7.2770    1.0730 ca        1 ZOP     -0.101000
     18 CAC        -5.3100   -7.0400    0.0500 ca        1 ZOP     -0.131500
     19 CAA        -4.9030   -7.0830   -1.2830 ca        1 ZOP     -0.108000
     20 CAB        -3.5730   -7.3670   -1.5990 ca        1 ZOP     -0.131500
     21 CAD        -2.6480   -7.6070   -0.5840 ca        1 ZOP     -0.101000
     22 CBD        -1.7700   -9.1360    2.1820 cd        1 ZOP     -0.346400
     23 CBC        -2.2650  -10.3730    1.6310 ca        1 ZOP      0.059200
     24 CBB        -3.1700  -10.6880    0.6240 ca        1 ZOP     -0.133000
     25 CBJ        -0.8080   -9.5110    3.2560 c         1 ZOP      0.724700
     26 OBK        -0.1420   -8.7840    4.0090 o         1 ZOP     -0.629500
     27 NBI        -0.7560  -10.9280    3.3150 ns        1 ZOP     -0.463100
     28 CBH        -1.6140  -11.4610    2.3510 ca        1 ZOP      0.034600
     29 CBG        -1.8810  -12.7860    2.0490 ca        1 ZOP     -0.093000
     30 CBF        -2.8210  -13.0630    1.0270 ca        1 ZOP     -0.214600
     31 CBA        -3.4450  -12.0210    0.3270 ca        1 ZOP     -0.103000
     32 OBE        -2.3390  -15.4310    1.0180 o         1 ZOP     -0.449100
     33 CAX        -3.4720  -16.2410   -1.7920 c3        1 ZOP     -0.128100
     34 CAT        -4.2320  -14.9980   -1.3810 c3        1 ZOP      0.116800
     35 C21        -3.0580  -14.4740    0.7570 c         1 ZOP      0.580700
     36 N25        -4.4000  -14.8220    0.0990 nx        1 ZOP     -0.598200
     37 C29        -5.0060  -16.0150    0.7340 c3        1 ZOP      0.085100
     38 HAJ1       -2.1980    1.4500    1.1800 h1        1 ZOP      0.031950
     39 HAJ2       -2.9530    0.5870   -0.2360 h1        1 ZOP      0.031950
     40 HAL1       -1.4380    2.5100   -0.8510 hc        1 ZOP      0.049450
     41 HAL2       -0.9670    0.9370   -1.6160 hc        1 ZOP      0.049450
     42 HAW1        1.0640    2.0540   -0.7880 hc        1 ZOP      0.044700
     43 HAW2        0.3310    2.2860    0.8480 hc        1 ZOP      0.044700
     44 HAV1        1.0420   -0.3940   -0.5250 hc        1 ZOP      0.049450
     45 HAV2        1.8400    0.3400    0.9250 hc        1 ZOP      0.049450
     46 HAK1        0.2090   -1.5080    1.4940 h1        1 ZOP      0.031950
     47 HAK2       -0.1290    0.0900    2.3020 h1        1 ZOP      0.031950
     48 HAH1       -2.4380   -0.6720    2.6680 h1        1 ZOP      0.045700
     49 HAH2       -3.4500   -1.0850    1.2120 h1        1 ZOP      0.045700
     50 HAS        -2.4820   -2.5510    3.9980 ha        1 ZOP      0.155000
     51 HAF        -1.7560   -3.0500   -0.2390 ha        1 ZOP      0.155000
     52 HAR        -2.1440   -4.9700    4.3600 ha        1 ZOP      0.144000
     53 HAE        -1.4050   -5.4790    0.0960 ha        1 ZOP      0.144000
     54 HAM        -4.7120   -7.2320    2.1240 ha        1 ZOP      0.148500
     55 HAD        -1.5980   -7.8240   -0.8330 ha        1 ZOP      0.148500
     56 HAC        -6.3570   -6.8070    0.3010 ha        1 ZOP      0.148000
     57 HAA        -5.6280   -6.8830   -2.0870 ha        1 ZOP      0.147000
     58 HAB        -3.2490   -7.3910   -2.6500 ha        1 ZOP      0.148000
     59 HBB        -3.6660   -9.8840    0.0540 ha        1 ZOP      0.165000
     60 HBA        -4.1440  -12.2230   -0.4990 ha        1 ZOP      0.116000
     61 HBI        -0.1720  -11.4530    3.9120 hn        1 ZOP      0.353500
     62 HBG        -1.3820  -13.6140    2.5770 ha        1 ZOP      0.165000
     63 HAX1       -3.2910  -16.1870   -2.8950 hc        1 ZOP      0.078700
     64 HAX2       -4.0590  -17.1680   -1.5770 hc        1 ZOP      0.078700
     65 HAX3       -2.4830  -16.3140   -1.2730 hc        1 ZOP      0.078700
     66 HAT1       -3.6930  -14.0800   -1.7580 hx        1 ZOP      0.094700
     67 HAT2       -5.2660  -15.0220   -1.8330 hx        1 ZOP      0.094700
     68 H291       -5.2490  -15.7770    1.8040 hx        1 ZOP      0.104367
     69 H292       -4.2750  -16.8690    0.7040 hx        1 ZOP      0.104367
     70 H293       -5.9410  -16.2990    0.1830 hx        1 ZOP      0.104367
     71 HAP        -0.8940   -6.9700    3.2630 hn        1 ZOP      0.489800
     72 H251       -5.0310  -14.0240    0.2470 hn        1 ZOP      0.451800
@<TRIPOS>BOND
     1    1    2 1   
     2    1    6 1   
     3    1   38 1   
     4    1   39 1   
     5    2    3 1   
     6    2   40 1   
     7    2   41 1   
     8    3    4 1   
     9    3   42 1   
    10    3   43 1   
    11    4    5 1   
    12    4   44 1   
    13    4   45 1   
    14    5    6 1   
    15    5   46 1   
    16    5   47 1   
    17    6    7 1   
    18    7    8 1   
    19    7   48 1   
    20    7   49 1   
    21    8    9 ar  
    22    8   11 ar  
    23    9   10 ar  
    24    9   50 1   
    25   10   13 ar  
    26   10   52 1   
    27   11   12 ar  
    28   11   51 1   
    29   12   13 ar  
    30   12   53 1   
    31   13   14 1   
    32   14   15 1   
    33   14   71 1   
    34   15   16 1   
    35   15   22 2   
    36   16   17 ar  
    37   16   21 ar  
    38   17   18 ar  
    39   17   54 1   
    40   18   19 ar  
    41   18   56 1   
    42   19   20 ar  
    43   19   57 1   
    44   20   21 ar  
    45   20   58 1   
    46   21   55 1   
    47   22   23 1   
    48   22   25 1   
    49   23   24 ar  
    50   23   28 ar  
    51   24   31 ar  
    52   24   59 1   
    53   25   26 2   
    54   25   27 1   
    55   27   28 1   
    56   27   61 1   
    57   28   29 ar  
    58   29   30 ar  
    59   29   62 1   
    60   30   31 ar  
    61   30   35 1   
    62   31   60 1   
    63   32   35 2   
    64   33   34 1   
    65   33   63 1   
    66   33   64 1   
    67   33   65 1   
    68   34   36 1   
    69   34   66 1   
    70   34   67 1   
    71   35   36 1   
    72   36   37 1   
    73   36   72 1   
    74   37   68 1   
    75   37   69 1   
    76   37   70 1   
@<TRIPOS>SUBSTRUCTURE
     1 ZOP         1 TEMP              0 ****  ****    0 ROOT
