@<TRIPOS>MOLECULE
ZPC
   44    47     1     0     0
SMALL
bcc


@<TRIPOS>ATOM
      1 C01        -4.4070    3.0490    1.5630 c3        1 ZPC      0.156100
      2 N02        -4.3330    1.7570    0.9190 n3        1 ZPC     -0.732600
      3 C03        -4.0810    1.8630   -0.5110 c3        1 ZPC      0.137300
      4 C04        -3.9840    0.4890   -1.2070 c3        1 ZPC      0.070000
      5 N05        -3.1010   -0.4500   -0.5340 n         1 ZPC     -0.392800
      6 C06        -3.3150   -0.5240    0.8990 c3        1 ZPC      0.070000
      7 C07        -3.4080    0.8530    1.5890 c3        1 ZPC      0.137300
      8 C08        -1.8270   -0.6120   -1.0650 c         1 ZPC      0.734100
      9 O09        -1.4540   -0.3720   -2.2260 o         1 ZPC     -0.588000
     10 O10        -0.9120   -1.2010   -0.2000 os        1 ZPC     -0.437900
     11 C11         0.3220   -1.6560   -0.7770 c3        1 ZPC      0.270200
     12 N12         1.4750   -0.8290   -0.3680 n         1 ZPC     -0.476300
     13 C13         2.3450   -1.5310    0.5200 c         1 ZPC      0.623000
     14 O14         3.3740   -1.0920    1.0230 o         1 ZPC     -0.511500
     15 C15         1.8200   -2.9410    0.6100 ca        1 ZPC      0.245500
     16 N16         2.3350   -3.9890    1.2700 nb        1 ZPC     -0.554000
     17 C17         1.6170   -5.1330    1.1450 ca        1 ZPC      0.279900
     18 C18         0.4260   -5.2180    0.3800 ca        1 ZPC      0.296900
     19 N19        -0.0970   -4.1580   -0.2880 nb        1 ZPC     -0.588000
     20 C20         0.6100   -3.0270   -0.1620 ca        1 ZPC      0.282300
     21 C21         1.3840    0.5870   -0.3880 ca        1 ZPC      0.517200
     22 N22         1.6520    1.2900    0.7570 nb        1 ZPC     -0.661000
     23 C23         1.6360    2.6270    0.6870 ca        1 ZPC      0.422200
     24 C24         1.3380    3.3450   -0.4920 ca        1 ZPC     -0.120900
     25 CL          1.3430    5.0360   -0.4850 cl        1 ZPC     -0.071400
     26 C26         1.0360    2.6270   -1.6520 ca        1 ZPC     -0.079000
     27 C27         1.0540    1.2360   -1.6110 ca        1 ZPC     -0.226300
     28 H01        -5.2010    3.6580    1.0580 h1        1 ZPC      0.036367
     29 H01A       -4.6950    2.8990    2.6370 h1        1 ZPC      0.036367
     30 H01B       -3.4400    3.6210    1.5280 h1        1 ZPC      0.036367
     31 H03        -4.9470    2.4170   -0.9710 h1        1 ZPC      0.044700
     32 H03A       -3.1410    2.4490   -0.7300 h1        1 ZPC      0.044700
     33 H04        -5.0020    0.0070   -1.2240 h1        1 ZPC      0.079200
     34 H04A       -3.6390    0.6470   -2.2670 h1        1 ZPC      0.079200
     35 H06        -4.2880   -1.0760    1.0440 h1        1 ZPC      0.079200
     36 H06A       -2.4930   -1.1140    1.3910 h1        1 ZPC      0.079200
     37 H07        -2.3710    1.2930    1.6670 h1        1 ZPC      0.044700
     38 H07A       -3.7900    0.6860    2.6350 h1        1 ZPC      0.044700
     39 H11         0.2660   -1.6840   -1.9050 h2        1 ZPC      0.134700
     40 H17         2.0160   -6.0130    1.6800 h4        1 ZPC      0.045100
     41 H18        -0.1340   -6.1650    0.2950 h4        1 ZPC      0.044100
     42 H23         1.8720    3.1530    1.6310 h4        1 ZPC      0.041100
     43 H26         0.7900    3.1470   -2.5910 ha        1 ZPC      0.157000
     44 H27         0.7910    0.6490   -2.5060 ha        1 ZPC      0.172000
@<TRIPOS>BOND
     1    1    2 1   
     2    1   28 1   
     3    1   29 1   
     4    1   30 1   
     5    2    3 1   
     6    2    7 1   
     7    3    4 1   
     8    3   31 1   
     9    3   32 1   
    10    4    5 1   
    11    4   33 1   
    12    4   34 1   
    13    5    6 1   
    14    5    8 1   
    15    6    7 1   
    16    6   35 1   
    17    6   36 1   
    18    7   37 1   
    19    7   38 1   
    20    8    9 2   
    21    8   10 1   
    22   10   11 1   
    23   11   12 1   
    24   11   20 1   
    25   11   39 1   
    26   12   13 1   
    27   12   21 1   
    28   13   14 2   
    29   13   15 1   
    30   15   16 ar  
    31   15   20 ar  
    32   16   17 ar  
    33   17   18 ar  
    34   17   40 1   
    35   18   19 ar  
    36   18   41 1   
    37   19   20 ar  
    38   21   22 ar  
    39   21   27 ar  
    40   22   23 ar  
    41   23   24 ar  
    42   23   42 1   
    43   24   25 1   
    44   24   26 ar  
    45   26   27 ar  
    46   26   43 1   
    47   27   44 1   
@<TRIPOS>SUBSTRUCTURE
     1 ZPC         1 TEMP              0 ****  ****    0 ROOT
