@<TRIPOS>MOLECULE
ZPC
   44    47     1     0     0
SMALL
bcc


@<TRIPOS>ATOM
      1 C01         0.2640   -1.2480   -0.5600 c3        1 ZPC      0.156100
      2 N02         1.5180   -0.6680   -0.1350 n3        1 ZPC     -0.732600
      3 C03         1.8060   -0.9320    1.2680 c3        1 ZPC      0.137300
      4 C04         3.1510   -0.3310    1.7280 c3        1 ZPC      0.070000
      5 N05         4.2640   -0.6330    0.8430 n         1 ZPC     -0.392800
      6 C06         3.9670   -0.4180   -0.5610 c3        1 ZPC      0.070000
      7 C07         2.6230   -1.0240   -1.0140 c3        1 ZPC      0.137300
      8 C08         5.1210   -1.6570    1.2320 c         1 ZPC      0.734100
      9 O09         5.3070   -2.0940    2.3810 o         1 ZPC     -0.588000
     10 O10         5.9170   -2.1620    0.2110 os        1 ZPC     -0.437900
     11 C11         7.0120   -3.0050    0.6030 c3        1 ZPC      0.270200
     12 N12         6.7970   -4.4180    0.2330 n         1 ZPC     -0.476300
     13 C13         7.6640   -4.8290   -0.8250 c         1 ZPC      0.623000
     14 O14         7.7030   -5.9430   -1.3380 o         1 ZPC     -0.511500
     15 C15         8.5940   -3.6730   -1.0910 ca        1 ZPC      0.245500
     16 N16         9.6230   -3.6030   -1.9480 nb        1 ZPC     -0.554000
     17 C17        10.2710   -2.4100   -1.9460 ca        1 ZPC      0.279900
     18 C18         9.8970   -1.3320   -1.1040 ca        1 ZPC      0.296900
     19 N19         8.8560   -1.4010   -0.2360 nb        1 ZPC     -0.588000
     20 C20         8.2140   -2.5770   -0.2420 ca        1 ZPC      0.282300
     21 C21         5.5480   -5.0420    0.4830 ca        1 ZPC      0.517200
     22 N22         4.8740   -5.6290   -0.5550 nb        1 ZPC     -0.661000
     23 C23         3.7380   -6.2790   -0.2750 ca        1 ZPC      0.422200
     24 C24         3.1900   -6.3710    1.0230 ca        1 ZPC     -0.120900
     25 CL          1.7480   -7.2160    1.2820 cl        1 ZPC     -0.071400
     26 C26         3.8620   -5.7470    2.0780 ca        1 ZPC     -0.079000
     27 C27         5.0510   -5.0720    1.8170 ca        1 ZPC     -0.226300
     28 H01         0.2560   -2.3720   -0.5170 h1        1 ZPC      0.036367
     29 H01A       -0.5540   -0.8590    0.1010 h1        1 ZPC      0.036367
     30 H01B        0.0590   -0.9290   -1.6150 h1        1 ZPC      0.036367
     31 H03         0.9920   -0.4540    1.8800 h1        1 ZPC      0.044700
     32 H03A        1.8050   -2.0380    1.4950 h1        1 ZPC      0.044700
     33 H04         3.0670    0.7930    1.7550 h1        1 ZPC      0.079200
     34 H04A        3.3740   -0.7040    2.7670 h1        1 ZPC      0.079200
     35 H06         3.9360    0.7000   -0.7070 h1        1 ZPC      0.079200
     36 H06A        4.7850   -0.8410   -1.2070 h1        1 ZPC      0.079200
     37 H07         2.7410   -2.1430   -1.1100 h1        1 ZPC      0.044700
     38 H07A        2.3910   -0.6150   -2.0370 h1        1 ZPC      0.044700
     39 H11         7.2100   -2.9370    1.7130 h2        1 ZPC      0.134700
     40 H17        11.1210   -2.3230   -2.6440 h4        1 ZPC      0.045100
     41 H18        10.4470   -0.3740   -1.1230 h4        1 ZPC      0.044100
     42 H23         3.2350   -6.7500   -1.1410 h4        1 ZPC      0.041100
     43 H26         3.4650   -5.7880    3.1040 ha        1 ZPC      0.157000
     44 H27         5.5840   -4.5490    2.6270 ha        1 ZPC      0.172000
@<TRIPOS>BOND
     1    1    2 1   
     2    1   28 1   
     3    1   29 1   
     4    1   30 1   
     5    2    3 1   
     6    2    7 1   
     7    3    4 1   
     8    3   31 1   
     9    3   32 1   
    10    4    5 1   
    11    4   33 1   
    12    4   34 1   
    13    5    6 1   
    14    5    8 1   
    15    6    7 1   
    16    6   35 1   
    17    6   36 1   
    18    7   37 1   
    19    7   38 1   
    20    8    9 2   
    21    8   10 1   
    22   10   11 1   
    23   11   12 1   
    24   11   20 1   
    25   11   39 1   
    26   12   13 1   
    27   12   21 1   
    28   13   14 2   
    29   13   15 1   
    30   15   16 ar  
    31   15   20 ar  
    32   16   17 ar  
    33   17   18 ar  
    34   17   40 1   
    35   18   19 ar  
    36   18   41 1   
    37   19   20 ar  
    38   21   22 ar  
    39   21   27 ar  
    40   22   23 ar  
    41   23   24 ar  
    42   23   42 1   
    43   24   25 1   
    44   24   26 ar  
    45   26   27 ar  
    46   26   43 1   
    47   27   44 1   
@<TRIPOS>SUBSTRUCTURE
     1 ZPC         1 TEMP              0 ****  ****    0 ROOT
