@<TRIPOS>MOLECULE
ZPC
   44    47     1     0     0
SMALL
bcc


@<TRIPOS>ATOM
      1 C01         0.2840   -1.2300   -0.6450 c3        1 ZPC      0.156100
      2 N02         1.5280   -0.6590   -0.1820 n3        1 ZPC     -0.732600
      3 C03         1.7840   -0.9440    1.2220 c3        1 ZPC      0.137300
      4 C04         3.1170   -0.3510    1.7230 c3        1 ZPC      0.070000
      5 N05         4.2510   -0.6430    0.8600 n         1 ZPC     -0.392800
      6 C06         3.9870   -0.4060   -0.5470 c3        1 ZPC      0.070000
      7 C07         2.6530   -1.0040   -1.0410 c3        1 ZPC      0.137300
      8 C08         5.0970   -1.6730    1.2550 c         1 ZPC      0.734100
      9 O09         5.2550   -2.1270    2.4010 o         1 ZPC     -0.588000
     10 O10         5.9160   -2.1650    0.2450 os        1 ZPC     -0.437900
     11 C11         7.0010   -3.0150    0.6510 c3        1 ZPC      0.270200
     12 N12         6.7930   -4.4220    0.2550 n         1 ZPC     -0.476300
     13 C13         7.6840   -4.8190   -0.7880 c         1 ZPC      0.623000
     14 O14         7.7330   -5.9260   -1.3150 o         1 ZPC     -0.511500
     15 C15         8.6210   -3.6610   -1.0160 ca        1 ZPC      0.245500
     16 N16         9.6690   -3.5800   -1.8480 nb        1 ZPC     -0.554000
     17 C17        10.3180   -2.3890   -1.8130 ca        1 ZPC      0.279900
     18 C18         9.9260   -1.3220   -0.9660 ca        1 ZPC      0.296900
     19 N19         8.8650   -1.4020   -0.1230 nb        1 ZPC     -0.588000
     20 C20         8.2220   -2.5770   -0.1610 ca        1 ZPC      0.282300
     21 C21         5.5370   -5.0480    0.4670 ca        1 ZPC      0.517200
     22 N22         4.8870   -5.6190   -0.5950 nb        1 ZPC     -0.661000
     23 C23         3.7440   -6.2710   -0.3500 ca        1 ZPC      0.422200
     24 C24         3.1660   -6.3810    0.9330 ca        1 ZPC     -0.120900
     25 Cl          1.7170   -7.2270    1.1460 cl        1 ZPC     -0.071400
     26 C26         3.8140   -5.7740    2.0120 ca        1 ZPC     -0.079000
     27 C27         5.0100   -5.0960    1.7890 ca        1 ZPC     -0.226300
     28 H01        -0.5490   -0.8500    0.0020 h1        1 ZPC      0.036367
     29 H01A        0.2730   -2.3550   -0.6190 h1        1 ZPC      0.036367
     30 H01B        0.1050   -0.8960   -1.7000 h1        1 ZPC      0.036367
     31 H03         1.7750   -2.0530    1.4340 h1        1 ZPC      0.044700
     32 H03A        0.9550   -0.4730    1.8230 h1        1 ZPC      0.044700
     33 H04         3.3160   -0.7400    2.7610 h1        1 ZPC      0.079200
     34 H04A        3.0340    0.7720    1.7640 h1        1 ZPC      0.079200
     35 H06         3.9610    0.7140   -0.6780 h1        1 ZPC      0.079200
     36 H06A        4.8190   -0.8210   -1.1800 h1        1 ZPC      0.079200
     37 H07         2.4460   -0.5790   -2.0630 h1        1 ZPC      0.044700
     38 H07A        2.7720   -2.1220   -1.1490 h1        1 ZPC      0.044700
     39 H11         7.1730   -2.9630    1.7660 h2        1 ZPC      0.134700
     40 H17        11.1850   -2.2930   -2.4900 h4        1 ZPC      0.045100
     41 H18        10.4770   -0.3650   -0.9580 h4        1 ZPC      0.044100
     42 H23         3.2610   -6.7280   -1.2340 h4        1 ZPC      0.041100
     43 H26         3.3930   -5.8280    3.0280 ha        1 ZPC      0.157000
     44 H27         5.5240   -4.5850    2.6180 ha        1 ZPC      0.172000
@<TRIPOS>BOND
     1    1    2 1   
     2    1   28 1   
     3    1   29 1   
     4    1   30 1   
     5    2    3 1   
     6    2    7 1   
     7    3    4 1   
     8    3   31 1   
     9    3   32 1   
    10    4    5 1   
    11    4   33 1   
    12    4   34 1   
    13    5    6 1   
    14    5    8 1   
    15    6    7 1   
    16    6   35 1   
    17    6   36 1   
    18    7   37 1   
    19    7   38 1   
    20    8    9 2   
    21    8   10 1   
    22   10   11 1   
    23   11   12 1   
    24   11   20 1   
    25   11   39 1   
    26   12   13 1   
    27   12   21 1   
    28   13   14 2   
    29   13   15 1   
    30   15   16 ar  
    31   15   20 ar  
    32   16   17 ar  
    33   17   18 ar  
    34   17   40 1   
    35   18   19 ar  
    36   18   41 1   
    37   19   20 ar  
    38   21   22 ar  
    39   21   27 ar  
    40   22   23 ar  
    41   23   24 ar  
    42   23   42 1   
    43   24   25 1   
    44   24   26 ar  
    45   26   27 ar  
    46   26   43 1   
    47   27   44 1   
@<TRIPOS>SUBSTRUCTURE
     1 ZPC         1 TEMP              0 ****  ****    0 ROOT
