@<TRIPOS>MOLECULE
ZPE
  116   115     1     0     0
SMALL
bcc


@<TRIPOS>ATOM
      1 N           0.8190   -4.2770   -2.1190 n3        1 ZPE     -0.908800
      2 P          -2.4870   -4.2560   -0.4520 p5        1 ZPE      1.443800
      3 C'         -5.4610   -3.6000    2.3190 c         1 ZPE      0.669100
      4 O'         -6.2810   -4.5210    2.4060 o         1 ZPE     -0.586000
      5 C1         -3.4530   -5.7080    1.4720 c3        1 ZPE      0.174400
      6 C2         -3.7360   -5.1600    2.8810 c3        1 ZPE      0.114100
      7 O2         -4.1970   -3.8030    2.8100 os        1 ZPE     -0.418900
      8 C3         -2.5200   -5.1660    3.8040 c3        1 ZPE      0.154400
      9 O3         -1.7040   -4.0290    3.5230 os        1 ZPE     -0.407900
     10 C4         -0.7690   -2.4950   -1.2280 c3        1 ZPE      0.158400
     11 C5          0.6610   -2.9500   -1.5790 c3        1 ZPE      0.134800
     12 CB         -0.3570   -4.2250    3.3830 c         1 ZPE      0.658100
     13 OB          0.1350   -5.2840    3.7860 o         1 ZPE     -0.579000
     14 C1'        -5.6310   -2.2340    1.7430 c3        1 ZPE     -0.155400
     15 C1B         0.3180   -3.0450    2.7610 c3        1 ZPE     -0.146400
     16 O1P        -3.7970   -3.5810   -0.3650 o         1 ZPE     -0.841000
     17 C2'        -7.0780   -1.7990    1.7370 c3        1 ZPE     -0.069400
     18 C2B         1.8040   -3.0450    3.0450 c3        1 ZPE     -0.073400
     19 O2P        -1.9950   -5.0070   -1.6230 o         1 ZPE     -0.841000
     20 C3'        -7.2440   -0.5170    0.9470 c3        1 ZPE     -0.054200
     21 C3B         2.4940   -1.9340    2.2830 c3        1 ZPE     -0.080400
     22 O3P        -2.3000   -5.1860    0.9010 os        1 ZPE     -0.559200
     23 C4'        -8.6440   -0.0320    0.9490 c2        1 ZPE     -0.155200
     24 C4B         3.9800   -1.9120    2.5750 c3        1 ZPE     -0.077400
     25 O4P        -1.2730   -3.1780   -0.1210 os        1 ZPE     -0.576200
     26 C5'        -9.0280    1.1370    0.4240 c2        1 ZPE     -0.195200
     27 C5B         4.6740   -0.8110    1.8020 c3        1 ZPE     -0.079400
     28 C6'        -8.0960    2.0940   -0.2160 c3        1 ZPE     -0.047200
     29 C6B         6.1590   -0.7840    2.0980 c3        1 ZPE     -0.078400
     30 C7'        -8.8160    3.2790   -0.8240 c3        1 ZPE     -0.075400
     31 C7B         6.8530    0.3140    1.3210 c3        1 ZPE     -0.079400
     32 C8'        -7.8410    4.2360   -1.4750 c3        1 ZPE     -0.080400
     33 C8B         8.3370    0.3460    1.6210 c3        1 ZPE     -0.077400
     34 C9'        -8.5580    5.4220   -2.0840 c3        1 ZPE     -0.078400
     35 C9B         9.0290    1.4430    0.8400 c3        1 ZPE     -0.051200
     36 CA'        -7.5820    6.3790   -2.7350 c3        1 ZPE     -0.079400
     37 CAA        10.4830    1.5030    1.1180 c2        1 ZPE     -0.167200
     38 CB'        -8.2980    7.5660   -3.3440 c3        1 ZPE     -0.078400
     39 CBA        11.3120    2.3910    0.5590 c2        1 ZPE     -0.182200
     40 CC'        -7.3230    8.5230   -3.9960 c3        1 ZPE     -0.080400
     41 CCA        10.8750    3.4250   -0.4080 c3        1 ZPE     -0.048200
     42 CD'        -8.0310    9.7060   -4.6030 c3        1 ZPE     -0.091100
     43 CDA        12.0240    4.2900   -0.8830 c3        1 ZPE     -0.076400
     44 CEA        11.5500    5.3360   -1.8690 c3        1 ZPE     -0.080400
     45 CFA        12.6960    6.2020   -2.3450 c3        1 ZPE     -0.078400
     46 CGA        12.2230    7.2490   -3.3320 c3        1 ZPE     -0.080400
     47 CHA        13.3610    8.1140   -3.8090 c3        1 ZPE     -0.092100
     48 HN          0.7140   -4.9590   -1.3900 hn        1 ZPE      0.360800
     49 HNA         0.0950   -4.4630   -2.7930 hn        1 ZPE      0.360800
     50 H1         -3.3130   -6.8240    1.5740 h1        1 ZPE      0.038700
     51 H1A        -4.3530   -5.4910    0.8270 h1        1 ZPE      0.038700
     52 H2         -4.5400   -5.7990    3.3480 h1        1 ZPE      0.054700
     53 H3         -2.8420   -5.0580    4.8740 h1        1 ZPE      0.054200
     54 H3A        -1.9540   -6.1230    3.6580 h1        1 ZPE      0.054200
     55 H4         -0.7300   -1.3990   -0.9640 h1        1 ZPE      0.017700
     56 H4A        -1.4460   -2.6340   -2.1160 h1        1 ZPE      0.017700
     57 H5          1.2920   -2.8610   -0.6500 h1        1 ZPE      0.026700
     58 H5A         1.0600   -2.2240   -2.3430 h1        1 ZPE      0.026700
     59 H1'        -4.9940   -1.5040    2.3060 hc        1 ZPE      0.115700
     60 H1'A       -5.2150   -2.3060    0.6890 hc        1 ZPE      0.115700
     61 H1B         0.1170   -3.1000    1.6500 hc        1 ZPE      0.104200
     62 H1BA       -0.1620   -2.1040    3.1350 hc        1 ZPE      0.104200
     63 H2'        -7.7090   -2.6110    1.2870 hc        1 ZPE      0.045700
     64 H2'A       -7.4360   -1.6460    2.7890 hc        1 ZPE      0.045700
     65 H2B         1.9800   -2.9200    4.1450 hc        1 ZPE      0.046700
     66 H2BA        2.2390   -4.0370    2.7530 hc        1 ZPE      0.046700
     67 H3'        -6.5700    0.2770    1.3710 hc        1 ZPE      0.054700
     68 H3'A       -6.9100   -0.6890   -0.1140 hc        1 ZPE      0.054700
     69 H3B         2.3270   -2.0750    1.1820 hc        1 ZPE      0.044200
     70 H3BA        2.0410   -0.9460    2.5620 hc        1 ZPE      0.044200
     71 H4'        -9.3860   -0.7040    1.4110 ha        1 ZPE      0.120000
     72 H4B         4.1460   -1.7640    3.6740 hc        1 ZPE      0.037700
     73 H4BA        4.4290   -2.9040    2.3020 hc        1 ZPE      0.037700
     74 H5'       -10.0870    1.4390    0.4520 ha        1 ZPE      0.112000
     75 H5B         4.5120   -0.9650    0.7030 hc        1 ZPE      0.041200
     76 H5BA        4.2190    0.1790    2.0680 hc        1 ZPE      0.041200
     77 H6'        -7.3520    2.4570    0.5460 hc        1 ZPE      0.050200
     78 H6'A       -7.5040    1.5640   -1.0130 hc        1 ZPE      0.050200
     79 H6B         6.3210   -0.6270    3.1970 hc        1 ZPE      0.038200
     80 H6BA        6.6120   -1.7760    1.8350 hc        1 ZPE      0.038200
     81 H7'        -9.5560    2.9180   -1.5870 hc        1 ZPE      0.036700
     82 H7'A       -9.3970    3.8160   -0.0290 hc        1 ZPE      0.036700
     83 H7B         6.6950    0.1530    0.2220 hc        1 ZPE      0.039700
     84 H7BA        6.3960    1.3050    1.5800 hc        1 ZPE      0.039700
     85 H8'        -7.1000    4.5950   -0.7130 hc        1 ZPE      0.041700
     86 H8'A       -7.2610    3.6980   -2.2710 hc        1 ZPE      0.041700
     87 H8B         8.4950    0.5090    2.7200 hc        1 ZPE      0.040200
     88 H8BA        8.7940   -0.6460    1.3640 hc        1 ZPE      0.040200
     89 H9'        -9.2990    5.0630   -2.8460 hc        1 ZPE      0.036700
     90 H9'A       -9.1380    5.9600   -1.2880 hc        1 ZPE      0.036700
     91 H9B         8.8670    1.2790   -0.2620 hc        1 ZPE      0.048200
     92 H9BA        8.5600    2.4350    1.0890 hc        1 ZPE      0.048200
     93 HA'        -6.8410    6.7370   -1.9730 hc        1 ZPE      0.040700
     94 HA'A       -7.0030    5.8400   -3.5310 hc        1 ZPE      0.040700
     95 HAA        10.8690    0.7560    1.8320 ha        1 ZPE      0.121000
     96 HB'        -9.0390    7.2070   -4.1060 hc        1 ZPE      0.037200
     97 HB'A       -8.8780    8.1040   -2.5480 hc        1 ZPE      0.037200
     98 HBA        12.3850    2.3840    0.8060 ha        1 ZPE      0.118000
     99 HC'        -6.5820    8.8780   -3.2320 hc        1 ZPE      0.039200
    100 HC'A       -6.7440    7.9820   -4.7900 hc        1 ZPE      0.039200
    101 HCA        10.3890    2.9280   -1.2930 hc        1 ZPE      0.048200
    102 HCAA       10.0880    4.0730    0.0670 hc        1 ZPE      0.048200
    103 HD'        -8.7570    9.3730   -5.3840 hc        1 ZPE      0.030367
    104 HD'A       -8.5940   10.2720   -3.8220 hc        1 ZPE      0.030367
    105 HD'B       -7.2950   10.3980   -5.0780 hc        1 ZPE      0.030367
    106 HDA        12.5050    4.7930   -0.0030 hc        1 ZPE      0.039200
    107 HDAA       12.8060    3.6460   -1.3650 hc        1 ZPE      0.039200
    108 HEA        11.0690    4.8320   -2.7490 hc        1 ZPE      0.040200
    109 HEAA       10.7670    5.9790   -1.3880 hc        1 ZPE      0.040200
    110 HFA        13.1780    6.7060   -1.4660 hc        1 ZPE      0.038200
    111 HFAA       13.4790    5.5590   -2.8270 hc        1 ZPE      0.038200
    112 HGA        11.7410    6.7430   -4.2100 hc        1 ZPE      0.039200
    113 HGAA       11.4390    7.8900   -2.8490 hc        1 ZPE      0.039200
    114 HHA        13.8390    8.6450   -2.9510 hc        1 ZPE      0.031033
    115 HHAA       14.1410    7.4950   -4.3160 hc        1 ZPE      0.031033
    116 HHAB       12.9910    8.8770   -4.5350 hc        1 ZPE      0.031033
@<TRIPOS>BOND
     1    1   11 1   
     2    1   48 1   
     3    1   49 1   
     4    2   16 1   
     5    2   19 1   
     6    2   22 1   
     7    2   25 1   
     8    3    4 2   
     9    3    7 1   
    10    3   14 1   
    11    5    6 1   
    12    5   22 1   
    13    5   50 1   
    14    5   51 1   
    15    6    7 1   
    16    6    8 1   
    17    6   52 1   
    18    8    9 1   
    19    8   53 1   
    20    8   54 1   
    21    9   12 1   
    22   10   11 1   
    23   10   25 1   
    24   10   55 1   
    25   10   56 1   
    26   11   57 1   
    27   11   58 1   
    28   12   13 2   
    29   12   15 1   
    30   14   17 1   
    31   14   59 1   
    32   14   60 1   
    33   15   18 1   
    34   15   61 1   
    35   15   62 1   
    36   17   20 1   
    37   17   63 1   
    38   17   64 1   
    39   18   21 1   
    40   18   65 1   
    41   18   66 1   
    42   20   23 1   
    43   20   67 1   
    44   20   68 1   
    45   21   24 1   
    46   21   69 1   
    47   21   70 1   
    48   23   26 2   
    49   23   71 1   
    50   24   27 1   
    51   24   72 1   
    52   24   73 1   
    53   26   28 1   
    54   26   74 1   
    55   27   29 1   
    56   27   75 1   
    57   27   76 1   
    58   28   30 1   
    59   28   77 1   
    60   28   78 1   
    61   29   31 1   
    62   29   79 1   
    63   29   80 1   
    64   30   32 1   
    65   30   81 1   
    66   30   82 1   
    67   31   33 1   
    68   31   83 1   
    69   31   84 1   
    70   32   34 1   
    71   32   85 1   
    72   32   86 1   
    73   33   35 1   
    74   33   87 1   
    75   33   88 1   
    76   34   36 1   
    77   34   89 1   
    78   34   90 1   
    79   35   37 1   
    80   35   91 1   
    81   35   92 1   
    82   36   38 1   
    83   36   93 1   
    84   36   94 1   
    85   37   39 2   
    86   37   95 1   
    87   38   40 1   
    88   38   96 1   
    89   38   97 1   
    90   39   41 1   
    91   39   98 1   
    92   40   42 1   
    93   40   99 1   
    94   40  100 1   
    95   41   43 1   
    96   41  101 1   
    97   41  102 1   
    98   42  103 1   
    99   42  104 1   
   100   42  105 1   
   101   43   44 1   
   102   43  106 1   
   103   43  107 1   
   104   44   45 1   
   105   44  108 1   
   106   44  109 1   
   107   45   46 1   
   108   45  110 1   
   109   45  111 1   
   110   46   47 1   
   111   46  112 1   
   112   46  113 1   
   113   47  114 1   
   114   47  115 1   
   115   47  116 1   
@<TRIPOS>SUBSTRUCTURE
     1 ZPE         1 TEMP              0 ****  ****    0 ROOT
