@<TRIPOS>MOLECULE
ZPG
   73    72     1     0     0
SMALL
bcc


@<TRIPOS>ATOM
      1 O29        -1.0670   -3.2120   -0.2290 oh        1 ZPG     -0.603800
      2 C27        -0.2170   -2.0980    0.0070 c3        1 ZPG      0.144100
      3 C28        -0.0250   -1.9910    1.5070 c3        1 ZPG     -0.094100
      4 C24         1.1330   -2.2910   -0.6930 c3        1 ZPG      0.089400
      5 O23         0.8410   -2.3600   -2.0860 os        1 ZPG     -0.428600
      6 C22         1.9750   -2.6970   -2.8890 c3        1 ZPG      0.147100
      7 C26         2.9500   -1.5440   -2.9970 c3        1 ZPG     -0.121100
      8 C21         1.4150   -3.1040   -4.2570 c3        1 ZPG      0.132400
      9 O20         0.9530   -1.9310   -4.9150 os        1 ZPG     -0.416600
     10 C20         0.3690   -2.2010   -6.1960 c3        1 ZPG      0.119100
     11 C25         1.4380   -2.4250   -7.2460 c3        1 ZPG     -0.113100
     12 C18        -0.5220   -0.9950   -6.5240 c3        1 ZPG      0.133400
     13 O17         0.1910    0.0100   -7.2290 os        1 ZPG     -0.422600
     14 C15         0.3990    1.2260   -6.5010 c3        1 ZPG      0.146100
     15 C16         1.3330    1.0390   -5.3270 c3        1 ZPG     -0.119100
     16 C14         0.9420    2.2260   -7.5290 c3        1 ZPG      0.132400
     17 O13         2.3460    2.0310   -7.6520 os        1 ZPG     -0.415600
     18 C11         2.8790    2.5320   -8.8830 c3        1 ZPG      0.140100
     19 C12         2.6930    4.0280   -9.0150 c3        1 ZPG     -0.117100
     20 C10         4.3570    2.1250   -8.8830 c3        1 ZPG      0.133400
     21 O9          5.0980    3.1080   -8.1690 os        1 ZPG     -0.416600
     22 C7          6.3130    2.6030   -7.6080 c3        1 ZPG      0.145100
     23 C8          7.2790    2.1410   -8.6780 c3        1 ZPG     -0.118100
     24 C6          6.8810    3.7470   -6.7610 c3        1 ZPG      0.134400
     25 O5          7.6240    4.6120   -7.6150 os        1 ZPG     -0.422600
     26 C4          7.9920    5.8210   -6.9540 c3        1 ZPG      0.130400
     27 C2          8.8330    6.6170   -7.9590 c3        1 ZPG      0.138100
     28 C3          7.9590    7.4060   -8.9130 c3        1 ZPG     -0.131100
     29 O1          9.6570    7.4710   -7.1710 oh        1 ZPG     -0.605800
     30 HO29       -1.1170   -3.3180   -1.1880 ho        1 ZPG      0.415000
     31 H27        -0.7100   -1.1690   -0.3960 h1        1 ZPG      0.045700
     32 H281        0.4770   -2.9060    1.9030 hc        1 ZPG      0.046033
     33 H282       -1.0180   -1.8910    2.0070 hc        1 ZPG      0.046033
     34 H283        0.5990   -1.0980    1.7430 hc        1 ZPG      0.046033
     35 H241        1.8080   -1.4220   -0.4850 h1        1 ZPG      0.038200
     36 H242        1.6220   -3.2420   -0.3530 h1        1 ZPG      0.038200
     37 H22         2.4870   -3.5990   -2.4440 h1        1 ZPG      0.036700
     38 H261        3.7780   -1.8190   -3.6920 hc        1 ZPG      0.048700
     39 H262        2.4290   -0.6410   -3.4030 hc        1 ZPG      0.048700
     40 H263        3.3810   -1.2970   -1.9980 hc        1 ZPG      0.048700
     41 H211        0.5660   -3.8260   -4.1240 h1        1 ZPG      0.035700
     42 H212        2.2320   -3.5820   -4.8580 h1        1 ZPG      0.035700
     43 H20        -0.2930   -3.1100   -6.1160 h1        1 ZPG      0.034700
     44 H251        2.1590   -1.5710   -7.2370 hc        1 ZPG      0.046367
     45 H252        0.9630   -2.4770   -8.2540 hc        1 ZPG      0.046367
     46 H253        1.9920   -3.3730   -7.0510 hc        1 ZPG      0.046367
     47 H181       -1.3220   -1.3340   -7.2390 h1        1 ZPG      0.052200
     48 H182       -0.9880   -0.6020   -5.5850 h1        1 ZPG      0.052200
     49 H15        -0.6020    1.6060   -6.1450 h1        1 ZPG      0.031700
     50 H161        0.8520    0.3980   -4.5480 hc        1 ZPG      0.052700
     51 H162        2.2720    0.5370   -5.6640 hc        1 ZPG      0.052700
     52 H163        1.5900    2.0310   -4.8880 hc        1 ZPG      0.052700
     53 H141        0.7570    3.2700   -7.1610 h1        1 ZPG      0.038700
     54 H142        0.4290    2.0730   -8.5150 h1        1 ZPG      0.038700
     55 H11         2.3700    2.0000   -9.7380 h1        1 ZPG      0.037700
     56 H121        1.6130    4.2770   -9.1490 hc        1 ZPG      0.046700
     57 H122        3.0750    4.5430   -8.1000 hc        1 ZPG      0.046700
     58 H123        3.2670    4.4000   -9.8970 hc        1 ZPG      0.046700
     59 H101        4.7340    2.0990   -9.9410 h1        1 ZPG      0.041700
     60 H102        4.4690    1.1120   -8.4140 h1        1 ZPG      0.041700
     61 H7          6.0640    1.7490   -6.9140 h1        1 ZPG      0.040700
     62 H81         7.4310    2.9510   -9.4310 hc        1 ZPG      0.046700
     63 H82         8.2640    1.8960   -8.2150 hc        1 ZPG      0.046700
     64 H83         6.8820    1.2360   -9.1960 hc        1 ZPG      0.046700
     65 H61         7.5680    3.3270   -5.9790 h1        1 ZPG      0.041200
     66 H62         6.0430    4.3100   -6.2710 h1        1 ZPG      0.041200
     67 H41         7.0740    6.3920   -6.6600 h1        1 ZPG      0.042200
     68 H42         8.6000    5.5920   -6.0380 h1        1 ZPG      0.042200
     69 H2          9.4890    5.9060   -8.5390 h1        1 ZPG      0.050700
     70 H31         8.5830    7.9010   -9.6940 hc        1 ZPG      0.046700
     71 H32         7.3890    8.1920   -8.3610 hc        1 ZPG      0.046700
     72 H33         7.2350    6.7150   -9.4080 hc        1 ZPG      0.046700
     73 HO1        10.0940    8.0730   -7.7830 ho        1 ZPG      0.403000
@<TRIPOS>BOND
     1    1    2 1   
     2    1   30 1   
     3    2    3 1   
     4    2    4 1   
     5    2   31 1   
     6    3   32 1   
     7    3   33 1   
     8    3   34 1   
     9    4    5 1   
    10    4   35 1   
    11    4   36 1   
    12    5    6 1   
    13    6    7 1   
    14    6    8 1   
    15    6   37 1   
    16    7   38 1   
    17    7   39 1   
    18    7   40 1   
    19    8    9 1   
    20    8   41 1   
    21    8   42 1   
    22    9   10 1   
    23   10   11 1   
    24   10   12 1   
    25   10   43 1   
    26   11   44 1   
    27   11   45 1   
    28   11   46 1   
    29   12   13 1   
    30   12   47 1   
    31   12   48 1   
    32   13   14 1   
    33   14   15 1   
    34   14   16 1   
    35   14   49 1   
    36   15   50 1   
    37   15   51 1   
    38   15   52 1   
    39   16   17 1   
    40   16   53 1   
    41   16   54 1   
    42   17   18 1   
    43   18   19 1   
    44   18   20 1   
    45   18   55 1   
    46   19   56 1   
    47   19   57 1   
    48   19   58 1   
    49   20   21 1   
    50   20   59 1   
    51   20   60 1   
    52   21   22 1   
    53   22   23 1   
    54   22   24 1   
    55   22   61 1   
    56   23   62 1   
    57   23   63 1   
    58   23   64 1   
    59   24   25 1   
    60   24   65 1   
    61   24   66 1   
    62   25   26 1   
    63   26   27 1   
    64   26   67 1   
    65   26   68 1   
    66   27   28 1   
    67   27   29 1   
    68   27   69 1   
    69   28   70 1   
    70   28   71 1   
    71   28   72 1   
    72   29   73 1   
@<TRIPOS>SUBSTRUCTURE
     1 ZPG         1 TEMP              0 ****  ****    0 ROOT
