@<TRIPOS>MOLECULE
ZPG
   73    72     1     0     0
SMALL
bcc


@<TRIPOS>ATOM
      1 O29        -8.8420    1.5020   -1.8740 oh        1 ZPG     -0.594800
      2 C27        -7.7590    0.6340   -1.5860 c3        1 ZPG      0.136100
      3 C28        -6.8310    0.4740   -2.7730 c3        1 ZPG     -0.126100
      4 C24        -7.0030    1.1560   -0.3560 c3        1 ZPG      0.095400
      5 O23        -6.2070    0.0780    0.1210 os        1 ZPG     -0.418600
      6 C22        -5.6800    0.3020    1.4330 c3        1 ZPG      0.143100
      7 C26        -4.6940    1.4510    1.4600 c3        1 ZPG     -0.117100
      8 C21        -5.0350   -1.0240    1.8490 c3        1 ZPG      0.133400
      9 O20        -3.7370   -1.0860    1.2690 os        1 ZPG     -0.427600
     10 C20        -3.1600   -2.3960    1.3010 c3        1 ZPG      0.109100
     11 C25        -2.7680   -2.7960    2.7080 c3        1 ZPG     -0.118100
     12 C18        -1.9490   -2.3450    0.3590 c3        1 ZPG      0.131400
     13 O17        -0.7880   -1.8080    0.9680 os        1 ZPG     -0.408600
     14 C15        -0.7490   -0.3780    1.0260 c3        1 ZPG      0.133100
     15 C16         0.1420   -0.0240    2.2010 c3        1 ZPG     -0.087100
     16 C14        -0.2160    0.2000   -0.2890 c3        1 ZPG      0.106400
     17 O13         1.1740   -0.0910   -0.3750 os        1 ZPG     -0.420600
     18 C11         1.7390    0.2000   -1.6560 c3        1 ZPG      0.108100
     19 C12         1.9030    1.6910   -1.8660 c3        1 ZPG     -0.116100
     20 C10         3.0850   -0.5380   -1.7030 c3        1 ZPG      0.134400
     21 O9          4.1270    0.1640   -1.0490 os        1 ZPG     -0.429600
     22 C7          4.1700   -0.0190    0.3740 c3        1 ZPG      0.097100
     23 C8          4.9450   -1.2740    0.7190 c3        1 ZPG     -0.111100
     24 C6          4.8220    1.2410    0.9540 c3        1 ZPG      0.133400
     25 O5          6.2390    1.2320    0.8910 os        1 ZPG     -0.419600
     26 C4          6.7540    1.5120   -0.4080 c3        1 ZPG      0.089400
     27 C2          8.2760    1.3480   -0.3230 c3        1 ZPG      0.135100
     28 C3          8.6620   -0.1120   -0.1890 c3        1 ZPG     -0.126100
     29 O1          8.8800    1.9480   -1.4570 oh        1 ZPG     -0.595800
     30 HO29       -8.4690    2.3350   -2.1870 ho        1 ZPG      0.396000
     31 H27        -8.2510   -0.3480   -1.3350 h1        1 ZPG      0.088700
     32 H281       -6.0000   -0.2200   -2.5000 hc        1 ZPG      0.047033
     33 H282       -7.3900    0.0580   -3.6440 hc        1 ZPG      0.047033
     34 H283       -6.3950    1.4590   -3.0680 hc        1 ZPG      0.047033
     35 H241       -7.7340    1.4880    0.4270 h1        1 ZPG      0.034200
     36 H242       -6.3390    2.0180   -0.6330 h1        1 ZPG      0.034200
     37 H22        -6.5370    0.5090    2.1360 h1        1 ZPG      0.038700
     38 H261       -3.9260    1.3130    0.6610 hc        1 ZPG      0.046700
     39 H262       -5.2180    2.4230    1.2990 hc        1 ZPG      0.046700
     40 H263       -4.1770    1.4750    2.4490 hc        1 ZPG      0.046700
     41 H211       -5.6650   -1.8830    1.4960 h1        1 ZPG      0.041200
     42 H212       -4.9390   -1.0530    2.9660 h1        1 ZPG      0.041200
     43 H20        -3.9010   -3.1350    0.8810 h1        1 ZPG      0.041700
     44 H251       -2.0810   -2.0300    3.1430 hc        1 ZPG      0.046367
     45 H252       -3.6710   -2.8870    3.3570 hc        1 ZPG      0.046367
     46 H253       -2.2350   -3.7760    2.6830 hc        1 ZPG      0.046367
     47 H181       -2.2200   -1.7780   -0.5690 h1        1 ZPG      0.057200
     48 H182       -1.6500   -3.3970    0.1000 h1        1 ZPG      0.057200
     49 H15        -1.7900    0.0290    1.1830 h1        1 ZPG      0.069700
     50 H161        0.2220    1.0850    2.2830 hc        1 ZPG      0.045700
     51 H162       -0.2880   -0.4380    3.1440 hc        1 ZPG      0.045700
     52 H163        1.1620   -0.4540    2.0510 hc        1 ZPG      0.045700
     53 H141       -0.3630    1.3130   -0.2960 h1        1 ZPG      0.031200
     54 H142       -0.7600   -0.2530   -1.1610 h1        1 ZPG      0.031200
     55 H11         1.0760   -0.2310   -2.4610 h1        1 ZPG      0.037700
     56 H121        2.5130    2.1250   -1.0370 hc        1 ZPG      0.044700
     57 H122        2.4300    1.8770   -2.8310 hc        1 ZPG      0.044700
     58 H123        0.9100    2.1970   -1.8890 hc        1 ZPG      0.044700
     59 H101        3.4270   -0.5950   -2.7720 h1        1 ZPG      0.057200
     60 H102        2.9630   -1.5680   -1.2760 h1        1 ZPG      0.057200
     61 H7          3.1170   -0.0880    0.7750 h1        1 ZPG      0.073700
     62 H81         5.9910   -1.1960    0.3320 hc        1 ZPG      0.044033
     63 H82         4.9820   -1.3970    1.8270 hc        1 ZPG      0.044033
     64 H83         4.4590   -2.1700    0.2680 hc        1 ZPG      0.044033
     65 H61         4.6080    1.2860    2.0560 h1        1 ZPG      0.055200
     66 H62         4.4110    2.1490    0.4380 h1        1 ZPG      0.055200
     67 H41         6.4950    2.5650   -0.6960 h1        1 ZPG      0.045700
     68 H42         6.3140    0.8020   -1.1580 h1        1 ZPG      0.045700
     69 H2          8.6740    1.9420    0.5480 h1        1 ZPG      0.086700
     70 H31         9.7720   -0.2120   -0.1270 hc        1 ZPG      0.045367
     71 H32         8.2000   -0.5310    0.7370 hc        1 ZPG      0.045367
     72 H33         8.2990   -0.6980   -1.0670 hc        1 ZPG      0.045367
     73 HO1         8.6030    1.4420   -2.2300 ho        1 ZPG      0.396000
@<TRIPOS>BOND
     1    1    2 1   
     2    1   30 1   
     3    2    3 1   
     4    2    4 1   
     5    2   31 1   
     6    3   32 1   
     7    3   33 1   
     8    3   34 1   
     9    4    5 1   
    10    4   35 1   
    11    4   36 1   
    12    5    6 1   
    13    6    7 1   
    14    6    8 1   
    15    6   37 1   
    16    7   38 1   
    17    7   39 1   
    18    7   40 1   
    19    8    9 1   
    20    8   41 1   
    21    8   42 1   
    22    9   10 1   
    23   10   11 1   
    24   10   12 1   
    25   10   43 1   
    26   11   44 1   
    27   11   45 1   
    28   11   46 1   
    29   12   13 1   
    30   12   47 1   
    31   12   48 1   
    32   13   14 1   
    33   14   15 1   
    34   14   16 1   
    35   14   49 1   
    36   15   50 1   
    37   15   51 1   
    38   15   52 1   
    39   16   17 1   
    40   16   53 1   
    41   16   54 1   
    42   17   18 1   
    43   18   19 1   
    44   18   20 1   
    45   18   55 1   
    46   19   56 1   
    47   19   57 1   
    48   19   58 1   
    49   20   21 1   
    50   20   59 1   
    51   20   60 1   
    52   21   22 1   
    53   22   23 1   
    54   22   24 1   
    55   22   61 1   
    56   23   62 1   
    57   23   63 1   
    58   23   64 1   
    59   24   25 1   
    60   24   65 1   
    61   24   66 1   
    62   25   26 1   
    63   26   27 1   
    64   26   67 1   
    65   26   68 1   
    66   27   28 1   
    67   27   29 1   
    68   27   69 1   
    69   28   70 1   
    70   28   71 1   
    71   28   72 1   
    72   29   73 1   
@<TRIPOS>SUBSTRUCTURE
     1 ZPG         1 TEMP              0 ****  ****    0 ROOT
