@<TRIPOS>MOLECULE
ZPH
   45    45     1     0     0
SMALL
bcc


@<TRIPOS>ATOM
      1 C1         -2.5680   -0.6350    1.0870 c3        1 ZPH     -0.071700
      2 C2         -3.2780    0.2150    0.0470 c3        1 ZPH     -0.111400
      3 C3         -4.7020   -0.2030   -0.2780 c3        1 ZPH     -0.060700
      4 C4         -5.2950    0.7470   -1.3000 c3        1 ZPH     -0.086600
      5 C5         -4.7640   -1.6270   -0.7890 c3        1 ZPH     -0.086600
      6 N          -3.2360   -0.8190    2.3520 n3        1 ZPH     -0.875800
      7 P1         -1.0730    0.1560    1.4080 p5        1 ZPH      1.356600
      8 O1         -1.3540    1.4350    2.0890 o         1 ZPH     -0.847000
      9 O2         -0.0080   -0.7900    1.8070 o         1 ZPH     -0.847000
     10 C6          0.7720    0.6060   -0.3980 c3        1 ZPH      0.191100
     11 C7          1.2060   -0.4900   -1.3890 c3        1 ZPH     -0.059100
     12 C8          2.5100   -1.1050   -1.0250 ca        1 ZPH     -0.075300
     13 C9          3.5660   -1.1260   -1.9440 ca        1 ZPH     -0.126000
     14 C10         2.6800   -1.7010    0.2340 ca        1 ZPH     -0.126000
     15 C11         4.7760   -1.7350   -1.6130 ca        1 ZPH     -0.145000
     16 C12         3.8920   -2.3070    0.5580 ca        1 ZPH     -0.145000
     17 C13         4.9410   -2.3270   -0.3620 ca        1 ZPH     -0.149000
     18 C14         1.0810    1.9690   -1.0180 c         1 ZPH      0.625100
     19 C15         1.9740    4.1350   -0.5860 c3        1 ZPH      0.130700
     20 O3         -0.5910    0.5420   -0.1660 os        1 ZPH     -0.575200
     21 H1         -2.3860   -1.6580    0.6560 h1        1 ZPH      0.076700
     22 H          -3.2760    1.2790    0.4120 hc        1 ZPH      0.067700
     23 H3         -2.6620    0.1870   -0.8920 hc        1 ZPH      0.067700
     24 H4         -5.3270   -0.1350    0.6580 hc        1 ZPH      0.029700
     25 H5         -4.7130    0.7060   -2.2530 hc        1 ZPH      0.026867
     26 H6         -6.3550    0.4730   -1.5200 hc        1 ZPH      0.026867
     27 H7         -5.2680    1.7950   -0.9160 hc        1 ZPH      0.026867
     28 H8         -4.4270   -2.3380    0.0040 hc        1 ZPH      0.026867
     29 H9         -5.8080   -1.8910   -1.0850 hc        1 ZPH      0.026867
     30 H10        -4.1010   -1.7510   -1.6780 hc        1 ZPH      0.026867
     31 H11        -3.2970    0.0720    2.8160 hn        1 ZPH      0.336300
     32 H13         1.3450    0.5100    0.5740 h1        1 ZPH      0.094700
     33 H14         0.4180   -1.2920   -1.3840 hc        1 ZPH      0.063200
     34 H15         1.2400   -0.0690   -2.4280 hc        1 ZPH      0.063200
     35 H16         3.4420   -0.6560   -2.9300 ha        1 ZPH      0.168500
     36 H17         1.8450   -1.6740    0.9680 ha        1 ZPH      0.168500
     37 H18         5.6000   -1.7450   -2.3400 ha        1 ZPH      0.117500
     38 H19         4.0200   -2.7680    1.5480 ha        1 ZPH      0.117500
     39 H20         5.8940   -2.8060   -0.1010 ha        1 ZPH      0.111000
     40 H21         2.4260    4.6370    0.3050 h1        1 ZPH      0.036700
     41 H22         2.6850    4.1170   -1.4460 h1        1 ZPH      0.036700
     42 H23         1.0220    4.6320   -0.8910 h1        1 ZPH      0.036700
     43 H2         -4.1660   -1.1710    2.2170 hn        1 ZPH      0.336300
     44 O4          1.7150    2.8090   -0.1400 os        1 ZPH     -0.430900
     45 O5          0.8710    2.3940   -2.1560 o         1 ZPH     -0.573000
@<TRIPOS>BOND
     1    1    2 1   
     2    1    6 1   
     3    1    7 1   
     4    1   21 1   
     5    2    3 1   
     6    2   22 1   
     7    2   23 1   
     8    3    4 1   
     9    3    5 1   
    10    3   24 1   
    11    4   25 1   
    12    4   26 1   
    13    4   27 1   
    14    5   28 1   
    15    5   29 1   
    16    5   30 1   
    17    6   31 1   
    18    6   43 1   
    19    7    8 1   
    20    7    9 1   
    21    7   20 1   
    22   10   11 1   
    23   10   18 1   
    24   10   20 1   
    25   10   32 1   
    26   11   12 1   
    27   11   33 1   
    28   11   34 1   
    29   12   13 ar  
    30   12   14 ar  
    31   13   15 ar  
    32   13   35 1   
    33   14   16 ar  
    34   14   36 1   
    35   15   17 ar  
    36   15   37 1   
    37   16   17 ar  
    38   16   38 1   
    39   17   39 1   
    40   18   44 1   
    41   18   45 2   
    42   19   40 1   
    43   19   41 1   
    44   19   42 1   
    45   19   44 1   
@<TRIPOS>SUBSTRUCTURE
     1 ZPH         1 TEMP              0 ****  ****    0 ROOT
