@<TRIPOS>MOLECULE
ZPN
   76    77     1     0     0
SMALL
bcc


@<TRIPOS>ATOM
      1 C1          1.3160    0.3880   -0.1740 c         1 ZPN      0.661300
      2 O1          1.2130    1.4560    0.4240 o         1 ZPN     -0.512000
      3 C2          2.3400   -0.6470   -0.1470 ce        1 ZPN     -0.266200
      4 C3          3.6140   -0.4850    0.2430 cf        1 ZPN      0.036000
      5 C4          4.3370    0.7060    0.6260 cf        1 ZPN     -0.226000
      6 C5          4.2100    1.4600    1.7320 c2        1 ZPN     -0.015400
      7 C21         5.1530    2.5780    1.9900 c3        1 ZPN     -0.084900
      8 C6          3.1990    1.2070    2.7930 c3        1 ZPN     -0.164200
      9 C7          2.7190    2.4680    3.4770 c         1 ZPN      0.572100
     10 O7          2.9190    2.6440    4.6820 o         1 ZPN     -0.522100
     11 C8          1.9540    3.4340    2.6220 c3        1 ZPN     -0.184400
     12 C9          2.1710    4.8710    3.0440 c3        1 ZPN     -0.070400
     13 C10         1.3590    5.8370    2.2060 c3        1 ZPN     -0.105400
     14 C11        -0.1110    5.9020    2.6170 c3        1 ZPN      0.147100
     15 C12        -0.7300    7.2760    2.3830 c3        1 ZPN     -0.073200
     16 C13        -1.0500    7.5370    0.9540 c2        1 ZPN     -0.120400
     17 C22        -1.4520    8.7390    0.5310 c2        1 ZPN     -0.212000
     18 C14        -0.8850    6.3900    0.0230 c3        1 ZPN     -0.061200
     19 C15        -1.2880    5.0610    0.6520 c3        1 ZPN      0.176300
     20 O11        -0.8850    4.8710    2.0130 os        1 ZPN     -0.424600
     21 C16        -0.7270    3.9110   -0.1250 c2        1 ZPN     -0.153200
     22 C17        -1.2360    3.3900   -1.2510 c2        1 ZPN     -0.148400
     23 C23        -2.4170    3.9170   -1.9720 c3        1 ZPN     -0.058900
     24 C18        -0.5920    2.1870   -1.8640 c3        1 ZPN     -0.048200
     25 C19        -0.8780    0.9320   -1.0360 c3        1 ZPN      0.148100
     26 O19         0.2510    0.0450   -1.0030 os        1 ZPN     -0.510900
     27 C20        -2.0040    0.0910   -1.7110 c3        1 ZPN      0.351300
     28 O20        -3.2110    0.7620   -1.5020 oh        1 ZPN     -0.551800
     29 N20        -2.1310   -1.2880   -1.0560 ny        1 ZPN     -0.721800
     30 C1'        -3.0270   -2.2300   -1.8360 c         1 ZPN      0.578300
     31 O1'        -3.7310   -1.6780   -2.6810 o         1 ZPN     -0.493100
     32 C2'        -2.9210   -3.6180   -1.4610 ce        1 ZPN     -0.357200
     33 C3'        -3.6530   -4.6180   -2.0210 cf        1 ZPN      0.105000
     34 C4'        -4.6340   -4.4910   -3.0540 cf        1 ZPN     -0.261000
     35 C5'        -5.3090   -5.5590   -3.5360 c2        1 ZPN      0.000800
     36 C6'        -6.3240   -5.4660   -4.5950 c3        1 ZPN     -0.105900
     37 H21         1.9950   -1.6340   -0.5010 ha        1 ZPN      0.144000
     38 H31         4.2660   -1.3870    0.2090 ha        1 ZPN      0.145000
     39 H41         5.1490    0.9430   -0.0930 ha        1 ZPN      0.153000
     40 H211        5.6440    2.4360    2.9860 hc        1 ZPN      0.061700
     41 H212        4.5950    3.5500    2.0130 hc        1 ZPN      0.061700
     42 H213        5.9480    2.6450    1.2080 hc        1 ZPN      0.061700
     43 H62         3.6540    0.5240    3.5650 hc        1 ZPN      0.078700
     44 H61         2.2990    0.6910    2.3600 hc        1 ZPN      0.078700
     45 H81         2.2460    3.2940    1.5460 hc        1 ZPN      0.079700
     46 H82         0.8590    3.1820    2.6950 hc        1 ZPN      0.079700
     47 H91         1.9160    4.9820    4.1320 hc        1 ZPN      0.054200
     48 H92         3.2590    5.1250    2.9360 hc        1 ZPN      0.054200
     49 H102        1.4330    5.5420    1.1270 hc        1 ZPN      0.051700
     50 H162        1.8070    6.8610    2.3100 hc        1 ZPN      0.051700
     51 H141       -0.2000    5.6470    3.7170 h1        1 ZPN      0.079700
     52 H151       -0.0370    8.0670    2.7760 hc        1 ZPN      0.065700
     53 H142       -1.6810    7.3390    2.9790 hc        1 ZPN      0.065700
     54 H223       -1.5510    9.5950    1.2120 ha        1 ZPN      0.119500
     55 H222       -1.7040    8.9420   -0.5170 ha        1 ZPN      0.119500
     56 H121       -1.5040    6.5380   -0.9020 hc        1 ZPN      0.060700
     57 H122        0.1900    6.3460   -0.3050 hc        1 ZPN      0.060700
     58 H111       -2.4170    4.9930    0.6900 h1        1 ZPN      0.065700
     59 H101        0.1700    3.4600    0.3430 ha        1 ZPN      0.155000
     60 H231       -2.1140    4.2940   -2.9820 hc        1 ZPN      0.046033
     61 H232       -3.1750    3.1040   -2.1120 hc        1 ZPN      0.046033
     62 H233       -2.9010    4.7570   -1.4170 hc        1 ZPN      0.046033
     63 H181        0.5230    2.3290   -1.9000 hc        1 ZPN      0.069700
     64 H182       -0.9470    2.0480   -2.9190 hc        1 ZPN      0.069700
     65 H191       -1.1680    1.2160    0.0150 h1        1 ZPN      0.107700
     66 H201       -1.7720   -0.0940   -2.8000 hx        1 ZPN      0.113700
     67 H202       -3.8020    0.5830   -2.2550 ho        1 ZPN      0.456000
     68 H203       -2.5290   -1.1680   -0.1190 hn        1 ZPN      0.465800
     69 H2'1       -2.2000   -3.8770   -0.6660 ha        1 ZPN      0.158000
     70 H3'1       -3.4720   -5.6450   -1.6350 ha        1 ZPN      0.154000
     71 H4'1       -4.8320   -3.4810   -3.4570 ha        1 ZPN      0.165000
     72 H6         -5.1220   -6.5760   -3.1430 ha        1 ZPN      0.136000
     73 H7         -6.0230   -6.1040   -5.4660 hc        1 ZPN      0.076033
     74 H8         -6.4710   -4.4180   -4.9570 hc        1 ZPN      0.076033
     75 H9         -7.3060   -5.8510   -4.2130 hc        1 ZPN      0.076033
     76 H204       -1.1880   -1.6850   -0.9700 hn        1 ZPN      0.465800
@<TRIPOS>BOND
     1    1    2 2   
     2    1    3 1   
     3    1   26 1   
     4    3    4 2   
     5    3   37 1   
     6    4    5 1   
     7    4   38 1   
     8    5    6 2   
     9    5   39 1   
    10    6    7 1   
    11    6    8 1   
    12    7   40 1   
    13    7   41 1   
    14    7   42 1   
    15    8    9 1   
    16    8   43 1   
    17    8   44 1   
    18    9   10 2   
    19    9   11 1   
    20   11   12 1   
    21   11   45 1   
    22   11   46 1   
    23   12   13 1   
    24   12   47 1   
    25   12   48 1   
    26   13   14 1   
    27   13   49 1   
    28   13   50 1   
    29   14   15 1   
    30   14   20 1   
    31   14   51 1   
    32   15   16 1   
    33   15   52 1   
    34   15   53 1   
    35   16   17 2   
    36   16   18 1   
    37   17   54 1   
    38   17   55 1   
    39   18   19 1   
    40   18   56 1   
    41   18   57 1   
    42   19   20 1   
    43   19   21 1   
    44   19   58 1   
    45   21   22 2   
    46   21   59 1   
    47   22   23 1   
    48   22   24 1   
    49   23   60 1   
    50   23   61 1   
    51   23   62 1   
    52   24   25 1   
    53   24   63 1   
    54   24   64 1   
    55   25   26 1   
    56   25   27 1   
    57   25   65 1   
    58   27   28 1   
    59   27   29 1   
    60   27   66 1   
    61   28   67 1   
    62   29   30 1   
    63   29   68 1   
    64   29   76 1   
    65   30   31 2   
    66   30   32 1   
    67   32   33 2   
    68   32   69 1   
    69   33   34 1   
    70   33   70 1   
    71   34   35 2   
    72   34   71 1   
    73   35   36 1   
    74   35   72 1   
    75   36   73 1   
    76   36   74 1   
    77   36   75 1   
@<TRIPOS>SUBSTRUCTURE
     1 ZPN         1 TEMP              0 ****  ****    0 ROOT
