@<TRIPOS>MOLECULE
ZPN
   75    76     1     0     0
SMALL
bcc


@<TRIPOS>ATOM
      1 C1         -0.9170    0.6870   -0.0890 c         1 ZPN      0.647300
      2 O1         -1.3290    0.8960   -1.2360 o         1 ZPN     -0.569000
      3 C2         -0.2130    1.5980    0.8180 ce        1 ZPN     -0.211200
      4 C3          0.4420    2.6680    0.3410 cf        1 ZPN     -0.043000
      5 C4          1.1780    3.5810    1.1900 cf        1 ZPN     -0.169000
      6 C5          2.3140    4.2130    0.8410 c2        1 ZPN     -0.065400
      7 C21         2.9760    5.1650    1.7670 c3        1 ZPN     -0.073900
      8 C6          2.9800    4.0450   -0.4800 c3        1 ZPN     -0.161200
      9 C7          4.4330    3.6580   -0.3520 c         1 ZPN      0.573100
     10 O7          5.3300    4.3990   -0.7640 o         1 ZPN     -0.527100
     11 C8          4.7270    2.3240    0.2770 c3        1 ZPN     -0.182400
     12 C9          4.4810    1.1870   -0.6950 c3        1 ZPN     -0.069400
     13 C10         5.0220   -0.1140   -0.1430 c3        1 ZPN     -0.094400
     14 C11         4.6550   -1.2930   -1.0450 c3        1 ZPN      0.147100
     15 C12         5.5560   -2.4950   -0.7910 c3        1 ZPN     -0.071200
     16 C13         5.2820   -3.1380    0.5230 c2        1 ZPN     -0.115400
     17 C22         6.2290   -3.7450    1.2420 c2        1 ZPN     -0.221000
     18 C14         3.8640   -3.0580    0.9700 c3        1 ZPN     -0.073200
     19 C15         2.9370   -2.7880   -0.2130 c3        1 ZPN      0.182300
     20 O11         3.2610   -1.5750   -0.9050 os        1 ZPN     -0.420600
     21 C16         1.5200   -2.6550    0.2480 c2        1 ZPN     -0.168200
     22 C17         0.4510   -3.0050   -0.4820 c2        1 ZPN     -0.094400
     23 C23         0.5420   -3.5500   -1.8580 c3        1 ZPN     -0.067900
     24 C18        -0.9280   -2.8800    0.0780 c3        1 ZPN     -0.053200
     25 C19        -1.6100   -1.5950   -0.3890 c3        1 ZPN      0.114100
     26 O19        -1.1180   -0.5500    0.4650 os        1 ZPN     -0.419900
     27 C20        -3.1550   -1.7230   -0.2180 c3        1 ZPN      0.282500
     28 O20        -3.6060   -2.7670   -1.0770 oh        1 ZPN     -0.601800
     29 N20        -3.8360   -0.4770   -0.4600 n         1 ZPN     -0.605900
     30 C1'        -4.9410   -0.0790    0.2790 c         1 ZPN      0.677300
     31 O1'        -5.3660   -0.7850    1.2150 o         1 ZPN     -0.605100
     32 C2'        -5.5440    1.2240   -0.1000 ce        1 ZPN     -0.243200
     33 C3'        -6.8570    1.4950   -0.0590 cf        1 ZPN     -0.045000
     34 C4'        -7.9000    0.5770    0.3440 cf        1 ZPN     -0.167000
     35 C5'        -9.2030    0.8930    0.2830 c2        1 ZPN     -0.134200
     36 C6'       -10.2830   -0.0230    0.6920 c3        1 ZPN     -0.070900
     37 H21        -0.2340    1.3240    1.8840 ha        1 ZPN      0.160000
     38 H31         0.4300    2.8860   -0.7450 ha        1 ZPN      0.146000
     39 H41         0.7460    3.7470    2.1940 ha        1 ZPN      0.138000
     40 H211        2.4610    5.2080    2.7570 hc        1 ZPN      0.053367
     41 H212        4.0410    4.8620    1.9320 hc        1 ZPN      0.053367
     42 H213        2.9730    6.1920    1.3200 hc        1 ZPN      0.053367
     43 H62         2.4760    3.2530   -1.0970 hc        1 ZPN      0.080700
     44 H61         2.9080    5.0180   -1.0430 hc        1 ZPN      0.080700
     45 H81         5.7990    2.3070    0.6120 hc        1 ZPN      0.067700
     46 H82         4.0790    2.1980    1.1840 hc        1 ZPN      0.067700
     47 H91         3.3810    1.0770   -0.8900 hc        1 ZPN      0.053200
     48 H92         4.9770    1.4150   -1.6750 hc        1 ZPN      0.053200
     49 H102        6.1380   -0.0520   -0.0570 hc        1 ZPN      0.050200
     50 H162        4.6080   -0.2930    0.8830 hc        1 ZPN      0.050200
     51 H141        4.7580   -0.9790   -2.1260 h1        1 ZPN      0.059700
     52 H151        5.3800   -3.2540   -1.6020 hc        1 ZPN      0.060700
     53 H142        6.6280   -2.1710   -0.8610 hc        1 ZPN      0.060700
     54 H223        7.2770   -3.7860    0.9180 ha        1 ZPN      0.115500
     55 H222        6.0130   -4.2380    2.1980 ha        1 ZPN      0.115500
     56 H121        3.5490   -4.0130    1.4660 hc        1 ZPN      0.062700
     57 H122        3.7600   -2.2320    1.7240 hc        1 ZPN      0.062700
     58 H111        3.0350   -3.6320   -0.9570 h1        1 ZPN      0.043700
     59 H101        1.3970   -2.2290    1.2570 ha        1 ZPN      0.132000
     60 H231        1.3840   -3.0750   -2.4210 hc        1 ZPN      0.047367
     61 H232        0.7200   -4.6550   -1.8200 hc        1 ZPN      0.047367
     62 H233       -0.4060   -3.3680   -2.4220 hc        1 ZPN      0.047367
     63 H181       -1.5580   -3.7470   -0.2630 hc        1 ZPN      0.074700
     64 H182       -0.9010   -2.8900    1.2000 hc        1 ZPN      0.074700
     65 H191       -1.3580   -1.3760   -1.4630 h1        1 ZPN      0.077700
     66 H201       -3.4100   -2.1000    0.8200 h2        1 ZPN      0.125700
     67 H202       -3.4560   -2.5090   -1.9940 ho        1 ZPN      0.399000
     68 H203       -3.4820    0.1130   -1.1770 hn        1 ZPN      0.325500
     69 H2'1       -4.8320    2.0010   -0.4240 ha        1 ZPN      0.138000
     70 H3'1       -7.1960    2.5040   -0.3640 ha        1 ZPN      0.122000
     71 H4'1       -7.5670   -0.4080    0.7220 ha        1 ZPN      0.162000
     72 H6         -9.5350    1.8790   -0.0840 ha        1 ZPN      0.115000
     73 H7         -9.8860   -1.0030    1.0550 hc        1 ZPN      0.047033
     74 H8        -10.8860    0.4390    1.5140 hc        1 ZPN      0.047033
     75 H9        -10.9670   -0.2180   -0.1730 hc        1 ZPN      0.047033
@<TRIPOS>BOND
     1    1    2 2   
     2    1    3 1   
     3    1   26 1   
     4    3    4 2   
     5    3   37 1   
     6    4    5 1   
     7    4   38 1   
     8    5    6 2   
     9    5   39 1   
    10    6    7 1   
    11    6    8 1   
    12    7   40 1   
    13    7   41 1   
    14    7   42 1   
    15    8    9 1   
    16    8   43 1   
    17    8   44 1   
    18    9   10 2   
    19    9   11 1   
    20   11   12 1   
    21   11   45 1   
    22   11   46 1   
    23   12   13 1   
    24   12   47 1   
    25   12   48 1   
    26   13   14 1   
    27   13   49 1   
    28   13   50 1   
    29   14   15 1   
    30   14   20 1   
    31   14   51 1   
    32   15   16 1   
    33   15   52 1   
    34   15   53 1   
    35   16   17 2   
    36   16   18 1   
    37   17   54 1   
    38   17   55 1   
    39   18   19 1   
    40   18   56 1   
    41   18   57 1   
    42   19   20 1   
    43   19   21 1   
    44   19   58 1   
    45   21   22 2   
    46   21   59 1   
    47   22   23 1   
    48   22   24 1   
    49   23   60 1   
    50   23   61 1   
    51   23   62 1   
    52   24   25 1   
    53   24   63 1   
    54   24   64 1   
    55   25   26 1   
    56   25   27 1   
    57   25   65 1   
    58   27   28 1   
    59   27   29 1   
    60   27   66 1   
    61   28   67 1   
    62   29   30 1   
    63   29   68 1   
    64   30   31 2   
    65   30   32 1   
    66   32   33 2   
    67   32   69 1   
    68   33   34 1   
    69   33   70 1   
    70   34   35 2   
    71   34   71 1   
    72   35   36 1   
    73   35   72 1   
    74   36   73 1   
    75   36   74 1   
    76   36   75 1   
@<TRIPOS>SUBSTRUCTURE
     1 ZPN         1 TEMP              0 ****  ****    0 ROOT
