@<TRIPOS>MOLECULE
ZPN
   76    77     1     0     0
SMALL
bcc


@<TRIPOS>ATOM
      1 C1         -1.2080   -0.0290    1.2800 c         1 ZPN      0.672300
      2 O1         -2.3490   -0.5110    1.3540 o         1 ZPN     -0.606000
      3 C2         -0.1880   -0.0020    2.3090 ce        1 ZPN     -0.268200
      4 C3          1.1070    0.3490    2.1960 cf        1 ZPN      0.035000
      5 C4          1.8090    0.6920    0.9870 cf        1 ZPN     -0.217000
      6 C5          2.9850    1.3530    0.9330 c2        1 ZPN     -0.004400
      7 C21         3.6560    1.5980   -0.3680 c3        1 ZPN     -0.088900
      8 C6          3.7030    1.8680    2.1300 c3        1 ZPN     -0.176200
      9 C7          4.3640    3.2040    1.8790 c         1 ZPN      0.569100
     10 O7          5.5900    3.3240    1.9190 o         1 ZPN     -0.509100
     11 C8          3.4380    4.3550    1.6070 c3        1 ZPN     -0.184400
     12 C9          3.2670    5.2190    2.8420 c3        1 ZPN     -0.060400
     13 C10         2.2400    6.3100    2.6190 c3        1 ZPN     -0.096400
     14 C11         0.8220    5.8850    2.9970 c3        1 ZPN      0.149100
     15 C12        -0.1430    7.0620    2.9160 c3        1 ZPN     -0.071200
     16 C13        -0.4410    7.4550    1.5110 c2        1 ZPN     -0.129400
     17 C22        -0.6860    8.7170    1.1510 c2        1 ZPN     -0.204000
     18 C14        -0.4530    6.3300    0.5360 c3        1 ZPN     -0.067200
     19 C15        -0.6190    4.9960    1.2600 c3        1 ZPN      0.177300
     20 O11         0.4280    4.7580    2.2090 os        1 ZPN     -0.435600
     21 C16        -0.5730    3.8440    0.3090 c2        1 ZPN     -0.131200
     22 C17        -1.5730    3.4810   -0.5080 c2        1 ZPN     -0.145400
     23 C23        -2.8670    4.1940   -0.6190 c3        1 ZPN     -0.064900
     24 C18        -1.4160    2.3050   -1.4160 c3        1 ZPN     -0.038200
     25 C19        -1.9490    1.0300   -0.7570 c3        1 ZPN      0.149100
     26 O19        -0.8860    0.5080    0.0450 os        1 ZPN     -0.456900
     27 C20        -2.2900   -0.0200   -1.8590 c3        1 ZPN      0.326300
     28 O20        -3.2940    0.5330   -2.6620 oh        1 ZPN     -0.561800
     29 N20        -2.8400   -1.2980   -1.2340 n4        1 ZPN     -0.715800
     30 C1'        -3.0680   -2.4100   -2.2330 c         1 ZPN      0.578300
     31 O1'        -2.9510   -2.0740   -3.4120 o         1 ZPN     -0.500100
     32 C2'        -3.3910   -3.6900   -1.6490 ce        1 ZPN     -0.352200
     33 C3'        -3.6460   -4.8150   -2.3680 cf        1 ZPN      0.099000
     34 C4'        -3.6420   -4.9470   -3.7940 cf        1 ZPN     -0.258000
     35 C5'        -3.9160   -6.1200   -4.4050 c2        1 ZPN     -0.006200
     36 C6'        -3.9230   -6.2910   -5.8660 c3        1 ZPN     -0.103900
     37 H21        -0.5950   -0.2970    3.2950 ha        1 ZPN      0.173000
     38 H31         1.7140    0.3420    3.1260 ha        1 ZPN      0.146000
     39 H41         1.3310    0.3740    0.0420 ha        1 ZPN      0.141000
     40 H211        3.6710    2.6970   -0.5860 hc        1 ZPN      0.062367
     41 H212        4.7170    1.2410   -0.3210 hc        1 ZPN      0.062367
     42 H213        3.1400    1.0760   -1.2100 hc        1 ZPN      0.062367
     43 H62         4.4870    1.1160    2.4270 hc        1 ZPN      0.086700
     44 H61         3.0060    2.0020    3.0010 hc        1 ZPN      0.086700
     45 H81         3.8650    4.9740    0.7730 hc        1 ZPN      0.072200
     46 H82         2.4340    3.9720    1.2790 hc        1 ZPN      0.072200
     47 H91         2.9570    4.5780    3.7090 hc        1 ZPN      0.051700
     48 H92         4.2560    5.6820    3.1010 hc        1 ZPN      0.051700
     49 H102        2.2530    6.6410    1.5480 hc        1 ZPN      0.056200
     50 H162        2.5090    7.1970    3.2520 hc        1 ZPN      0.056200
     51 H141        0.8260    5.4840    4.0540 h1        1 ZPN      0.061700
     52 H151        0.2880    7.9260    3.4870 hc        1 ZPN      0.064700
     53 H142       -1.1070    6.7740    3.4190 hc        1 ZPN      0.064700
     54 H223       -0.6590    9.5490    1.8680 ha        1 ZPN      0.121500
     55 H222       -0.9280    8.9960    0.1170 ha        1 ZPN      0.121500
     56 H121       -1.2900    6.4490   -0.2010 hc        1 ZPN      0.063700
     57 H122        0.5130    6.3260   -0.0370 hc        1 ZPN      0.063700
     58 H111       -1.5950    4.9970    1.8300 h1        1 ZPN      0.053700
     59 H101        0.3680    3.2650    0.3400 ha        1 ZPN      0.142000
     60 H231       -3.7050    3.4700   -0.7730 hc        1 ZPN      0.050033
     61 H232       -3.0860    4.7960    0.2980 hc        1 ZPN      0.050033
     62 H233       -2.8430    4.8910   -1.4950 hc        1 ZPN      0.050033
     63 H181       -0.3360    2.1530   -1.6820 hc        1 ZPN      0.075200
     64 H182       -1.9930    2.4830   -2.3640 hc        1 ZPN      0.075200
     65 H191       -2.8620    1.2480   -0.1380 h1        1 ZPN      0.105700
     66 H201       -1.3670   -0.3110   -2.4400 hx        1 ZPN      0.109700
     67 H202       -3.2240    0.1550   -3.5560 ho        1 ZPN      0.457000
     68 H203       -3.7300   -1.0780   -0.7700 hn        1 ZPN      0.472800
     69 H2'1       -3.4370   -3.7480   -0.5470 ha        1 ZPN      0.164000
     70 H3'1       -3.8850   -5.7330   -1.7890 ha        1 ZPN      0.154000
     71 H4'1       -3.4050   -4.0490   -4.3930 ha        1 ZPN      0.164000
     72 H6         -4.1550   -7.0260   -3.8180 ha        1 ZPN      0.135000
     73 H7         -4.9360   -6.6360   -6.2010 hc        1 ZPN      0.074367
     74 H8         -3.6720   -5.3460   -6.4080 hc        1 ZPN      0.074367
     75 H9         -3.1790   -7.0780   -6.1580 hc        1 ZPN      0.074367
     76 H204       -2.1870   -1.6100   -0.5020 hn        1 ZPN      0.472800
@<TRIPOS>BOND
     1    1    2 2   
     2    1    3 1   
     3    1   26 1   
     4    3    4 2   
     5    3   37 1   
     6    4    5 1   
     7    4   38 1   
     8    5    6 2   
     9    5   39 1   
    10    6    7 1   
    11    6    8 1   
    12    7   40 1   
    13    7   41 1   
    14    7   42 1   
    15    8    9 1   
    16    8   43 1   
    17    8   44 1   
    18    9   10 2   
    19    9   11 1   
    20   11   12 1   
    21   11   45 1   
    22   11   46 1   
    23   12   13 1   
    24   12   47 1   
    25   12   48 1   
    26   13   14 1   
    27   13   49 1   
    28   13   50 1   
    29   14   15 1   
    30   14   20 1   
    31   14   51 1   
    32   15   16 1   
    33   15   52 1   
    34   15   53 1   
    35   16   17 2   
    36   16   18 1   
    37   17   54 1   
    38   17   55 1   
    39   18   19 1   
    40   18   56 1   
    41   18   57 1   
    42   19   20 1   
    43   19   21 1   
    44   19   58 1   
    45   21   22 2   
    46   21   59 1   
    47   22   23 1   
    48   22   24 1   
    49   23   60 1   
    50   23   61 1   
    51   23   62 1   
    52   24   25 1   
    53   24   63 1   
    54   24   64 1   
    55   25   26 1   
    56   25   27 1   
    57   25   65 1   
    58   27   28 1   
    59   27   29 1   
    60   27   66 1   
    61   28   67 1   
    62   29   30 1   
    63   29   68 1   
    64   29   76 1   
    65   30   31 2   
    66   30   32 1   
    67   32   33 2   
    68   32   69 1   
    69   33   34 1   
    70   33   70 1   
    71   34   35 2   
    72   34   71 1   
    73   35   36 1   
    74   35   72 1   
    75   36   73 1   
    76   36   74 1   
    77   36   75 1   
@<TRIPOS>SUBSTRUCTURE
     1 ZPN         1 TEMP              0 ****  ****    0 ROOT
