@<TRIPOS>MOLECULE
ZPR
   46    48     1     0     0
SMALL
bcc


@<TRIPOS>ATOM
      1 C20         0.0930   -1.8680   -5.0350 ca        1 ZPR     -0.110500
      2 C21        -0.1410   -1.5120   -6.3620 ca        1 ZPR     -0.131500
      3 C22        -0.7060   -0.2730   -6.6660 ca        1 ZPR     -0.122000
      4 C23        -1.0390    0.6110   -5.6400 ca        1 ZPR     -0.131500
      5 C24        -0.8140    0.2560   -4.3110 ca        1 ZPR     -0.110500
      6 C19        -0.2490   -0.9850   -4.0030 ca        1 ZPR     -0.099300
      7 C18        -0.0370   -1.4040   -2.5890 c3        1 ZPR      0.195700
      8 O17         0.4290   -0.2440   -1.8650 os        1 ZPR     -0.429900
      9 C15         0.6670   -0.4590   -0.5240 c         1 ZPR      0.724100
     10 O16         0.5270   -1.6120   -0.0780 o         1 ZPR     -0.596000
     11 N14         0.9580    0.6960    0.2020 n         1 ZPR     -0.392800
     12 C10         1.6140    0.5270    1.5040 c3        1 ZPR      0.020700
     13 C8          0.6500    0.9620    2.6330 c         1 ZPR      0.663100
     14 O9          0.4510    2.1710    2.8670 o         1 ZPR     -0.608100
     15 C11         2.8610    1.4440    1.5200 c3        1 ZPR     -0.089400
     16 C12         2.8050    2.2720    0.2410 c3        1 ZPR     -0.097400
     17 C13         1.5130    1.8630   -0.4830 c3        1 ZPR      0.068000
     18 C4         -1.7540   -0.9210    4.7210 c3        1 ZPR     -0.084400
     19 C5         -1.0960   -2.0530    3.9410 c3        1 ZPR     -0.088400
     20 C1         -0.3740    1.0110    5.6560 c         1 ZPR      0.567900
     21 O2         -0.8440    0.8220    6.7770 o         1 ZPR     -0.529100
     22 N7          0.0760   -0.0020    3.4350 n         1 ZPR     -0.459800
     23 C6          0.0540   -1.4230    3.1390 c3        1 ZPR      0.075000
     24 C3         -0.9530    0.3580    4.4080 c3        1 ZPR     -0.017300
     25 H201        0.5440   -2.8430   -4.7990 ha        1 ZPR      0.139000
     26 H211        0.1230   -2.2090   -7.1700 ha        1 ZPR      0.134000
     27 H221       -0.8870    0.0070   -7.7150 ha        1 ZPR      0.133000
     28 H231       -1.4820    1.5900   -5.8780 ha        1 ZPR      0.134000
     29 H241       -1.0700    0.9510   -3.4970 ha        1 ZPR      0.139000
     30 H181        0.7350   -2.2150   -2.4990 h1        1 ZPR      0.065200
     31 H182       -0.9970   -1.7530   -2.1210 h1        1 ZPR      0.065200
     32 H101        1.9220   -0.5490    1.6500 h1        1 ZPR      0.090700
     33 H111        2.8510    2.1050    2.4220 hc        1 ZPR      0.068200
     34 H112        3.7860    0.8170    1.5540 hc        1 ZPR      0.068200
     35 H121        2.7850    3.3640    0.4720 hc        1 ZPR      0.059200
     36 H122        3.6960    2.0710   -0.4040 hc        1 ZPR      0.059200
     37 H131        0.7460    2.6830   -0.4070 h1        1 ZPR      0.073200
     38 H132        1.7020    1.6490   -1.5690 h1        1 ZPR      0.073200
     39 H42        -2.8180   -0.7850    4.4080 hc        1 ZPR      0.067200
     40 H51        -0.7000   -2.8370    4.6320 hc        1 ZPR      0.055700
     41 H52        -1.8260   -2.5410    3.2500 hc        1 ZPR      0.055700
     42 H11         0.4740    1.7090    5.4760 h4        1 ZPR      0.021200
     43 H61         1.0390   -1.8730    3.4460 h1        1 ZPR      0.064200
     44 H62        -0.0870   -1.6030    2.0360 h1        1 ZPR      0.064200
     45 H31        -1.6320    1.1460    3.9550 h1        1 ZPR      0.087700
     46 H41        -1.7440   -1.1250    5.8220 hc        1 ZPR      0.067200
@<TRIPOS>BOND
     1    1    2 ar  
     2    1    6 ar  
     3    1   25 1   
     4    2    3 ar  
     5    2   26 1   
     6    3    4 ar  
     7    3   27 1   
     8    4    5 ar  
     9    4   28 1   
    10    5    6 ar  
    11    5   29 1   
    12    6    7 1   
    13    7    8 1   
    14    7   30 1   
    15    7   31 1   
    16    8    9 1   
    17    9   10 2   
    18    9   11 1   
    19   11   12 1   
    20   11   17 1   
    21   12   13 1   
    22   12   15 1   
    23   12   32 1   
    24   13   14 2   
    25   13   22 1   
    26   15   16 1   
    27   15   33 1   
    28   15   34 1   
    29   16   17 1   
    30   16   35 1   
    31   16   36 1   
    32   17   37 1   
    33   17   38 1   
    34   18   19 1   
    35   18   24 1   
    36   18   39 1   
    37   18   46 1   
    38   19   23 1   
    39   19   40 1   
    40   19   41 1   
    41   20   21 2   
    42   20   24 1   
    43   20   42 1   
    44   22   23 1   
    45   22   24 1   
    46   23   43 1   
    47   23   44 1   
    48   24   45 1   
@<TRIPOS>SUBSTRUCTURE
     1 ZPR         1 TEMP              0 ****  ****    0 ROOT
