@<TRIPOS>MOLECULE
ZPX
   80    82     1     0     0
SMALL
bcc


@<TRIPOS>ATOM
      1 CAA         0.5890    1.0270    0.0330 c3        1 ZPX     -0.130100
      2 CAB         2.6980    3.9860   -6.8180 c3        1 ZPX      0.087100
      3 CAC         5.3960    2.2090   -8.4210 c3        1 ZPX     -0.603800
      4 OAD         3.7210    0.1860   -1.7730 o         1 ZPX     -0.404100
      5 OAE         4.6220    6.9990   -2.7570 o         1 ZPX     -0.378100
      6 OAF         5.9870    1.8080   -6.0110 o         1 ZPX     -0.394900
      7 OAG         5.9210    4.0500   -6.7880 o         1 ZPX     -0.394900
      8 OAH         2.9590    5.2850    0.9970 oh        1 ZPX     -0.651800
      9 FAI         2.1170   -0.5200    6.0210 f         1 ZPX     -0.084900
     10 CAJ         1.1790   11.4500   -1.9680 ca        1 ZPX     -0.085000
     11 CAK         0.3900   10.3440   -1.6430 ca        1 ZPX     -0.108500
     12 CAL         2.4730   11.5570   -1.4560 ca        1 ZPX     -0.108500
     13 CAM         6.8640    3.2760    2.9020 cc        1 ZPX     -0.250300
     14 CAN         5.8090    2.5360    2.2470 cc        1 ZPX      0.329200
     15 CAO         0.8930    9.3470   -0.8100 ca        1 ZPX     -0.134000
     16 CAP         2.9790   10.5620   -0.6190 ca        1 ZPX     -0.134000
     17 CAQ         2.6100   -1.2050    3.7870 ca        1 ZPX     -0.163500
     18 CAR         1.5320    0.9450    4.2300 ca        1 ZPX     -0.163500
     19 CAS         2.5740   -0.9310    2.4270 ca        1 ZPX     -0.069000
     20 CAT         1.5020    1.1990    2.8670 ca        1 ZPX     -0.069000
     21 CAU         6.7940    4.5580    2.3490 cd        1 ZPX     -0.093300
     22 CAV         3.4650    3.8130   -1.8040 ca        1 ZPX     -0.052000
     23 CAW         3.3120    2.2320   -3.6450 ca        1 ZPX     -0.032000
     24 CAX         3.4840    4.6050   -4.1140 ca        1 ZPX     -0.032000
     25 CAY         2.7010    8.4240    0.6540 c3        1 ZPX     -0.050100
     26 CAZ         5.3460    5.6630    0.6060 c3        1 ZPX      0.032300
     27 NBA         5.1500    3.3230    1.3590 nd        1 ZPX     -0.650800
     28 NBB         3.0760    1.4430    0.0630 n4        1 ZPX     -0.672800
     29 NBC         2.8550    6.8070   -1.2510 n4        1 ZPX     -0.668800
     30 CBD         3.4140    1.3090   -1.3830 c         1 ZPX      0.552700
     31 CBE         3.7660    6.2520   -2.3040 c         1 ZPX      0.550700
     32 CBF         2.0870   -0.2660    4.7020 ca        1 ZPX      0.211900
     33 CBG         2.1930    9.4500   -0.2940 ca        1 ZPX     -0.181300
     34 CBH         3.3730    2.4980   -2.2670 ca        1 ZPX     -0.146600
     35 CBI         3.5300    4.8550   -2.7350 ca        1 ZPX     -0.168600
     36 CBJ         2.0200    0.2690    1.9540 ca        1 ZPX     -0.233300
     37 CBK         3.3660    3.2820   -4.5860 ca        1 ZPX      0.054600
     38 CBL         1.9370    0.4930    0.4820 c3        1 ZPX      0.217800
     39 CBM         3.9770    6.2760    0.9820 c3        1 ZPX      0.102100
     40 CBN         3.5780    7.3670   -0.0450 c3        1 ZPX      0.120500
     41 NBO         3.3630    2.9860   -5.9920 nh        1 ZPX     -0.783600
     42 NBP         5.7380    4.5380    1.4150 na        1 ZPX      0.054400
     43 SBQ         5.7560    2.7260   -6.9680 s4        1 ZPX      1.660500
     44 HAA         0.3590    2.0290    0.4680 hc        1 ZPX      0.078033
     45 HAAA       -0.1980    0.3100    0.3910 hc        1 ZPX      0.078033
     46 HAAB        0.5260    1.0840   -1.0810 hc        1 ZPX      0.078033
     47 HAB         2.4580    3.5350   -7.8190 h1        1 ZPX      0.085033
     48 HABA        1.7360    4.3570   -6.3710 h1        1 ZPX      0.085033
     49 HABB        3.3880    4.8620   -6.9610 h1        1 ZPX      0.085033
     50 HAC         4.5060    2.6930   -8.9350 h1        1 ZPX      0.226367
     51 HACA        5.1870    1.0950   -8.5270 h1        1 ZPX      0.226367
     52 HACB        6.2030    2.3640   -9.2190 h1        1 ZPX      0.226367
     53 HAK        -0.6420   10.2740   -2.0250 ha        1 ZPX      0.165500
     54 HAL         3.0900   12.4400   -1.6940 ha        1 ZPX      0.165500
     55 HAM         7.5550    2.9060    3.6570 ha        1 ZPX      0.208000
     56 HAN         5.5480    1.4890    2.4210 h4        1 ZPX      0.048100
     57 HAO         0.2410    8.5140   -0.5060 ha        1 ZPX      0.135500
     58 HAP         3.9900   10.6690   -0.1950 ha        1 ZPX      0.135500
     59 HAQ         3.0300   -2.1540    4.1630 ha        1 ZPX      0.185500
     60 HAR         1.1120    1.6640    4.9520 ha        1 ZPX      0.185500
     61 HAS         2.9670   -1.6810    1.7200 ha        1 ZPX      0.141000
     62 HAT         1.0440    2.1350    2.5090 ha        1 ZPX      0.141000
     63 HAU         7.3940    5.4530    2.5310 h4        1 ZPX      0.206000
     64 HAV         3.5330    4.0440   -0.7230 ha        1 ZPX      0.189000
     65 HAW         3.2420    1.1760   -3.9780 ha        1 ZPX      0.194000
     66 HAX         3.5610    5.4550   -4.8190 ha        1 ZPX      0.189000
     67 HAY         3.3430    8.9160    1.4380 hc        1 ZPX      0.097700
     68 HAYA        1.8500    7.9160    1.1830 hc        1 ZPX      0.097700
     69 HAZ         6.1330    6.4630    0.7270 h1        1 ZPX      0.072700
     70 HAZA        5.3190    5.3520   -0.4790 h1        1 ZPX      0.072700
     71 HNBB        3.9070    1.1830    0.6190 hn        1 ZPX      0.470300
     72 HNBC        2.1950    6.0880   -0.9320 hn        1 ZPX      0.482800
     73 HBL         2.1500   -0.4820   -0.0620 hx        1 ZPX      0.124700
     74 HBM         4.0570    6.7750    1.9920 h1        1 ZPX      0.113700
     75 HBN         4.5140    7.8720   -0.4350 hx        1 ZPX      0.129700
     76 HOAH        2.8820    4.9600    1.9060 ho        1 ZPX      0.462000
     77 HBB2        2.8190    2.4040    0.3020 hn        1 ZPX      0.470300
     78 HBC2        2.3130    7.5960   -1.6660 hn        1 ZPX      0.482800
     79 HBO1        2.9160    2.0870   -6.1240 hn        1 ZPX      0.410800
     80 HAJ         0.7720   12.2480   -2.6110 ha        1 ZPX      0.171000
@<TRIPOS>BOND
     1    1   38 1   
     2    1   44 1   
     3    1   45 1   
     4    1   46 1   
     5    2   41 1   
     6    2   47 1   
     7    2   48 1   
     8    2   49 1   
     9    3   43 1   
    10    3   50 1   
    11    3   51 1   
    12    3   52 1   
    13    4   30 2   
    14    5   31 2   
    15    6   43 1   
    16    7   43 1   
    17    8   39 1   
    18    8   76 1   
    19    9   32 1   
    20   10   11 ar  
    21   10   12 ar  
    22   10   80 1   
    23   11   15 ar  
    24   11   53 1   
    25   12   16 ar  
    26   12   54 1   
    27   13   14 1   
    28   13   21 2   
    29   13   55 1   
    30   14   27 2   
    31   14   56 1   
    32   15   33 ar  
    33   15   57 1   
    34   16   33 ar  
    35   16   58 1   
    36   17   19 ar  
    37   17   32 ar  
    38   17   59 1   
    39   18   20 ar  
    40   18   32 ar  
    41   18   60 1   
    42   19   36 ar  
    43   19   61 1   
    44   20   36 ar  
    45   20   62 1   
    46   21   42 1   
    47   21   63 1   
    48   22   34 ar  
    49   22   35 ar  
    50   22   64 1   
    51   23   34 ar  
    52   23   37 ar  
    53   23   65 1   
    54   24   35 ar  
    55   24   37 ar  
    56   24   66 1   
    57   25   33 1   
    58   25   40 1   
    59   25   67 1   
    60   25   68 1   
    61   26   39 1   
    62   26   42 1   
    63   26   69 1   
    64   26   70 1   
    65   27   42 1   
    66   28   30 1   
    67   28   38 1   
    68   28   71 1   
    69   28   77 1   
    70   29   31 1   
    71   29   40 1   
    72   29   72 1   
    73   29   78 1   
    74   30   34 1   
    75   31   35 1   
    76   36   38 1   
    77   37   41 1   
    78   38   73 1   
    79   39   40 1   
    80   39   74 1   
    81   40   75 1   
    82   41   79 1   
@<TRIPOS>SUBSTRUCTURE
     1 ZPX         1 TEMP              0 ****  ****    0 ROOT
