@<TRIPOS>MOLECULE
ZPX
   79    82     1     0     0
SMALL
bcc


@<TRIPOS>ATOM
      1 CAA         0.8230   -0.5410    0.5340 c3        1 ZPX     -0.132100
      2 CAB         1.7470    1.9840   -5.7600 c3        1 ZPX      0.185100
      3 CAC         4.1850    1.9350   -7.3780 c3        1 ZPX     -0.393300
      4 OAD        -0.1460    2.3370   -0.4790 o         1 ZPX     -0.383100
      5 OAE         5.1750    6.3810   -2.1480 o         1 ZPX     -0.381100
      6 OAF         5.0490    1.2890   -5.0840 o         1 ZPX     -0.637800
      7 OAG         5.1190    3.5890   -5.6960 o         1 ZPX     -0.637800
      8 OAH         1.9710    6.5960    0.8950 oh        1 ZPX     -0.632800
      9 FAI         6.6250   -1.7620    2.8440 f         1 ZPX     -0.096900
     10 CAJ         4.0550   11.7940   -3.3960 ca        1 ZPX     -0.090000
     11 CAK         2.7760   11.2730   -3.1940 ca        1 ZPX     -0.111000
     12 CAL         5.0760   11.5080   -2.4880 ca        1 ZPX     -0.111000
     13 CAM         3.6580    4.1730    4.4870 cc        1 ZPX     -0.258300
     14 CAN         2.7680    3.5400    3.5380 cc        1 ZPX      0.318200
     15 CAO         2.5180   10.4630   -2.0900 ca        1 ZPX     -0.131500
     16 CAP         4.8200   10.7000   -1.3810 ca        1 ZPX     -0.131500
     17 CAQ         5.5640   -1.0770    0.8180 ca        1 ZPX     -0.161000
     18 CAR         4.3810   -0.9530    2.9540 ca        1 ZPX     -0.161000
     19 CAS         4.4410   -0.5680    0.1780 ca        1 ZPX     -0.072500
     20 CAT         3.2670   -0.4500    2.2960 ca        1 ZPX     -0.072500
     21 CAU         4.3600    5.1200    3.7350 cd        1 ZPX     -0.105300
     22 CAV         2.4620    4.3190   -1.3150 ca        1 ZPX     -0.092000
     23 CAW         1.9640    2.5300   -2.8930 ca        1 ZPX     -0.072000
     24 CAX         3.3870    4.3830   -3.5710 ca        1 ZPX     -0.059000
     25 CAY         3.2520    9.3470    0.0260 c3        1 ZPX     -0.050100
     26 CAZ         4.2760    5.9050    1.3430 c3        1 ZPX      0.023300
     27 NBA         2.9300    4.0720    2.3010 nd        1 ZPX     -0.623800
     28 NBB         1.8970    1.7360    0.4790 ny        1 ZPX     -0.680800
     29 NBC         3.1630    7.3140   -1.4320 ny        1 ZPX     -0.673800
     30 CBD         1.0680    2.4120   -0.5780 c         1 ZPX      0.563700
     31 CBE         3.9820    6.1780   -1.9890 c         1 ZPX      0.560700
     32 CBF         5.5400   -1.2720    2.2150 ca        1 ZPX      0.194900
     33 CBG         3.5410   10.1700   -1.1770 ca        1 ZPX     -0.173300
     34 CBH         1.8530    3.1020   -1.6240 ca        1 ZPX     -0.160600
     35 CBI         3.2350    4.9420   -2.2990 ca        1 ZPX     -0.167600
     36 CBJ         3.2870   -0.2520    0.9090 ca        1 ZPX     -0.218300
     37 CBK         2.7470    3.1570   -3.8910 ca        1 ZPX      0.189600
     38 CBL         2.0780    0.2450    0.1840 c3        1 ZPX      0.217800
     39 CBM         3.2880    7.0730    1.1070 c3        1 ZPX      0.102100
     40 CBN         3.7090    7.8860   -0.1470 c3        1 ZPX      0.123500
     41 NBO         2.9120    2.5720   -5.1530 nh        1 ZPX     -0.666900
     42 NBP         3.8950    5.0110    2.4090 na        1 ZPX      0.062400
     43 SBQ         4.4650    2.3500   -5.7830 s6        1 ZPX      1.463900
     44 HAA         0.9950   -1.6100    0.2450 hc        1 ZPX      0.084700
     45 HAAA        0.6020   -0.5110    1.6280 hc        1 ZPX      0.084700
     46 HAAB       -0.0660   -0.1580   -0.0270 hc        1 ZPX      0.084700
     47 HAB         1.6970    2.2880   -6.8420 h1        1 ZPX      0.062033
     48 HABA        0.8010    2.3340   -5.2670 h1        1 ZPX      0.062033
     49 HABB        1.7890    0.8620   -5.6920 h1        1 ZPX      0.062033
     50 HAC         3.6040    0.9880   -7.5270 h1        1 ZPX      0.148033
     51 HACA        5.1630    1.7560   -7.9110 h1        1 ZPX      0.148033
     52 HACB        3.6700    2.7210   -7.9880 h1        1 ZPX      0.148033
     53 HAK         1.9650   11.5170   -3.8990 ha        1 ZPX      0.160500
     54 HAL         6.0820   11.9320   -2.6380 ha        1 ZPX      0.160500
     55 HAM         3.7520    3.9510    5.5470 ha        1 ZPX      0.200000
     56 HAN         2.0480    2.7480    3.7500 h4        1 ZPX      0.044100
     57 HAO         1.4940   10.0980   -1.9100 ha        1 ZPX      0.136000
     58 HAP         5.6240   10.4970   -0.6560 ha        1 ZPX      0.136000
     59 HAQ         6.4690   -1.3400    0.2460 ha        1 ZPX      0.180500
     60 HAR         4.3690   -1.1210    4.0430 ha        1 ZPX      0.180500
     61 HAS         4.4640   -0.4340   -0.9160 ha        1 ZPX      0.143000
     62 HAT         2.3610   -0.2230    2.8790 ha        1 ZPX      0.143000
     63 HAU         5.1460    5.8230    4.0190 h4        1 ZPX      0.201000
     64 HAV         2.3350    4.7690   -0.3130 ha        1 ZPX      0.183000
     65 HAW         1.4440    1.5810   -3.1160 ha        1 ZPX      0.175000
     66 HAX         4.0330    4.8910   -4.3200 ha        1 ZPX      0.220000
     67 HAY         2.1560    9.3700    0.2710 hc        1 ZPX      0.093200
     68 HAYA        3.8060    9.7640    0.9130 hc        1 ZPX      0.093200
     69 HAZ         4.3830    5.3160    0.3880 h1        1 ZPX      0.078200
     70 HAZA        5.2820    6.3410    1.6080 h1        1 ZPX      0.078200
     71 HNBB        2.8250    2.1750    0.5270 hn        1 ZPX      0.467300
     72 HNBC        2.1950    7.0040   -1.2710 hn        1 ZPX      0.481300
     73 HBL         2.2530    0.1810   -0.9340 hx        1 ZPX      0.095700
     74 HBM         3.3200    7.7720    1.9920 h1        1 ZPX      0.100700
     75 HBN         4.8380    7.8680   -0.2380 hx        1 ZPX      0.124700
     76 HOAH        1.5400    6.5080    1.7560 ho        1 ZPX      0.462000
     77 HBB2        1.4410    1.8350    1.3940 hn        1 ZPX      0.467300
     78 HBC2        3.1520    8.0820   -2.1300 hn        1 ZPX      0.481300
     79 HAJ         4.2550   12.4440   -4.2640 ha        1 ZPX      0.165000
@<TRIPOS>BOND
     1    1   38 1   
     2    1   44 1   
     3    1   45 1   
     4    1   46 1   
     5    2   41 1   
     6    2   47 1   
     7    2   48 1   
     8    2   49 1   
     9    3   43 1   
    10    3   50 1   
    11    3   51 1   
    12    3   52 1   
    13    4   30 2   
    14    5   31 2   
    15    6   43 2   
    16    7   43 2   
    17    8   39 1   
    18    8   76 1   
    19    9   32 1   
    20   10   11 ar  
    21   10   12 ar  
    22   10   79 1   
    23   11   15 ar  
    24   11   53 1   
    25   12   16 ar  
    26   12   54 1   
    27   13   14 1   
    28   13   21 2   
    29   13   55 1   
    30   14   27 2   
    31   14   56 1   
    32   15   33 ar  
    33   15   57 1   
    34   16   33 ar  
    35   16   58 1   
    36   17   19 ar  
    37   17   32 ar  
    38   17   59 1   
    39   18   20 ar  
    40   18   32 ar  
    41   18   60 1   
    42   19   36 ar  
    43   19   61 1   
    44   20   36 ar  
    45   20   62 1   
    46   21   42 1   
    47   21   63 1   
    48   22   34 ar  
    49   22   35 ar  
    50   22   64 1   
    51   23   34 ar  
    52   23   37 ar  
    53   23   65 1   
    54   24   35 ar  
    55   24   37 ar  
    56   24   66 1   
    57   25   33 1   
    58   25   40 1   
    59   25   67 1   
    60   25   68 1   
    61   26   39 1   
    62   26   42 1   
    63   26   69 1   
    64   26   70 1   
    65   27   42 1   
    66   28   30 1   
    67   28   38 1   
    68   28   71 1   
    69   28   77 1   
    70   29   31 1   
    71   29   40 1   
    72   29   72 1   
    73   29   78 1   
    74   30   34 1   
    75   31   35 1   
    76   36   38 1   
    77   37   41 1   
    78   38   73 1   
    79   39   40 1   
    80   39   74 1   
    81   40   75 1   
    82   41   43 1   
@<TRIPOS>SUBSTRUCTURE
     1 ZPX         1 TEMP              0 ****  ****    0 ROOT
