@<TRIPOS>MOLECULE
ZPX
   77    80     1     0     0
SMALL
bcc


@<TRIPOS>ATOM
      1 CAA        -0.9980   -5.0230   -2.8670 c3        1 ZPX     -0.107100
      2 CAB         5.5070   -0.3690    0.9330 c3        1 ZPX      0.189100
      3 CAC         4.3060   -2.9860    3.2880 c3        1 ZPX     -0.375300
      4 OAD         0.0790   -4.2160    0.8000 o         1 ZPX     -0.591100
      5 OAE         1.3210    2.4900    1.4840 o         1 ZPX     -0.601100
      6 OAF         6.5510   -2.6860    2.1630 o         1 ZPX     -0.643800
      7 OAG         4.8790   -3.9670    1.0410 o         1 ZPX     -0.643800
      8 OAH        -2.8910    3.1040    0.2120 oh        1 ZPX     -0.584800
      9 FAI        -6.7270   -2.3920   -2.2620 f         1 ZPX     -0.136900
     10 CAJ         2.1340    2.4840   -4.6210 ca        1 ZPX     -0.126000
     11 CAK         0.9520    1.7560   -4.4910 ca        1 ZPX     -0.126000
     12 CAL         2.3360    3.6260   -3.8460 ca        1 ZPX     -0.126000
     13 CAM        -3.8590    4.9030    4.3900 cc        1 ZPX     -0.300300
     14 CAN        -3.4000    6.1210    3.7600 cc        1 ZPX      0.295200
     15 CAO        -0.0270    2.1670   -3.5870 ca        1 ZPX     -0.129500
     16 CAP         1.3580    4.0400   -2.9420 ca        1 ZPX     -0.129500
     17 CAQ        -5.1730   -3.7790   -1.0880 ca        1 ZPX     -0.166500
     18 CAR        -4.4370   -2.3780   -2.9460 ca        1 ZPX     -0.166500
     19 CAS        -3.8690   -4.2360   -0.9300 ca        1 ZPX     -0.095500
     20 CAT        -3.1400   -2.8510   -2.7720 ca        1 ZPX     -0.095500
     21 CAU        -3.1120    3.8870    3.7800 cd        1 ZPX     -0.140300
     22 CAV         0.5170   -0.8020    0.2840 ca        1 ZPX     -0.106000
     23 CAW         2.3960   -2.3250    0.5430 ca        1 ZPX     -0.127000
     24 CAX         2.7020    0.0570    0.9000 ca        1 ZPX     -0.100000
     25 CAY        -0.8780    3.7580   -1.8500 c3        1 ZPX     -0.055100
     26 CAZ        -1.3450    3.8160    1.9780 c3        1 ZPX      0.025300
     27 NBA        -2.4440    5.8450    2.8370 nd        1 ZPX     -0.517800
     28 NBB        -0.5260   -3.2520   -1.1970 n         1 ZPX     -0.566900
     29 NBC        -0.1690    2.0380   -0.2010 n         1 ZPX     -0.553900
     30 CBD         0.1680   -3.2710   -0.0070 c         1 ZPX      0.675700
     31 CBE         0.8570    1.6760    0.6590 c         1 ZPX      0.660700
     32 CBF        -5.4610   -2.8450   -2.1000 ca        1 ZPX      0.130900
     33 CBG         0.1700    3.3120   -2.8050 ca        1 ZPX     -0.091300
     34 CBH         1.0500   -2.0930    0.2680 ca        1 ZPX     -0.115600
     35 CBI         1.3550    0.2700    0.5980 ca        1 ZPX     -0.121600
     36 CBJ        -2.8470   -3.7820   -1.7710 ca        1 ZPX     -0.121300
     37 CBK         3.2480   -1.2460    0.8760 ca        1 ZPX      0.153600
     38 CBL        -1.4400   -4.3050   -1.5880 c3        1 ZPX      0.147000
     39 CBM        -1.7360    3.8670    0.4890 c3        1 ZPX      0.116100
     40 CBN        -0.5270    3.4300   -0.3860 c3        1 ZPX      0.064700
     41 NBO         4.6060   -1.4650    1.1770 nh        1 ZPX     -0.672900
     42 NBP        -2.2620    4.5130    2.8560 na        1 ZPX      0.086400
     43 SBQ         5.1900   -2.8600    1.8490 s6        1 ZPX      1.459900
     44 HAA         0.0050   -5.4920   -2.7250 hc        1 ZPX      0.047033
     45 HAAA       -1.7380   -5.8250   -3.1030 hc        1 ZPX      0.047033
     46 HAAB       -0.9470   -4.3200   -3.7320 hc        1 ZPX      0.047033
     47 HAB         5.4280    0.4040    1.7450 h1        1 ZPX      0.058367
     48 HABA        6.5650   -0.7510    0.9030 h1        1 ZPX      0.058367
     49 HABB        5.2740    0.1200   -0.0510 h1        1 ZPX      0.058367
     50 HAC         4.5130   -2.1630    4.0160 h1        1 ZPX      0.125033
     51 HACA        3.1970   -3.0090    3.1390 h1        1 ZPX      0.125033
     52 HACB        4.5610   -3.9390    3.8200 h1        1 ZPX      0.125033
     53 HAJ         2.9050    2.1600   -5.3360 ha        1 ZPX      0.135000
     54 HAK         0.7870    0.8600   -5.1070 ha        1 ZPX      0.134000
     55 HAL         3.2660    4.2040   -3.9490 ha        1 ZPX      0.134000
     56 HAM        -4.6110    4.8110    5.1630 ha        1 ZPX      0.164000
     57 HAN        -3.7340    7.1390    3.9560 h4        1 ZPX      0.041100
     58 HAO        -0.9640    1.5980   -3.4970 ha        1 ZPX      0.132500
     59 HAP         1.5170    4.9430   -2.3330 ha        1 ZPX      0.132500
     60 HAQ        -5.9790   -4.1360   -0.4310 ha        1 ZPX      0.151500
     61 HAR        -4.6720   -1.6490   -3.7340 ha        1 ZPX      0.151500
     62 HAS        -3.6430   -4.9630   -0.1330 ha        1 ZPX      0.139000
     63 HAT        -2.3420   -2.4930   -3.4390 ha        1 ZPX      0.139000
     64 HAU        -3.1100    2.8090    3.9300 h4        1 ZPX      0.171000
     65 HAV        -0.5530   -0.6490    0.0810 ha        1 ZPX      0.147000
     66 HAW         2.7740   -3.3650    0.4950 ha        1 ZPX      0.187000
     67 HAX         3.3210    0.9300    1.1720 ha        1 ZPX      0.167000
     68 HAY        -1.0060    4.8720   -1.9240 hc        1 ZPX      0.072200
     69 HAYA       -1.8680    3.2900   -2.1010 hc        1 ZPX      0.072200
     70 HAZ        -1.3000    2.7430    2.3190 h1        1 ZPX      0.081200
     71 HAZA       -0.3140    4.2620    2.0940 h1        1 ZPX      0.081200
     72 HNBB       -0.4230   -2.4840   -1.8140 hn        1 ZPX      0.310500
     73 HNBC       -0.3630    1.4360   -0.9700 hn        1 ZPX      0.311500
     74 HBL        -1.4450   -5.0710   -0.7480 h1        1 ZPX      0.097700
     75 HBM        -2.0210    4.9160    0.1860 h1        1 ZPX      0.105700
     76 HBN         0.3550    4.0710   -0.0760 h1        1 ZPX      0.081700
     77 HOAH       -2.7480    2.2130    0.5520 ho        1 ZPX      0.400000
@<TRIPOS>BOND
     1    1   38 1   
     2    1   44 1   
     3    1   45 1   
     4    1   46 1   
     5    2   41 1   
     6    2   47 1   
     7    2   48 1   
     8    2   49 1   
     9    3   43 1   
    10    3   50 1   
    11    3   51 1   
    12    3   52 1   
    13    4   30 2   
    14    5   31 2   
    15    6   43 2   
    16    7   43 2   
    17    8   39 1   
    18    8   77 1   
    19    9   32 1   
    20   10   11 ar  
    21   10   12 ar  
    22   10   53 1   
    23   11   15 ar  
    24   11   54 1   
    25   12   16 ar  
    26   12   55 1   
    27   13   14 1   
    28   13   21 2   
    29   13   56 1   
    30   14   27 2   
    31   14   57 1   
    32   15   33 ar  
    33   15   58 1   
    34   16   33 ar  
    35   16   59 1   
    36   17   19 ar  
    37   17   32 ar  
    38   17   60 1   
    39   18   20 ar  
    40   18   32 ar  
    41   18   61 1   
    42   19   36 ar  
    43   19   62 1   
    44   20   36 ar  
    45   20   63 1   
    46   21   42 1   
    47   21   64 1   
    48   22   34 ar  
    49   22   35 ar  
    50   22   65 1   
    51   23   34 ar  
    52   23   37 ar  
    53   23   66 1   
    54   24   35 ar  
    55   24   37 ar  
    56   24   67 1   
    57   25   33 1   
    58   25   40 1   
    59   25   68 1   
    60   25   69 1   
    61   26   39 1   
    62   26   42 1   
    63   26   70 1   
    64   26   71 1   
    65   27   42 1   
    66   28   30 1   
    67   28   38 1   
    68   28   72 1   
    69   29   31 1   
    70   29   40 1   
    71   29   73 1   
    72   30   34 1   
    73   31   35 1   
    74   36   38 1   
    75   37   41 1   
    76   38   74 1   
    77   39   40 1   
    78   39   75 1   
    79   40   76 1   
    80   41   43 1   
@<TRIPOS>SUBSTRUCTURE
     1 ZPX         1 TEMP              0 ****  ****    0 ROOT
