@<TRIPOS>MOLECULE
ZRA
   56    56     1     0     0
SMALL
bcc


@<TRIPOS>ATOM
      1 C1          1.8380   -0.3000    0.7540 c         1 ZRA      0.729100
      2 O1          1.7290   -0.3490    1.9910 o         1 ZRA     -0.587000
      3 O2          3.0500   -0.6090    0.1750 os        1 ZRA     -0.433900
      4 C2          4.1200   -0.8560    1.1120 c3        1 ZRA      0.196700
      5 C3          5.3590   -1.1030    0.3220 ca        1 ZRA     -0.098300
      6 C4          6.5890   -0.6800    0.8400 ca        1 ZRA     -0.111000
      7 C5          7.7660   -0.9390    0.1400 ca        1 ZRA     -0.131500
      8 C6          7.7220   -1.6110   -1.0820 ca        1 ZRA     -0.124000
      9 C7          6.4970   -2.0260   -1.6040 ca        1 ZRA     -0.131500
     10 C8          5.3170   -1.7760   -0.9040 ca        1 ZRA     -0.111000
     11 CA1        -0.5040    0.0950    0.2130 c3        1 ZRA      0.034700
     12 CB1        -1.3010    1.2510   -0.4140 c3        1 ZRA     -0.080400
     13 CG         -0.8310    2.5960    0.0920 c3        1 ZRA     -0.085400
     14 CD         -1.7630    3.6930   -0.4260 c3        1 ZRA      0.166800
     15 NE         -1.3180    5.0230   -0.0620 n3        1 ZRA     -0.848200
     16 CZ         -2.3020    6.0850   -0.4010 c3        1 ZRA      0.608900
     17 NH1        -3.4880    6.0900    0.4800 n3        1 ZRA     -0.931300
     18 NH2        -1.6710    7.4160   -0.5430 n3        1 ZRA     -0.931300
     19 C          -1.2080   -1.2150   -0.2330 c         1 ZRA      0.629100
     20 N1          0.8890    0.1090   -0.1730 n         1 ZRA     -0.500900
     21 O          -0.8780   -1.8000   -1.2840 o         1 ZRA     -0.614100
     22 N2         -2.2040   -1.6980    0.5850 n         1 ZRA     -0.553900
     23 CA2        -2.9880   -2.8600    0.2460 c3        1 ZRA      0.005700
     24 CT         -4.4390   -2.5010   -0.0950 c         1 ZRA      0.511100
     25 OT         -5.0680   -1.6220    0.4920 o         1 ZRA     -0.493100
     26 CB2        -3.0270   -3.8980    1.3710 c3        1 ZRA     -0.107100
     27 CM         -5.0230   -3.3390   -1.2170 c3        1 ZRA      0.066900
     28 F1         -6.3740   -3.1380   -1.3950 f         1 ZRA     -0.219300
     29 H21         3.8470   -1.7560    1.7280 h1        1 ZRA      0.064700
     30 H22         4.2210    0.0360    1.7860 h1        1 ZRA      0.064700
     31 H4          6.6260   -0.1440    1.8000 ha        1 ZRA      0.139000
     32 H5          8.7310   -0.6090    0.5520 ha        1 ZRA      0.133500
     33 H6          8.6520   -1.8110   -1.6340 ha        1 ZRA      0.132000
     34 H7          6.4590   -2.5520   -2.5690 ha        1 ZRA      0.133500
     35 H8          4.3480   -2.0970   -1.3140 ha        1 ZRA      0.139000
     36 HA1        -0.5470    0.1930    1.3420 h1        1 ZRA      0.103700
     37 HB11       -1.2190    1.2110   -1.5320 hc        1 ZRA      0.060700
     38 HB12       -2.3820    1.1020   -0.1480 hc        1 ZRA      0.060700
     39 HG1        -0.8230    2.5980    1.2140 hc        1 ZRA      0.056700
     40 HG2         0.2190    2.7900   -0.2520 hc        1 ZRA      0.056700
     41 HD1        -1.7870    3.6470   -1.5530 h1        1 ZRA      0.039700
     42 HD2        -2.8080    3.4720   -0.0600 h1        1 ZRA      0.039700
     43 HE         -1.0640    5.0550    0.9080 hn        1 ZRA      0.354800
     44 HZ         -2.6980    5.8270   -1.4410 h3        1 ZRA      0.077700
     45 HH11       -3.2680    6.4130    1.4010 hn        1 ZRA      0.355550
     46 HH12       -4.1970    6.6800    0.0910 hn        1 ZRA      0.355550
     47 HH21       -1.1940    7.6950    0.2910 hn        1 ZRA      0.355550
     48 HH22       -1.0180    7.4050   -1.3000 hn        1 ZRA      0.355550
     49 HN1         1.0770   -0.1060   -1.1300 hn        1 ZRA      0.332500
     50 HN2        -2.5080   -1.1650    1.3660 hn        1 ZRA      0.327500
     51 HA2        -2.5150   -3.3380   -0.6680 h1        1 ZRA      0.102700
     52 HB21       -3.5040   -3.4760    2.2880 hc        1 ZRA      0.054033
     53 HB22       -3.6190   -4.7810    1.0310 hc        1 ZRA      0.054033
     54 HB23       -1.9930   -4.2340    1.6250 hc        1 ZRA      0.054033
     55 HM1        -4.4830   -3.0710   -2.1700 h1        1 ZRA      0.071200
     56 HM2        -4.8420   -4.4270   -0.9870 h1        1 ZRA      0.071200
@<TRIPOS>BOND
     1    1    2 2   
     2    1    3 1   
     3    1   20 1   
     4    3    4 1   
     5    4    5 1   
     6    4   29 1   
     7    4   30 1   
     8    5    6 ar  
     9    5   10 ar  
    10    6    7 ar  
    11    6   31 1   
    12    7    8 ar  
    13    7   32 1   
    14    8    9 ar  
    15    8   33 1   
    16    9   10 ar  
    17    9   34 1   
    18   10   35 1   
    19   11   12 1   
    20   11   19 1   
    21   11   20 1   
    22   11   36 1   
    23   12   13 1   
    24   12   37 1   
    25   12   38 1   
    26   13   14 1   
    27   13   39 1   
    28   13   40 1   
    29   14   15 1   
    30   14   41 1   
    31   14   42 1   
    32   15   16 1   
    33   15   43 1   
    34   16   17 1   
    35   16   18 1   
    36   16   44 1   
    37   17   45 1   
    38   17   46 1   
    39   18   47 1   
    40   18   48 1   
    41   19   21 2   
    42   19   22 1   
    43   20   49 1   
    44   22   23 1   
    45   22   50 1   
    46   23   24 1   
    47   23   26 1   
    48   23   51 1   
    49   24   25 2   
    50   24   27 1   
    51   26   52 1   
    52   26   53 1   
    53   26   54 1   
    54   27   28 1   
    55   27   55 1   
    56   27   56 1   
@<TRIPOS>SUBSTRUCTURE
     1 ZRA         1 TEMP              0 ****  ****    0 ROOT
