@<TRIPOS>MOLECULE
ZRG
   42    41     1     0     0
SMALL
bcc


@<TRIPOS>ATOM
      1 CAC        -3.2010    3.6070    0.5800 c3        1 ZRG     -0.174100
      2 CAP        -3.0360    2.3280   -0.2030 c         1 ZRG      0.658100
      3 OAE        -3.1390    2.3000   -1.4450 o         1 ZRG     -0.610100
      4 N          -2.7100    1.1860    0.5170 n         1 ZRG     -0.553900
      5 CA         -2.6920   -0.1160   -0.0970 c3        1 ZRG      0.034700
      6 C          -3.9610   -0.9270    0.2870 c         1 ZRG      0.629100
      7 O          -4.4100   -0.8960    1.4500 o         1 ZRG     -0.618100
      8 NAL        -4.5310   -1.7030   -0.6950 n         1 ZRG     -0.564900
      9 CAB        -5.7160   -2.4730   -0.4830 c3        1 ZRG      0.076300
     10 CB         -1.4920   -0.9760    0.3330 c3        1 ZRG     -0.082400
     11 CG         -0.1840   -0.3970   -0.1580 c3        1 ZRG     -0.089400
     12 CD          0.9580   -1.3560    0.1860 c3        1 ZRG      0.187800
     13 NE          2.2400   -0.8700   -0.2860 nh        1 ZRG     -0.799200
     14 CZ          3.3980   -1.6100    0.1000 c2        1 ZRG      0.650800
     15 NH1         3.3130   -2.7950    0.6390 n2        1 ZRG     -0.838100
     16 NH2         4.6840   -1.0080   -0.2310 n         1 ZRG     -0.537400
     17 CAR         4.9220    0.3630    0.0020 c         1 ZRG      0.750100
     18 OAF         4.1400    1.0460    0.7080 o         1 ZRG     -0.637100
     19 NAK         6.0620    0.9520   -0.5760 n         1 ZRG     -0.545900
     20 CAA         6.4850    2.2380   -0.1030 c3        1 ZRG      0.069300
     21 H1AC       -3.4210    4.4370   -0.1340 hc        1 ZRG      0.069033
     22 H2AC       -4.0460    3.5140    1.3040 hc        1 ZRG      0.069033
     23 H3AC       -2.2650    3.8470    1.1400 hc        1 ZRG      0.069033
     24 HN         -2.8280    1.1960    1.5050 hn        1 ZRG      0.320500
     25 HA         -2.6460    0.0350   -1.2180 h1        1 ZRG      0.097700
     26 HNAL       -4.1960   -1.6250   -1.6250 hn        1 ZRG      0.313500
     27 H1AB       -6.5840   -2.0230   -1.0370 h1        1 ZRG      0.046033
     28 H2AB       -5.5550   -3.5200   -0.8570 h1        1 ZRG      0.046033
     29 H3AB       -5.9630   -2.5070    0.6120 h1        1 ZRG      0.046033
     30 H1B        -1.4750   -1.0780    1.4500 hc        1 ZRG      0.059700
     31 H2B        -1.6360   -2.0020   -0.0970 hc        1 ZRG      0.059700
     32 H1G        -0.2320   -0.2340   -1.2670 hc        1 ZRG      0.055700
     33 H2G        -0.0050    0.6020    0.3190 hc        1 ZRG      0.055700
     34 H1D         0.9590   -1.5260    1.3020 h1        1 ZRG      0.052700
     35 H2D         0.7670   -2.3520   -0.3070 h1        1 ZRG      0.052700
     36 HNE         2.3480    0.1200   -0.1530 hn        1 ZRG      0.422800
     37 HH1         4.1730   -3.2750    0.7920 hn        1 ZRG      0.403400
     38 HNH2        5.1380   -1.4340   -1.0090 hn        1 ZRG      0.309500
     39 HNAK        6.7930    0.3480   -0.8770 hn        1 ZRG      0.296500
     40 H1AA        5.5880    2.8710    0.1320 h1        1 ZRG      0.049367
     41 H2AA        7.1190    2.1590    0.8220 h1        1 ZRG      0.049367
     42 H3AA        7.0850    2.7280   -0.9150 h1        1 ZRG      0.049367
@<TRIPOS>BOND
     1    1    2 1   
     2    1   21 1   
     3    1   22 1   
     4    1   23 1   
     5    2    3 2   
     6    2    4 1   
     7    4    5 1   
     8    4   24 1   
     9    5    6 1   
    10    5   10 1   
    11    5   25 1   
    12    6    7 2   
    13    6    8 1   
    14    8    9 1   
    15    8   26 1   
    16    9   27 1   
    17    9   28 1   
    18    9   29 1   
    19   10   11 1   
    20   10   30 1   
    21   10   31 1   
    22   11   12 1   
    23   11   32 1   
    24   11   33 1   
    25   12   13 1   
    26   12   34 1   
    27   12   35 1   
    28   13   14 1   
    29   13   36 1   
    30   14   15 2   
    31   14   16 1   
    32   15   37 1   
    33   16   17 1   
    34   16   38 1   
    35   17   18 2   
    36   17   19 1   
    37   19   20 1   
    38   19   39 1   
    39   20   40 1   
    40   20   41 1   
    41   20   42 1   
@<TRIPOS>SUBSTRUCTURE
     1 ZRG         1 TEMP              0 ****  ****    0 ROOT
