@<TRIPOS>MOLECULE
ZRK
   24    19     1     0     0
SMALL
bcc


@<TRIPOS>ATOM
      1 C1         -3.2820   -0.0230   -2.6840 c1        1 ZRK     -0.099000
      2 C2         -1.7890    0.0050   -2.6390 c1        1 ZRK     -0.099000
      3 C3         -1.0790    0.0230   -1.3140 c1        1 ZRK      0.035000
      4 C4         -1.8040    0.0150   -0.1480 c1        1 ZRK     -0.159500
      5 C5         -3.3500   -0.0130   -0.1980 c1        1 ZRK      0.369000
      6 O8         -3.9900   -0.0290    0.8340 o         1 ZRK     -0.350000
      7 O10         0.2660    0.0490   -0.9820 os        1 ZRK     -0.083000
      8 C11         0.3660    0.0570    0.3850 c1        1 ZRK      0.035000
      9 C12         1.7900    0.0250    0.8960 c1        1 ZRK      0.025000
     10 C17         2.4350    1.1910    1.1930 c1        1 ZRK     -0.169000
     11 C16         3.7260    1.1590    1.6980 c1        1 ZRK     -0.069000
     12 C9         -0.9120    0.0360    0.9070 c1        1 ZRK     -0.159500
     13 N15         4.3510   -0.0350    1.8970 n1        1 ZRK     -0.134000
     14 C14         3.7080   -1.2000    1.6000 c1        1 ZRK     -0.071000
     15 N3         -4.0320   -0.0310   -1.4720 n2        1 ZRK     -0.294000
     16 C13         2.4170   -1.1710    1.0960 c2        1 ZRK     -0.162000
     17 H1         -3.7440   -0.0340   -3.5440 ha        1 ZRK      0.164000
     18 H2         -1.2750    0.0110   -3.4690 ha        1 ZRK      0.164000
     19 H3         -4.9440   -0.0480   -1.5000 hn        1 ZRK      0.250000
     20 H9         -1.1450    0.0350    1.8550 DU        1 ZRK      0.180000
     21 H13         1.9570   -2.0050    0.8830 ha        1 ZRK      0.156000
     22 H17         1.9870    2.0460    1.0510 ha        1 ZRK      0.147000
     23 H14         4.1570   -2.0550    1.7430 ha        1 ZRK      0.162000
     24 H16         4.1870    1.9930    1.9110 ha        1 ZRK      0.162000
@<TRIPOS>BOND
     1    1    2 1   
     2    1   17 1   
     3    2   18 1   
     4    3    4 1   
     5    3    7 1   
     6    4   12 1   
     7    5    6 1   
     8    5   15 1   
     9    7    8 1   
    10    8   12 1   
    11    9   10 1   
    12    9   16 1   
    13   10   22 1   
    14   11   13 1   
    15   11   24 1   
    16   14   16 1   
    17   14   23 1   
    18   15   19 1   
    19   16   21 1   
@<TRIPOS>SUBSTRUCTURE
     1 ZRK         1 TEMP              0 ****  ****    0 ROOT
