@<TRIPOS>MOLECULE
ZRK
   24    26     1     0     0
SMALL
bcc


@<TRIPOS>ATOM
      1 C1          0.1040    0.0010   -0.0500 cc        1 ZRK      0.032600
      2 C2          1.4800    0.0010    0.0160 cd        1 ZRK     -0.337800
      3 C3          2.0300    0.0000    1.3220 cd        1 ZRK      0.402500
      4 C4          1.2360   -0.0010    2.4860 cc        1 ZRK     -0.316900
      5 C5         -0.2080   -0.0010    2.3870 c         1 ZRK      0.732100
      6 O8         -1.0260   -0.0030    3.3240 o         1 ZRK     -0.625500
      7 O10         3.3720    0.0010    1.6470 os        1 ZRK     -0.341800
      8 C11         3.4220   -0.0010    3.0700 cd        1 ZRK      0.274200
      9 C12         4.7350   -0.0010    3.6620 ca        1 ZRK     -0.082500
     10 C17         4.8770   -0.0030    5.0590 ca        1 ZRK     -0.230800
     11 C16         6.1740   -0.0030    5.6010 ca        1 ZRK      0.395200
     12 C9          2.1430   -0.0020    3.6020 cc        1 ZRK     -0.153300
     13 N15         7.2960   -0.0010    4.8550 nb        1 ZRK     -0.660000
     14 C14         7.1450    0.0020    3.5170 ca        1 ZRK      0.395200
     15 N3         -0.7080   -0.0000    1.0590 ns        1 ZRK     -0.450100
     16 C13         5.8960    0.0020    2.8730 ca        1 ZRK     -0.230800
     17 H1         -0.4170    0.0020   -1.0260 h4        1 ZRK      0.158000
     18 H2          2.1120    0.0020   -0.8770 ha        1 ZRK      0.170000
     19 H3         -1.6980   -0.0010    0.9410 hn        1 ZRK      0.336500
     20 H9          1.8570   -0.0030    4.6520 ha        1 ZRK      0.180000
     21 H13         5.8290    0.0030    1.7760 ha        1 ZRK      0.151500
     22 H17         3.9980   -0.0050    5.7170 ha        1 ZRK      0.151500
     23 H14         8.0800    0.0030    2.9280 h4        1 ZRK      0.025100
     24 H16         6.3240   -0.0040    6.6950 h4        1 ZRK      0.025100
@<TRIPOS>BOND
     1    1    2 2   
     2    1   15 1   
     3    1   17 1   
     4    2    3 1   
     5    2   18 1   
     6    3    4 2   
     7    3    7 1   
     8    4    5 1   
     9    4   12 1   
    10    5    6 2   
    11    5   15 1   
    12    7    8 1   
    13    8    9 1   
    14    8   12 2   
    15    9   10 ar  
    16    9   16 ar  
    17   10   11 ar  
    18   10   22 1   
    19   11   13 ar  
    20   11   24 1   
    21   12   20 1   
    22   13   14 ar  
    23   14   16 ar  
    24   14   23 1   
    25   15   19 1   
    26   16   21 1   
@<TRIPOS>SUBSTRUCTURE
     1 ZRK         1 TEMP              0 ****  ****    0 ROOT
