@<TRIPOS>MOLECULE
ZRK
   24    26     1     0     0
SMALL
bcc


@<TRIPOS>ATOM
      1 C1          3.7920   -1.2800    0.0010 cc        1 ZRK      0.032600
      2 C2          2.5240   -1.8190    0.0010 cd        1 ZRK     -0.337800
      3 C3          1.4610   -0.8830    0.0000 cd        1 ZRK      0.402500
      4 C4          1.6700    0.5100   -0.0000 cc        1 ZRK     -0.316900
      5 C5          3.0130    1.0500   -0.0010 c         1 ZRK      0.732100
      6 O8          3.3420    2.2490   -0.0010 o         1 ZRK     -0.625500
      7 O10         0.1110   -1.1740    0.0010 os        1 ZRK     -0.341800
      8 C11        -0.5530    0.0850   -0.0000 cd        1 ZRK      0.274200
      9 C12        -1.9920    0.0470   -0.0000 ca        1 ZRK     -0.082500
     10 C17        -2.7290    1.2430   -0.0010 ca        1 ZRK     -0.230800
     11 C16        -4.1320    1.1660   -0.0010 ca        1 ZRK      0.395200
     12 C9          0.3670    1.1210   -0.0010 cc        1 ZRK     -0.153300
     13 N15        -4.8180    0.0070   -0.0000 nb        1 ZRK     -0.660000
     14 C14        -4.0990   -1.1320    0.0000 ca        1 ZRK      0.395200
     15 N3          4.0410    0.0720   -0.0000 n         1 ZRK     -0.450100
     16 C13        -2.6950   -1.1690    0.0000 ca        1 ZRK     -0.230800
     17 H1          4.6860   -1.9320    0.0010 h4        1 ZRK      0.158000
     18 H2          2.3440   -2.8980    0.0010 ha        1 ZRK      0.170000
     19 H3          4.9830    0.3960   -0.0000 hn        1 ZRK      0.336500
     20 H9          0.1680    2.1910   -0.0010 ha        1 ZRK      0.180000
     21 H13        -2.1570   -2.1270    0.0010 ha        1 ZRK      0.151500
     22 H17        -2.2240    2.2180   -0.0010 ha        1 ZRK      0.151500
     23 H14        -4.6850   -2.0690    0.0010 h4        1 ZRK      0.025100
     24 H16        -4.7440    2.0870   -0.0020 h4        1 ZRK      0.025100
@<TRIPOS>BOND
     1    1    2 2   
     2    1   15 1   
     3    1   17 1   
     4    2    3 1   
     5    2   18 1   
     6    3    4 2   
     7    3    7 1   
     8    4    5 1   
     9    4   12 1   
    10    5    6 2   
    11    5   15 1   
    12    7    8 1   
    13    8    9 1   
    14    8   12 2   
    15    9   10 ar  
    16    9   16 ar  
    17   10   11 ar  
    18   10   22 1   
    19   11   13 ar  
    20   11   24 1   
    21   12   20 1   
    22   13   14 ar  
    23   14   16 ar  
    24   14   23 1   
    25   15   19 1   
    26   16   21 1   
@<TRIPOS>SUBSTRUCTURE
     1 ZRK         1 TEMP              0 ****  ****    0 ROOT
