@<TRIPOS>MOLECULE
ZRL
   24    26     1     0     0
SMALL
bcc


@<TRIPOS>ATOM
      1 C3          0.0960    0.0790   -0.0400 cc        1 ZRL      0.059600
      2 C2          1.4670    0.1880    0.0330 cd        1 ZRL     -0.125500
      3 C11         2.0860    0.1120    1.3140 cd        1 ZRL     -0.007900
      4 C7          1.2920   -0.0700    2.4620 cc        1 ZRL     -0.207600
      5 C5         -0.1560   -0.1840    2.3760 c         1 ZRL      0.728100
      6 O6         -0.9410   -0.3450    3.3260 o         1 ZRL     -0.620500
      7 C9          3.4240    0.0180    3.3690 cd        1 ZRL     -0.098100
      8 C12         4.5010    0.0140    4.3260 ca        1 ZRL      0.038000
      9 C13         5.8240   -0.2330    3.9170 ca        1 ZRL     -0.243800
     10 C14         6.8430   -0.2250    4.8830 ca        1 ZRL      0.400200
     11 C8          2.0750   -0.1240    3.6500 cc        1 ZRL     -0.059000
     12 N15         6.6290    0.0050    6.1940 nb        1 ZRL     -0.664000
     13 C16         5.3590    0.2400    6.5750 ca        1 ZRL      0.400200
     14 N4         -0.6920   -0.0990    1.0690 ns        1 ZRL     -0.444100
     15 C17         4.2680    0.2570    5.6890 ca        1 ZRL     -0.243800
     16 S10         3.6960    0.2090    1.7070 ss        1 ZRL      0.107200
     17 Br1         2.5130    0.4290   -1.4820 br        1 ZRL     -0.039700
     18 H13         6.0600   -0.4330    2.8630 ha        1 ZRL      0.145500
     19 H14         7.8920   -0.4150    4.5940 h4        1 ZRL      0.024600
     20 H17         3.2550    0.4610    6.0600 ha        1 ZRL      0.145500
     21 H16         5.2080    0.4270    7.6540 h4        1 ZRL      0.024600
     22 H8          1.6350   -0.2680    4.6410 ha        1 ZRL      0.176000
     23 H3         -0.4410    0.1300   -1.0070 h4        1 ZRL      0.166000
     24 H4         -1.6800   -0.1730    0.9640 hn        1 ZRL      0.339500
@<TRIPOS>BOND
     1    1    2 2   
     2    1   14 1   
     3    1   23 1   
     4    2    3 1   
     5    2   17 1   
     6    3    4 2   
     7    3   16 1   
     8    4    5 1   
     9    4   11 1   
    10    5    6 2   
    11    5   14 1   
    12    7    8 1   
    13    7   11 2   
    14    7   16 1   
    15    8    9 ar  
    16    8   15 ar  
    17    9   10 ar  
    18    9   18 1   
    19   10   12 ar  
    20   10   19 1   
    21   11   22 1   
    22   12   13 ar  
    23   13   15 ar  
    24   13   21 1   
    25   14   24 1   
    26   15   20 1   
@<TRIPOS>SUBSTRUCTURE
     1 ZRL         1 TEMP              0 ****  ****    0 ROOT
