@<TRIPOS>MOLECULE
ZRL
   24    26     1     0     0
SMALL
bcc


@<TRIPOS>ATOM
      1 C3         -3.0140    1.2050   -0.0810 cc        1 ZRL      0.059600
      2 C2         -2.2090    0.0940   -0.1960 cd        1 ZRL     -0.125500
      3 C11        -0.7970    0.2700   -0.1170 cd        1 ZRL     -0.007900
      4 C7         -0.2640    1.5590    0.0740 cc        1 ZRL     -0.207600
      5 C5         -1.1230    2.7270    0.1940 c         1 ZRL      0.728100
      6 O6         -0.7520    3.9020    0.3630 o         1 ZRL     -0.620500
      7 C9          1.6550    0.2630   -0.0190 cd        1 ZRL     -0.098100
      8 C12         3.0440   -0.1220   -0.0150 ca        1 ZRL      0.038000
      9 C13         3.4190   -1.4560    0.2250 ca        1 ZRL     -0.243800
     10 C14         4.7840   -1.7870    0.2170 ca        1 ZRL      0.400200
     11 C8          1.1580    1.5460    0.1300 cc        1 ZRL     -0.059000
     12 N15         5.7680   -0.8940   -0.0070 nb        1 ZRL     -0.664000
     13 C16         5.3980    0.3800   -0.2370 ca        1 ZRL      0.400200
     14 N4         -2.5110    2.4680    0.1050 n         1 ZRL     -0.444100
     15 C17         4.0620    0.8150   -0.2530 ca        1 ZRL     -0.243800
     16 S10         0.4080   -0.8680   -0.2190 ss        1 ZRL      0.107200
     17 BR1        -2.9120   -1.6050   -0.4490 br        1 ZRL     -0.039700
     18 H13         2.6620   -2.2280    0.4210 ha        1 ZRL      0.145500
     19 H14         5.1110   -2.8260    0.4030 h4        1 ZRL      0.024600
     20 H17         3.8230    1.8680   -0.4520 ha        1 ZRL      0.145500
     21 H16         6.2220    1.0930   -0.4190 h4        1 ZRL      0.024600
     22 H8          1.7520    2.4530    0.2800 ha        1 ZRL      0.176000
     23 H3         -4.1180    1.1310   -0.1350 h4        1 ZRL      0.166000
     24 H4         -3.1370    3.2400    0.1820 hn        1 ZRL      0.339500
@<TRIPOS>BOND
     1    1    2 2   
     2    1   14 1   
     3    1   23 1   
     4    2    3 1   
     5    2   17 1   
     6    3    4 2   
     7    3   16 1   
     8    4    5 1   
     9    4   11 1   
    10    5    6 2   
    11    5   14 1   
    12    7    8 1   
    13    7   11 2   
    14    7   16 1   
    15    8    9 ar  
    16    8   15 ar  
    17    9   10 ar  
    18    9   18 1   
    19   10   12 ar  
    20   10   19 1   
    21   11   22 1   
    22   12   13 ar  
    23   13   15 ar  
    24   13   21 1   
    25   14   24 1   
    26   15   20 1   
@<TRIPOS>SUBSTRUCTURE
     1 ZRL         1 TEMP              0 ****  ****    0 ROOT
