@<TRIPOS>MOLECULE
ZRL
   24    14     1     0     0
SMALL
bcc


@<TRIPOS>ATOM
      1 C3         -3.4180   -0.3770   -2.7500 c1        1 ZRL     -0.103000
      2 C2         -1.9150   -0.2930   -2.7530 c1        1 ZRL     -0.103000
      3 C11        -1.1720   -0.2560   -1.4670 c1        1 ZRL     -0.266000
      4 C7         -1.8880   -0.3010   -0.2300 c1        1 ZRL     -0.187000
      5 C5         -3.4120   -0.3870   -0.2330 c1        1 ZRL      0.365000
      6 O6         -3.9700   -0.5480    0.9910 os        1 ZRL     -0.345000
      7 C9          0.4970   -0.1500    0.4000 c1        1 ZRL     -0.368000
      8 C12         1.8640    0.1690    0.9640 c1        1 ZRL     -0.014000
      9 C13         2.6360   -0.8270    1.4880 c1        1 ZRL     -0.178500
     10 C14         3.8640   -0.5260    2.0550 c1        1 ZRL     -0.014000
     11 C8         -0.8270   -0.2340    0.9690 c1        1 ZRL     -0.059000
     12 N15         4.3010    0.7640    2.0900 n1        1 ZRL     -0.138000
     13 C16         3.5320    1.7590    1.5670 c1        1 ZRL     -0.064000
     14 N4         -4.1390   -0.4230   -1.4950 n2        1 ZRL     -0.288000
     15 C17         2.3040    1.4610    0.9990 c1        1 ZRL     -0.178500
     16 S10         0.3530   -0.1590   -1.1380 s         1 ZRL      0.647000
     17 BR1        -0.9530   -0.4190   -4.4000 br        1 ZRL      0.086000
     18 H13         2.3230   -1.7510    1.4630 ha        1 ZRL      0.145500
     19 H14         4.4160   -1.2390    2.4300 DU        1 ZRL      0.164000
     20 H17         1.7530    2.1740    0.6240 ha        1 ZRL      0.145500
     21 H16         3.8460    2.6830    1.5920 ha        1 ZRL      0.161000
     22 H8         -1.0400   -0.2460    1.9220 ha        1 ZRL      0.176000
     23 H3         -3.9060   -0.4010   -3.5950 DU        1 ZRL      0.164000
     24 H4         -5.0500   -0.4740   -1.4940 hn        1 ZRL      0.253000
@<TRIPOS>BOND
     1    1    2 1   
     2    3    4 1   
     3    4    5 1   
     4    5   14 1   
     5    7   11 1   
     6    7   16 1   
     7    8   15 1   
     8    9   10 1   
     9    9   18 1   
    10   11   22 1   
    11   12   13 1   
    12   13   21 1   
    13   14   24 1   
    14   15   20 1   
@<TRIPOS>SUBSTRUCTURE
     1 ZRL         1 TEMP              0 ****  ****    0 ROOT
