@<TRIPOS>MOLECULE
ZRM
   35    28     1     0     0
SMALL
bcc


@<TRIPOS>ATOM
      1 C4          2.5830   -1.5250   -1.4580 c1        1 ZRM     -0.124750
      2 C6          2.6060   -1.6510    0.9470 c1        1 ZRM     -0.032000
      3 C3          3.9910   -1.4930   -1.4680 c1        1 ZRM     -0.124750
      4 C7          4.0100   -1.6200    0.9410 c1        1 ZRM     -0.206000
      5 C19        -2.4260    3.5280   -0.6920 c1        1 ZRM     -0.124750
      6 C23        -2.4630    3.2610    1.6620 c1        1 ZRM     -0.170000
      7 C14        -2.7610    0.2260    0.0920 c1        1 ZRM     -0.059000
      8 C20        -2.8640    4.8420   -0.5400 c1        1 ZRM     -0.124750
      9 C22        -2.9030    4.5820    1.8100 c1        1 ZRM     -0.067000
     10 C18        -2.2300    2.7500    0.4020 c1        1 ZRM      0.040000
     11 C5          1.9010   -1.6030   -0.2560 c1        1 ZRM     -0.083500
     12 C13        -1.9400   -1.1420   -0.0690 c1        1 ZRM     -0.192000
     13 C2          4.6970   -1.5410   -0.2660 c1        1 ZRM      0.082000
     14 C15        -1.8140    1.3140    0.1800 c2        1 ZRM     -0.366000
     15 C17        -0.5490   -0.8320   -0.0720 c1        1 ZRM     -0.254000
     16 C9          0.0070   -3.3340   -0.4530 c1        1 ZRM     -0.032000
     17 C8          0.4570   -1.9200   -0.2640 c1        1 ZRM     -0.083500
     18 C11        -2.3960   -2.5840   -0.3010 c1        1 ZRM      0.362000
     19 N21        -3.0970    5.3520    0.7250 n1        1 ZRM     -0.139000
     20 N10        -1.3980   -3.6520   -0.4510 n2        1 ZRM     -0.287000
     21 O12        -3.5730   -2.8600   -0.2580 o         1 ZRM     -0.354000
     22 O1          6.1780   -1.6420   -0.2600 oh        1 ZRM     -0.248000
     23 S16        -0.3990    0.7180    0.0830 ss        1 ZRM      0.606000
     24 H4          2.0670   -1.4890   -2.3330 ha        1 ZRM      0.148000
     25 H3          4.4790   -1.4370   -2.3280 ha        1 ZRM      0.148000
     26 H6          2.1320   -1.7070    1.7800 ha        1 ZRM      0.148500
     27 H7          4.5150   -1.6540    1.8030 ha        1 ZRM      0.138000
     28 H19        -2.2520    3.1470   -1.6360 ha        1 ZRM      0.148000
     29 H20        -3.0010    5.3870   -1.3050 ha        1 ZRM      0.148000
     30 H23        -2.3220    2.7030    2.4500 ha        1 ZRM      0.149000
     31 H22        -3.0680    4.9430    2.6980 ha        1 ZRM      0.161000
     32 H14        -3.7050    0.3110    0.0850 DU        1 ZRM      0.176000
     33 H1          6.5470   -0.7930   -0.1280 ho        1 ZRM      0.220000
     34 H9          0.6680   -4.0470   -0.5530 ha        1 ZRM      0.148500
     35 H10        -1.6760   -4.5360   -0.5690 hn        1 ZRM      0.250000
@<TRIPOS>BOND
     1    1    3 1   
     2    1   24 1   
     3    2   11 1   
     4    2   26 1   
     5    3   25 1   
     6    4   13 1   
     7    4   27 1   
     8    5    8 1   
     9    5   28 1   
    10    6   10 1   
    11    6   30 1   
    12    7   12 1   
    13    7   14 1   
    14    8   29 1   
    15    9   19 1   
    16    9   31 1   
    17   10   14 1   
    18   11   17 1   
    19   12   15 1   
    20   13   22 1   
    21   14   23 1   
    22   15   23 1   
    23   16   17 1   
    24   16   34 1   
    25   18   20 1   
    26   18   21 1   
    27   20   35 1   
    28   22   33 1   
@<TRIPOS>SUBSTRUCTURE
     1 ZRM         1 TEMP              0 ****  ****    0 ROOT
