@<TRIPOS>MOLECULE
ZRM
   35    38     1     0     0
SMALL
bcc


@<TRIPOS>ATOM
      1 C4          0.0120   -0.3160    0.0790 ca        1 ZRM     -0.091000
      2 C6         -0.0750    0.5590    2.3330 ca        1 ZRM     -0.091000
      3 C3          1.4010   -0.3130    0.1170 ca        1 ZRM     -0.179000
      4 C7          1.3150    0.5700    2.3890 ca        1 ZRM     -0.179000
      5 C19        -3.3590    5.3690    3.4240 ca        1 ZRM     -0.244800
      6 C23        -5.6100    4.6500    3.8880 ca        1 ZRM     -0.244800
      7 C14        -5.0150    2.2390    2.1680 cc        1 ZRM     -0.059000
      8 C20        -3.6670    6.5750    4.0730 ca        1 ZRM      0.399200
      9 C22        -5.8160    5.8910    4.5140 ca        1 ZRM      0.399200
     10 C18        -4.3520    4.3790    3.3260 ca        1 ZRM      0.040000
     11 C5         -0.7420    0.1150    1.1830 ca        1 ZRM     -0.070800
     12 C13        -4.3900    1.0970    1.5890 cc        1 ZRM     -0.212600
     13 C2          2.0520    0.1310    1.2800 ca        1 ZRM      0.127100
     14 C15        -4.0790    3.1240    2.6720 cd        1 ZRM     -0.096100
     15 C17        -2.9870    1.1540    1.6730 cd        1 ZRM      0.004100
     16 C9         -2.8660   -0.9660    0.5460 cc        1 ZRM      0.027600
     17 C8         -2.1980    0.0920    1.1310 cd        1 ZRM     -0.084400
     18 C11        -5.0760   -0.0260    0.9680 c         1 ZRM      0.725100
     19 N21        -4.8710    6.8460    4.6130 nb        1 ZRM     -0.665000
     20 N10        -4.2340   -1.0380    0.4610 ns        1 ZRM     -0.443100
     21 O12        -6.3080   -0.1640    0.8530 o         1 ZRM     -0.629500
     22 O1          3.4260    0.1100    1.2600 oh        1 ZRM     -0.494100
     23 S16        -2.4990    2.5560    2.4350 ss        1 ZRM      0.066200
     24 H4         -0.5020   -0.6520   -0.8350 ha        1 ZRM      0.137500
     25 H3          1.9960   -0.6470   -0.7440 ha        1 ZRM      0.146000
     26 H6         -0.6560    0.8980    3.2060 ha        1 ZRM      0.137500
     27 H7          1.8310    0.9160    3.2960 ha        1 ZRM      0.146000
     28 H20        -2.9090    7.3740    4.1650 h4        1 ZRM      0.023600
     29 H23        -6.4180    3.9090    3.8430 ha        1 ZRM      0.146000
     30 H22        -6.7950    6.1360    4.9640 h4        1 ZRM      0.023600
     31 H14        -6.1010    2.3700    2.1870 ha        1 ZRM      0.176000
     32 H1          3.7440    0.4390    2.1140 ho        1 ZRM      0.421000
     33 H9         -2.3100   -1.8210    0.1160 h4        1 ZRM      0.157000
     34 H10        -4.6590   -1.8310    0.0320 hn        1 ZRM      0.336500
     35 H19        -2.3600    5.2090    2.9950 ha        1 ZRM      0.146000
@<TRIPOS>BOND
     1    1    3 ar  
     2    1   11 ar  
     3    1   24 1   
     4    2    4 ar  
     5    2   11 ar  
     6    2   26 1   
     7    3   13 ar  
     8    3   25 1   
     9    4   13 ar  
    10    4   27 1   
    11    5    8 ar  
    12    5   10 ar  
    13    5   35 1   
    14    6    9 ar  
    15    6   10 ar  
    16    6   29 1   
    17    7   12 1   
    18    7   14 2   
    19    7   31 1   
    20    8   19 ar  
    21    8   28 1   
    22    9   19 ar  
    23    9   30 1   
    24   10   14 1   
    25   11   17 1   
    26   12   15 2   
    27   12   18 1   
    28   13   22 1   
    29   14   23 1   
    30   15   17 1   
    31   15   23 1   
    32   16   17 2   
    33   16   20 1   
    34   16   33 1   
    35   18   20 1   
    36   18   21 2   
    37   20   34 1   
    38   22   32 1   
@<TRIPOS>SUBSTRUCTURE
     1 ZRM         1 TEMP              0 ****  ****    0 ROOT
