@<TRIPOS>MOLECULE
ZRM
   35    38     1     0     0
SMALL
bcc


@<TRIPOS>ATOM
      1 C4          3.8190    0.1310    0.8660 ca        1 ZRM     -0.091000
      2 C6          2.4950   -1.0470   -0.7810 ca        1 ZRM     -0.091000
      3 C3          4.7730   -0.8790    0.8420 ca        1 ZRM     -0.179000
      4 C7          3.4390   -2.0690   -0.8190 ca        1 ZRM     -0.179000
      5 C19        -3.2440   -2.0320    0.3160 ca        1 ZRM     -0.244800
      6 C23        -4.4900   -0.1100   -0.4260 ca        1 ZRM     -0.244800
      7 C14        -1.9830    1.4980    0.0710 cc        1 ZRM     -0.059000
      8 C20        -4.4400   -2.7640    0.2570 ca        1 ZRM      0.399200
      9 C22        -5.6310   -0.9300   -0.4500 ca        1 ZRM      0.399200
     10 C18        -3.2640   -0.6710   -0.0340 ca        1 ZRM      0.040000
     11 C5          2.6740    0.0630    0.0560 ca        1 ZRM     -0.070800
     12 C13        -0.6290    1.9420    0.0970 cc        1 ZRM     -0.212600
     13 C2          4.5790   -1.9820   -0.0070 ca        1 ZRM      0.127100
     14 C15        -2.0590    0.1190    0.0090 cd        1 ZRM     -0.096100
     15 C17         0.2850    0.8740    0.0550 cd        1 ZRM      0.004100
     16 C9          2.0910    2.4580    0.1440 cc        1 ZRM      0.027600
     17 C8          1.6910    1.1370    0.0840 cd        1 ZRM     -0.084400
     18 C11        -0.1870    3.3270    0.1620 c         1 ZRM      0.725100
     19 N21        -5.6220   -2.2360   -0.1180 nb        1 ZRM     -0.665000
     20 N10         1.2120    3.5110    0.1810 n         1 ZRM     -0.443100
     21 O12        -0.9200    4.3320    0.1980 o         1 ZRM     -0.629500
     22 O1          5.5560   -2.9500    0.0110 oh        1 ZRM     -0.494100
     23 S16        -0.5180   -0.5870   -0.0160 ss        1 ZRM      0.066200
     24 H4          3.9610    0.9910    1.5380 ha        1 ZRM      0.137500
     25 H3          5.6700   -0.8330    1.4740 ha        1 ZRM      0.146000
     26 H6          1.6010   -1.1110   -1.4230 ha        1 ZRM      0.137500
     27 H7          3.2930   -2.9340   -1.4800 ha        1 ZRM      0.146000
     28 H20        -4.4580   -3.8360    0.5260 h4        1 ZRM      0.023600
     29 H23        -4.5600    0.9470   -0.7140 ha        1 ZRM      0.146000
     30 H22        -6.6110   -0.5190   -0.7530 h4        1 ZRM      0.023600
     31 H14        -2.8290    2.1910    0.1040 ha        1 ZRM      0.176000
     32 H1          5.3000   -3.6450   -0.6130 ho        1 ZRM      0.421000
     33 H9          3.1650    2.7260    0.1610 h4        1 ZRM      0.157000
     34 H10         1.5620    4.4440    0.2190 hn        1 ZRM      0.336500
     35 H19        -2.3120   -2.5180    0.6370 ha        1 ZRM      0.146000
@<TRIPOS>BOND
     1    1    3 ar  
     2    1   11 ar  
     3    1   24 1   
     4    2    4 ar  
     5    2   11 ar  
     6    2   26 1   
     7    3   13 ar  
     8    3   25 1   
     9    4   13 ar  
    10    4   27 1   
    11    5    8 ar  
    12    5   10 ar  
    13    5   35 1   
    14    6    9 ar  
    15    6   10 ar  
    16    6   29 1   
    17    7   12 1   
    18    7   14 2   
    19    7   31 1   
    20    8   19 ar  
    21    8   28 1   
    22    9   19 ar  
    23    9   30 1   
    24   10   14 1   
    25   11   17 1   
    26   12   15 2   
    27   12   18 1   
    28   13   22 1   
    29   14   23 1   
    30   15   17 1   
    31   15   23 1   
    32   16   17 2   
    33   16   20 1   
    34   16   33 1   
    35   18   20 1   
    36   18   21 2   
    37   20   34 1   
    38   22   32 1   
@<TRIPOS>SUBSTRUCTURE
     1 ZRM         1 TEMP              0 ****  ****    0 ROOT
