@<TRIPOS>MOLECULE
ZRO
   33    34     1     0     0
SMALL
bcc


@<TRIPOS>ATOM
      1 OAA        -0.0920    0.7690    0.0080 o         1 ZRO     -0.793300
      2 CAP         1.0480    0.2480    0.0660 c         1 ZRO      0.922800
      3 OAD         1.6260   -0.1790    1.0970 o         1 ZRO     -0.793300
      4 CAS         1.8540    0.1330   -1.2650 cc        1 ZRO      0.046400
      5 NAN         3.2240    0.3030   -1.1410 n         1 ZRO     -0.435100
      6 CAU         4.0930    0.1690   -2.2320 c         1 ZRO      0.791500
      7 OAB         5.3350    0.2920   -2.0980 o         1 ZRO     -0.692500
      8 NAO         3.5310   -0.0890   -3.4910 n         1 ZRO     -0.591500
      9 CAV         2.1450   -0.2600   -3.6800 c         1 ZRO      0.717700
     10 OAC         1.7560   -0.5090   -4.8400 o         1 ZRO     -0.668500
     11 CAT         1.2940   -0.1330   -2.4920 cd        1 ZRO     -0.296400
     12 CAM        -0.1660   -0.3110   -2.6860 c3        1 ZRO      0.011800
     13 CAL        -0.8530    1.0200   -2.9650 c3        1 ZRO     -0.048100
     14 CAQ        -2.3320    0.9000   -2.8560 ca        1 ZRO     -0.022300
     15 CAH        -2.9150    0.7530   -1.5870 ca        1 ZRO     -0.136000
     16 CAJ        -4.2970    0.6530   -1.4600 ca        1 ZRO     -0.092500
     17 CAR        -5.1050    0.7010   -2.6000 ca        1 ZRO     -0.192300
     18 CAW        -6.6130    0.5790   -2.4670 c3        1 ZRO      0.688200
     19 FAF        -7.1340    1.0280   -1.2760 f         1 ZRO     -0.249633
     20 FAG        -7.3370    1.2650   -3.4150 f         1 ZRO     -0.249633
     21 FAE        -7.0970   -0.7060   -2.5660 f         1 ZRO     -0.249633
     22 CAK        -4.5340    0.8470   -3.8650 ca        1 ZRO     -0.092500
     23 CAI        -3.1500    0.9460   -3.9900 ca        1 ZRO     -0.136000
     24 H2          4.1530   -0.1730   -4.2620 hn        1 ZRO      0.331500
     25 H4         -0.3470   -1.0140   -3.5420 hc        1 ZRO      0.058700
     26 H5         -0.6090   -0.7570   -1.7540 hc        1 ZRO      0.058700
     27 H6         -0.5590    1.3910   -3.9810 hc        1 ZRO      0.065700
     28 H7         -0.4960    1.7630   -2.1960 hc        1 ZRO      0.065700
     29 H8         -2.2540    0.7190   -0.6980 ha        1 ZRO      0.169500
     30 H9         -4.7560    0.5420   -0.4660 ha        1 ZRO      0.137500
     31 H10        -5.1780    0.8870   -4.7570 ha        1 ZRO      0.137500
     32 H11        -2.6980    1.0580   -4.9870 ha        1 ZRO      0.169500
     33 H12         3.6140    0.3770   -0.2230 hn        1 ZRO      0.367500
@<TRIPOS>BOND
     1    1    2 1   
     2    2    3 1   
     3    2    4 1   
     4    4    5 1   
     5    4   11 2   
     6    5    6 1   
     7    5   33 1   
     8    6    7 2   
     9    6    8 1   
    10    8    9 1   
    11    8   24 1   
    12    9   10 2   
    13    9   11 1   
    14   11   12 1   
    15   12   13 1   
    16   12   25 1   
    17   12   26 1   
    18   13   14 1   
    19   13   27 1   
    20   13   28 1   
    21   14   15 ar  
    22   14   23 ar  
    23   15   16 ar  
    24   15   29 1   
    25   16   17 ar  
    26   16   30 1   
    27   17   18 1   
    28   17   22 ar  
    29   18   19 1   
    30   18   20 1   
    31   18   21 1   
    32   22   23 ar  
    33   22   31 1   
    34   23   32 1   
@<TRIPOS>SUBSTRUCTURE
     1 ZRO         1 TEMP              0 ****  ****    0 ROOT
