@<TRIPOS>MOLECULE
ZRO
   33    34     1     0     0
SMALL
bcc


@<TRIPOS>ATOM
      1 OAA        -0.0930    0.7590    0.0100 o         1 ZRO     -0.793300
      2 CAP         1.0460    0.2360    0.0660 c         1 ZRO      0.922800
      3 OAD         1.6230   -0.1960    1.0960 o         1 ZRO     -0.793300
      4 CAS         1.8530    0.1250   -1.2640 cc        1 ZRO      0.046400
      5 NAN         3.2230    0.2940   -1.1380 ns        1 ZRO     -0.435100
      6 CAU         4.0920    0.1630   -2.2290 c         1 ZRO      0.791500
      7 OAB         5.3350    0.2840   -2.0940 o         1 ZRO     -0.692500
      8 NAO         3.5320   -0.0890   -3.4900 ns        1 ZRO     -0.591500
      9 CAV         2.1450   -0.2580   -3.6800 c         1 ZRO      0.717700
     10 OAC         1.7570   -0.5020   -4.8410 o         1 ZRO     -0.668500
     11 CAT         1.2940   -0.1350   -2.4920 cd        1 ZRO     -0.296400
     12 CAM        -0.1660   -0.3100   -2.6880 c3        1 ZRO      0.011800
     13 CAL        -0.8520    1.0220   -2.9620 c3        1 ZRO     -0.048100
     14 CAQ        -2.3310    0.9030   -2.8550 ca        1 ZRO     -0.022300
     15 CAH        -2.9160    0.7520   -1.5870 ca        1 ZRO     -0.136000
     16 CAJ        -4.2980    0.6530   -1.4610 ca        1 ZRO     -0.092500
     17 CAR        -5.1050    0.7060   -2.6020 ca        1 ZRO     -0.192300
     18 CAW        -6.6120    0.5850   -2.4700 c3        1 ZRO      0.688200
     19 FAF        -7.1340    1.0300   -1.2780 f         1 ZRO     -0.249633
     20 FAG        -7.3360    1.2750   -3.4170 f         1 ZRO     -0.249633
     21 FAE        -7.0980   -0.6990   -2.5740 f         1 ZRO     -0.249633
     22 CAK        -4.5320    0.8560   -3.8660 ca        1 ZRO     -0.092500
     23 CAI        -3.1480    0.9540   -3.9900 ca        1 ZRO     -0.136000
     24 H2          4.1540   -0.1710   -4.2610 hn        1 ZRO      0.331500
     25 H4         -0.3480   -1.0100   -3.5470 hc        1 ZRO      0.058700
     26 H5         -0.6110   -0.7600   -1.7580 hc        1 ZRO      0.058700
     27 H6         -0.5570    1.3960   -3.9770 hc        1 ZRO      0.065700
     28 H7         -0.4950    1.7610   -2.1900 hc        1 ZRO      0.065700
     29 H8         -2.2550    0.7130   -0.6970 ha        1 ZRO      0.169500
     30 H9         -4.7580    0.5380   -0.4680 ha        1 ZRO      0.137500
     31 H10        -5.1760    0.9000   -4.7580 ha        1 ZRO      0.137500
     32 H11        -2.6950    1.0700   -4.9860 ha        1 ZRO      0.169500
     33 H12         3.6120    0.3640   -0.2200 hn        1 ZRO      0.367500
@<TRIPOS>BOND
     1    1    2 1   
     2    2    3 1   
     3    2    4 1   
     4    4    5 1   
     5    4   11 2   
     6    5    6 1   
     7    5   33 1   
     8    6    7 2   
     9    6    8 1   
    10    8    9 1   
    11    8   24 1   
    12    9   10 2   
    13    9   11 1   
    14   11   12 1   
    15   12   13 1   
    16   12   25 1   
    17   12   26 1   
    18   13   14 1   
    19   13   27 1   
    20   13   28 1   
    21   14   15 ar  
    22   14   23 ar  
    23   15   16 ar  
    24   15   29 1   
    25   16   17 ar  
    26   16   30 1   
    27   17   18 1   
    28   17   22 ar  
    29   18   19 1   
    30   18   20 1   
    31   18   21 1   
    32   22   23 ar  
    33   22   31 1   
    34   23   32 1   
@<TRIPOS>SUBSTRUCTURE
     1 ZRO         1 TEMP              0 ****  ****    0 ROOT
