@<TRIPOS>MOLECULE
ZRO
   33    34     1     0     0
SMALL
bcc


@<TRIPOS>ATOM
      1 OAA         1.3120    2.1990   -0.5080 o         1 ZRO     -0.793300
      2 CAP         2.4850    2.1680   -0.0640 c         1 ZRO      0.922800
      3 OAD         3.1660    3.1500    0.3230 o         1 ZRO     -0.793300
      4 CAS         3.1930    0.7790   -0.0010 cc        1 ZRO      0.046400
      5 NAN         4.5540    0.7990   -0.2620 n         1 ZRO     -0.435100
      6 CAU         5.3440   -0.3540   -0.1840 c         1 ZRO      0.791500
      7 OAB         6.5830   -0.3150   -0.3900 o         1 ZRO     -0.692500
      8 NAO         4.7070   -1.5680    0.1130 n         1 ZRO     -0.591500
      9 CAV         3.3250   -1.6520    0.3760 c         1 ZRO      0.717700
     10 OAC         2.8660   -2.7800    0.6520 o         1 ZRO     -0.668500
     11 CAT         2.5600   -0.4020    0.3030 cd        1 ZRO     -0.296400
     12 CAM         1.1050   -0.4860    0.5780 c3        1 ZRO      0.011800
     13 CAL         0.3120   -0.7070   -0.7040 c3        1 ZRO     -0.048100
     14 CAQ        -1.1430   -0.4860   -0.4860 ca        1 ZRO     -0.022300
     15 CAH        -1.6180    0.8230   -0.3020 ca        1 ZRO     -0.136000
     16 CAJ        -2.9760    1.0540   -0.1110 ca        1 ZRO     -0.092500
     17 CAR        -3.8700   -0.0210   -0.1040 ca        1 ZRO     -0.192300
     18 CAW        -5.3520    0.2260    0.1190 c3        1 ZRO      0.688200
     19 FAF        -5.8090    1.4540   -0.2970 f         1 ZRO     -0.249633
     20 FAG        -6.1900   -0.6620   -0.5160 f         1 ZRO     -0.249633
     21 FAE        -5.7550    0.1600    1.4330 f         1 ZRO     -0.249633
     22 CAK        -3.4080   -1.3250   -0.2850 ca        1 ZRO     -0.092500
     23 CAI        -2.0470   -1.5550   -0.4760 ca        1 ZRO     -0.136000
     24 H2          5.2720   -2.3850    0.1570 hn        1 ZRO      0.331500
     25 H4          0.9060   -1.3280    1.2940 hc        1 ZRO      0.058700
     26 H5          0.7640    0.4760    1.0510 hc        1 ZRO      0.058700
     27 H6          0.6760    0.0360   -1.4690 hc        1 ZRO      0.065700
     28 H7          0.5020   -1.7410   -1.0910 hc        1 ZRO      0.065700
     29 H8         -0.8900    1.6590   -0.3130 ha        1 ZRO      0.169500
     30 H9         -3.3500    2.0800    0.0290 ha        1 ZRO      0.137500
     31 H10        -4.1190   -2.1650   -0.2810 ha        1 ZRO      0.137500
     32 H11        -1.6800   -2.5830   -0.6160 ha        1 ZRO      0.169500
     33 H12         5.0070    1.6850   -0.3630 hn        1 ZRO      0.367500
@<TRIPOS>BOND
     1    1    2 1   
     2    2    3 1   
     3    2    4 1   
     4    4    5 1   
     5    4   11 2   
     6    5    6 1   
     7    5   33 1   
     8    6    7 2   
     9    6    8 1   
    10    8    9 1   
    11    8   24 1   
    12    9   10 2   
    13    9   11 1   
    14   11   12 1   
    15   12   13 1   
    16   12   25 1   
    17   12   26 1   
    18   13   14 1   
    19   13   27 1   
    20   13   28 1   
    21   14   15 ar  
    22   14   23 ar  
    23   15   16 ar  
    24   15   29 1   
    25   16   17 ar  
    26   16   30 1   
    27   17   18 1   
    28   17   22 ar  
    29   18   19 1   
    30   18   20 1   
    31   18   21 1   
    32   22   23 ar  
    33   22   31 1   
    34   23   32 1   
@<TRIPOS>SUBSTRUCTURE
     1 ZRO         1 TEMP              0 ****  ****    0 ROOT
