@<TRIPOS>MOLECULE
ZS0
   28    30     1     0     0
SMALL
bcc


@<TRIPOS>ATOM
      1 C1         -0.0680    0.0350   -0.0400 cc        1 ZS0     -0.334200
      2 C2          1.3650   -0.0180   -0.0480 cd        1 ZS0      0.470200
      3 N3          1.8380   -0.1210    1.2710 nd        1 ZS0     -0.680000
      4 C4          0.7140   -0.1290    2.0380 cc        1 ZS0      0.451400
      5 N5         -0.4590   -0.0370    1.2940 na        1 ZS0     -0.264900
      6 N6         -0.0400    0.1830   -2.4180 ns        1 ZS0     -0.538500
      7 C7          1.3590    0.1260   -2.4500 c         1 ZS0      0.564400
      8 N8          2.0740    0.0530   -1.2450 n         1 ZS0     -0.358300
      9 C9         -0.8410    0.1410   -1.2620 c         1 ZS0      0.747100
     10 O10        -2.0790    0.1930   -1.3440 o         1 ZS0     -0.608500
     11 S11         2.0950    0.1790   -3.8890 s         1 ZS0     -0.520400
     12 C12         3.5260   -0.0650   -1.2450 c3        1 ZS0      0.140300
     13 C13         4.0350   -1.4750   -1.2200 ca        1 ZS0     -0.142300
     14 C14         4.1440   -2.1980   -2.4140 ca        1 ZS0     -0.080500
     15 C15         4.6540   -3.4910   -2.4120 ca        1 ZS0     -0.175500
     16 C16         5.0610   -4.0720   -1.1950 ca        1 ZS0      0.137900
     17 C17         4.9490   -3.3510    0.0090 ca        1 ZS0     -0.175500
     18 C18         4.4340   -2.0580   -0.0130 ca        1 ZS0     -0.080500
     19 F19         5.5610   -5.3300   -1.1820 f         1 ZS0     -0.139900
     20 H5         -1.3930   -0.0250    1.6170 hn        1 ZS0      0.330700
     21 H4          0.7180   -0.2000    3.1340 h5        1 ZS0      0.076100
     22 H6         -0.4930    0.2550   -3.3110 hn        1 ZS0      0.370500
     23 H121        3.9080    0.4500   -2.1800 h1        1 ZS0      0.095700
     24 H122        3.9070    0.4950   -0.3430 h1        1 ZS0      0.095700
     25 H14         3.8140   -1.7300   -3.3610 ha        1 ZS0      0.159000
     26 H18         4.3400   -1.4940    0.9280 ha        1 ZS0      0.159000
     27 H15         4.7440   -4.0630   -3.3460 ha        1 ZS0      0.150500
     28 H17         5.2680   -3.8140    0.9530 ha        1 ZS0      0.150500
@<TRIPOS>BOND
     1    1    2 2   
     2    1    5 1   
     3    1    9 1   
     4    2    3 1   
     5    2    8 1   
     6    3    4 2   
     7    4    5 1   
     8    4   21 1   
     9    5   20 1   
    10    6    7 1   
    11    6    9 1   
    12    6   22 1   
    13    7    8 1   
    14    7   11 2   
    15    8   12 1   
    16    9   10 2   
    17   12   13 1   
    18   12   23 1   
    19   12   24 1   
    20   13   14 ar  
    21   13   18 ar  
    22   14   15 ar  
    23   14   25 1   
    24   15   16 ar  
    25   15   27 1   
    26   16   17 ar  
    27   16   19 1   
    28   17   18 ar  
    29   17   28 1   
    30   18   26 1   
@<TRIPOS>SUBSTRUCTURE
     1 ZS0         1 TEMP              0 ****  ****    0 ROOT
