@<TRIPOS>MOLECULE
ZS0
   28    30     1     0     0
SMALL
bcc


@<TRIPOS>ATOM
      1 C1          2.6530    0.7890   -0.3430 cc        1 ZS0     -0.334200
      2 C2          1.4850    0.8210    0.4870 cd        1 ZS0      0.470200
      3 N3          1.2310    2.1430    0.8890 nd        1 ZS0     -0.680000
      4 C4          2.2240    2.8730    0.3120 cc        1 ZS0      0.451400
      5 N5          3.1050    2.1030   -0.4400 na        1 ZS0     -0.264900
      6 N6          2.3900   -1.5690   -0.5610 n         1 ZS0     -0.538500
      7 C7          1.2420   -1.5600    0.2420 c         1 ZS0      0.564400
      8 N8          0.7990   -0.3510    0.7980 n         1 ZS0     -0.358300
      9 C9          3.1600   -0.4450   -0.9110 c         1 ZS0      0.747100
     10 O10         4.1610   -0.5600   -1.6370 o         1 ZS0     -0.608500
     11 S11         0.4910   -2.9650    0.5190 s         1 ZS0     -0.520400
     12 C12        -0.4230   -0.2980    1.5910 c3        1 ZS0      0.140300
     13 C13        -1.6590    0.0210    0.8050 ca        1 ZS0     -0.142300
     14 C14        -2.3400   -1.0010    0.1330 ca        1 ZS0     -0.080500
     15 C15        -3.5120   -0.7290   -0.5640 ca        1 ZS0     -0.175500
     16 C16        -4.0100    0.5880   -0.5890 ca        1 ZS0      0.137900
     17 C17        -3.3280    1.6190    0.0820 ca        1 ZS0     -0.175500
     18 C18        -2.1550    1.3280    0.7720 ca        1 ZS0     -0.080500
     19 F19        -5.1520    0.8630   -1.2640 f         1 ZS0     -0.139900
     20 H5          3.8970    2.3970   -0.9520 hn        1 ZS0      0.330700
     21 H4          2.3300    3.9610    0.4200 h5        1 ZS0      0.076100
     22 H6          2.6680   -2.4670   -0.9130 hn        1 ZS0      0.370500
     23 H121       -0.5490   -1.3100    2.0860 h1        1 ZS0      0.095700
     24 H122       -0.2670    0.4810    2.3920 h1        1 ZS0      0.095700
     25 H14        -1.9320   -2.0290    0.1580 ha        1 ZS0      0.159000
     26 H18        -1.6150    2.1350    1.2930 ha        1 ZS0      0.159000
     27 H15        -4.0520   -1.5270   -1.0920 ha        1 ZS0      0.150500
     28 H17        -3.7250    2.6440    0.0540 ha        1 ZS0      0.150500
@<TRIPOS>BOND
     1    1    2 2   
     2    1    5 1   
     3    1    9 1   
     4    2    3 1   
     5    2    8 1   
     6    3    4 2   
     7    4    5 1   
     8    4   21 1   
     9    5   20 1   
    10    6    7 1   
    11    6    9 1   
    12    6   22 1   
    13    7    8 1   
    14    7   11 2   
    15    8   12 1   
    16    9   10 2   
    17   12   13 1   
    18   12   23 1   
    19   12   24 1   
    20   13   14 ar  
    21   13   18 ar  
    22   14   15 ar  
    23   14   25 1   
    24   15   16 ar  
    25   15   27 1   
    26   16   17 ar  
    27   16   19 1   
    28   17   18 ar  
    29   17   28 1   
    30   18   26 1   
@<TRIPOS>SUBSTRUCTURE
     1 ZS0         1 TEMP              0 ****  ****    0 ROOT
