@<TRIPOS>MOLECULE
ZS0
   28    30     1     0     0
SMALL
bcc


@<TRIPOS>ATOM
      1 C1         -0.0690    0.0300   -0.0340 cc        1 ZS0     -0.334200
      2 C2          1.3640   -0.0210   -0.0450 cd        1 ZS0      0.470200
      3 N3          1.8390   -0.1250    1.2730 nd        1 ZS0     -0.680000
      4 C4          0.7170   -0.1350    2.0420 cc        1 ZS0      0.451400
      5 N5         -0.4570   -0.0450    1.3010 na        1 ZS0     -0.264900
      6 N6         -0.0450    0.1800   -2.4130 n         1 ZS0     -0.538500
      7 C7          1.3540    0.1260   -2.4470 c         1 ZS0      0.564400
      8 N8          2.0710    0.0530   -1.2430 n         1 ZS0     -0.358300
      9 C9         -0.8440    0.1360   -1.2550 c         1 ZS0      0.747100
     10 O10        -2.0820    0.1860   -1.3350 o         1 ZS0     -0.608500
     11 S11         2.0880    0.1820   -3.8860 s         1 ZS0     -0.520400
     12 C12         3.5240   -0.0630   -1.2460 c3        1 ZS0      0.140300
     13 C13         4.0350   -1.4720   -1.2230 ca        1 ZS0     -0.142300
     14 C14         4.1430   -2.1920   -2.4180 ca        1 ZS0     -0.080500
     15 C15         4.6560   -3.4850   -2.4190 ca        1 ZS0     -0.175500
     16 C16         5.0650   -4.0660   -1.2040 ca        1 ZS0      0.137900
     17 C17         4.9550   -3.3470    0.0010 ca        1 ZS0     -0.175500
     18 C18         4.4370   -2.0560   -0.0180 ca        1 ZS0     -0.080500
     19 F19         5.5680   -5.3240   -1.1930 f         1 ZS0     -0.139900
     20 H5         -1.3910   -0.0350    1.6240 hn        1 ZS0      0.330700
     21 H4          0.7230   -0.2080    3.1380 h5        1 ZS0      0.076100
     22 H6         -0.4990    0.2530   -3.3040 hn        1 ZS0      0.370500
     23 H121        3.9030    0.4540   -2.1810 h1        1 ZS0      0.095700
     24 H122        3.9050    0.4970   -0.3430 h1        1 ZS0      0.095700
     25 H14         3.8120   -1.7230   -3.3640 ha        1 ZS0      0.159000
     26 H18         4.3430   -1.4930    0.9250 ha        1 ZS0      0.159000
     27 H15         4.7450   -4.0550   -3.3540 ha        1 ZS0      0.150500
     28 H17         5.2760   -3.8120    0.9440 ha        1 ZS0      0.150500
@<TRIPOS>BOND
     1    1    2 2   
     2    1    5 1   
     3    1    9 1   
     4    2    3 1   
     5    2    8 1   
     6    3    4 2   
     7    4    5 1   
     8    4   21 1   
     9    5   20 1   
    10    6    7 1   
    11    6    9 1   
    12    6   22 1   
    13    7    8 1   
    14    7   11 2   
    15    8   12 1   
    16    9   10 2   
    17   12   13 1   
    18   12   23 1   
    19   12   24 1   
    20   13   14 ar  
    21   13   18 ar  
    22   14   15 ar  
    23   14   25 1   
    24   15   16 ar  
    25   15   27 1   
    26   16   17 ar  
    27   16   19 1   
    28   17   18 ar  
    29   17   28 1   
    30   18   26 1   
@<TRIPOS>SUBSTRUCTURE
     1 ZS0         1 TEMP              0 ****  ****    0 ROOT
