@<TRIPOS>MOLECULE
ZS4
   51    55     1     0     0
SMALL
bcc


@<TRIPOS>ATOM
      1 CAQ         0.0840   -0.3610    0.5060 c3        1 ZS4      0.166550
      2 CAR         1.5930   -0.2260    0.2620 c3        1 ZS4      0.117400
      3 OAW         2.2430    0.4710    1.3150 os        1 ZS4     -0.407100
      4 CBB         1.6970    1.7700    1.4970 c3        1 ZS4      0.117400
      5 CBA         0.1930    1.7250    1.7980 c3        1 ZS4      0.166550
      6 NAV        -0.5480    0.9060    0.8500 nh        1 ZS4     -0.723800
      7 CAU        -1.9570    0.9380    0.9170 ca        1 ZS4      0.938900
      8 NAP        -2.6590   -0.0620    0.2500 nb        1 ZS4     -0.830000
      9 NAT        -2.5560    1.9910    1.5870 nb        1 ZS4     -0.834000
     10 CAS        -3.9360    2.0590    1.5000 ca        1 ZS4      0.938900
     11 NAY        -4.5810    3.1940    2.0380 nh        1 ZS4     -0.723800
     12 CAZ        -6.0110    3.1000    2.2950 c3        1 ZS4      0.166550
     13 CAI        -6.6360    4.4460    2.6870 c3        1 ZS4      0.117400
     14 OBD        -5.9070    5.0920    3.7210 os        1 ZS4     -0.407100
     15 CBC        -4.5550    5.3150    3.3440 c3        1 ZS4      0.117400
     16 CAX        -3.8360    4.0070    2.9870 c3        1 ZS4      0.166550
     17 NAN        -4.7220    1.1110    0.8530 nb        1 ZS4     -0.830000
     18 CAO        -4.0260    0.0850    0.2560 ca        1 ZS4      0.832500
     19 NAJ        -4.7850   -0.9120   -0.4080 na        1 ZS4     -0.197100
     20 CAK        -4.3720   -1.6630   -1.5320 ca        1 ZS4     -0.035200
     21 CAL        -3.1810   -1.7310   -2.2630 ca        1 ZS4     -0.111000
     22 CAM        -3.1430   -2.6010   -3.3470 ca        1 ZS4     -0.115000
     23 CAH        -4.2460   -3.3890   -3.7100 ca        1 ZS4     -0.147000
     24 CAG        -5.4390   -3.3370   -3.0020 ca        1 ZS4     -0.065000
     25 CAF        -5.5170   -2.4710   -1.9050 ca        1 ZS4      0.060400
     26 NAE        -6.5860   -2.2160   -1.0180 nc        1 ZS4     -0.514100
     27 CAD        -6.1390   -1.2970   -0.1540 cd        1 ZS4      0.372800
     28 CAC        -6.9680   -0.7220    1.0010 c3        1 ZS4      0.417600
     29 FA         -8.1750   -1.3610    1.1620 f         1 ZS4     -0.226300
     30 FB         -6.3650   -0.9300    2.2200 f         1 ZS4     -0.226300
     31 HAQ1       -0.3760   -0.7610   -0.4420 h1        1 ZS4      0.065700
     32 HAQ2       -0.0860   -1.1140    1.3280 h1        1 ZS4      0.065700
     33 HAR1        1.7920    0.2920   -0.7130 h1        1 ZS4      0.060825
     34 HAR2        2.0650   -1.2440    0.2620 h1        1 ZS4      0.060825
     35 HBB1        1.9000    2.3960    0.5880 h1        1 ZS4      0.060825
     36 HBB2        2.2450    2.1870    2.3830 h1        1 ZS4      0.060825
     37 HBA1       -0.1910    2.7830    1.7550 h1        1 ZS4      0.065700
     38 HBA2        0.0440    1.3350    2.8460 h1        1 ZS4      0.065700
     39 HAZ1       -6.5350    2.7470    1.3620 h1        1 ZS4      0.065700
     40 HAZ2       -6.2080    2.3530    3.1180 h1        1 ZS4      0.065700
     41 HAX1       -2.8400    4.2830    2.5380 h1        1 ZS4      0.065700
     42 HAX2       -3.6500    3.4240    3.9340 h1        1 ZS4      0.065700
     43 HAI1       -6.7080    5.1230    1.7950 h1        1 ZS4      0.060825
     44 HAI2       -7.6550    4.2730    3.1240 h1        1 ZS4      0.060825
     45 HBC1       -4.5160    6.0360    2.4860 h1        1 ZS4      0.060825
     46 HBC2       -4.0790    5.7690    4.2530 h1        1 ZS4      0.060825
     47 HAL        -2.3000   -1.1290   -2.0020 ha        1 ZS4      0.158000
     48 HAM        -2.2170   -2.6740   -3.9380 ha        1 ZS4      0.135000
     49 HAH        -4.1590   -4.0630   -4.5760 ha        1 ZS4      0.137000
     50 HAG        -6.3040   -3.9540   -3.2870 ha        1 ZS4      0.153000
     51 HAC        -7.1430    0.3820    0.8150 h2        1 ZS4      0.101700
@<TRIPOS>BOND
     1    1    2 1   
     2    1    6 1   
     3    1   31 1   
     4    1   32 1   
     5    2    3 1   
     6    2   33 1   
     7    2   34 1   
     8    3    4 1   
     9    4    5 1   
    10    4   35 1   
    11    4   36 1   
    12    5    6 1   
    13    5   37 1   
    14    5   38 1   
    15    6    7 1   
    16    7    8 ar  
    17    7    9 ar  
    18    8   18 ar  
    19    9   10 ar  
    20   10   11 1   
    21   10   17 ar  
    22   11   12 1   
    23   11   16 1   
    24   12   13 1   
    25   12   39 1   
    26   12   40 1   
    27   13   14 1   
    28   13   43 1   
    29   13   44 1   
    30   14   15 1   
    31   15   16 1   
    32   15   45 1   
    33   15   46 1   
    34   16   41 1   
    35   16   42 1   
    36   17   18 ar  
    37   18   19 1   
    38   19   20 1   
    39   19   27 1   
    40   20   21 ar  
    41   20   25 ar  
    42   21   22 ar  
    43   21   47 1   
    44   22   23 ar  
    45   22   48 1   
    46   23   24 ar  
    47   23   49 1   
    48   24   25 ar  
    49   24   50 1   
    50   25   26 1   
    51   26   27 2   
    52   27   28 1   
    53   28   29 1   
    54   28   30 1   
    55   28   51 1   
@<TRIPOS>SUBSTRUCTURE
     1 ZS4         1 TEMP              0 ****  ****    0 ROOT
