@<TRIPOS>MOLECULE
ZS4
   51    55     1     0     0
SMALL
bcc


@<TRIPOS>ATOM
      1 CAQ        -0.6280   -3.7270    0.5090 c3        1 ZS4      0.166550
      2 CAR        -0.5840   -5.2460    0.2970 c3        1 ZS4      0.117400
      3 OAW         0.6170   -5.8190    0.7960 os        1 ZS4     -0.407100
      4 CBB         1.7640   -5.2430    0.1850 c3        1 ZS4      0.117400
      5 CBA         1.8250   -3.7240    0.3940 c3        1 ZS4      0.166550
      6 NAV         0.5790   -3.0570    0.0460 nh        1 ZS4     -0.723800
      7 CAU         0.5760   -1.6450    0.0220 ca        1 ZS4      0.938900
      8 NAP        -0.6580   -1.0010    0.0110 nb        1 ZS4     -0.830000
      9 NAT         1.7940   -0.9900   -0.0500 nb        1 ZS4     -0.834000
     10 CAS         1.7340    0.3830   -0.2190 ca        1 ZS4      0.938900
     11 NAY         2.9420    1.0770   -0.4490 nh        1 ZS4     -0.723800
     12 CAZ         2.9420    2.5190   -0.2450 c3        1 ZS4      0.166550
     13 CAI         4.2410    3.1880   -0.7140 c3        1 ZS4      0.117400
     14 OBD         5.3930    2.5340   -0.1990 os        1 ZS4     -0.407100
     15 CBC         5.4280    1.1650   -0.5760 c3        1 ZS4      0.117400
     16 CAX         4.1840    0.4050   -0.0980 c3        1 ZS4      0.166550
     17 NAN         0.5500    1.1130   -0.2470 nb        1 ZS4     -0.830000
     18 CAO        -0.5990    0.3650   -0.1260 ca        1 ZS4      0.832500
     19 NAJ        -1.8310    1.0660   -0.1390 na        1 ZS4     -0.197100
     20 CAK        -3.0660    0.5720   -0.6190 ca        1 ZS4     -0.035200
     21 CAL        -3.4780   -0.6630   -1.1300 ca        1 ZS4     -0.111000
     22 CAM        -4.8060   -0.7820   -1.5260 ca        1 ZS4     -0.115000
     23 CAH        -5.7130    0.2840   -1.4240 ca        1 ZS4     -0.147000
     24 CAG        -5.3270    1.5200   -0.9240 ca        1 ZS4     -0.065000
     25 CAF        -3.9970    1.6800   -0.5170 ca        1 ZS4      0.060400
     26 NAE        -3.3360    2.8060    0.0220 nc        1 ZS4     -0.514100
     27 CAD        -2.0700    2.4280    0.2300 cd        1 ZS4      0.372800
     28 CAC        -0.9830    3.3360    0.8180 c3        1 ZS4      0.417600
     29 FA         -1.4750    4.5400    1.2610 f         1 ZS4     -0.226300
     30 FB         -0.4350    2.8080    1.9640 f         1 ZS4     -0.226300
     31 HAQ1       -1.5160   -3.3330   -0.0630 h1        1 ZS4      0.065700
     32 HAQ2       -0.7920   -3.5170    1.6050 h1        1 ZS4      0.065700
     33 HAR1       -1.3990   -5.7320    0.8940 h1        1 ZS4      0.060825
     34 HAR2       -0.6980   -5.4980   -0.7910 h1        1 ZS4      0.060825
     35 HBB1        2.6340   -5.7290    0.7010 h1        1 ZS4      0.060825
     36 HBB2        1.7750   -5.4930   -0.9090 h1        1 ZS4      0.060825
     37 HBA1        2.0890   -3.5160    1.4700 h1        1 ZS4      0.065700
     38 HBA2        2.6530   -3.3280   -0.2590 h1        1 ZS4      0.065700
     39 HAZ1        2.0990    2.9780   -0.8350 h1        1 ZS4      0.065700
     40 HAZ2        2.7830    2.7560    0.8460 h1        1 ZS4      0.065700
     41 HAX1        4.2490    0.2700    1.0200 h1        1 ZS4      0.065700
     42 HAX2        4.2040   -0.6130   -0.5800 h1        1 ZS4      0.065700
     43 HAI1        4.2910    3.2130   -1.8350 h1        1 ZS4      0.060825
     44 HAI2        4.2980    4.2290   -0.3000 h1        1 ZS4      0.060825
     45 HBC1        5.5390    1.0820   -1.6900 h1        1 ZS4      0.060825
     46 HBC2        6.3390    0.7530   -0.0660 h1        1 ZS4      0.060825
     47 HAL        -2.7930   -1.5170   -1.2200 ha        1 ZS4      0.158000
     48 HAM        -5.1570   -1.7440   -1.9310 ha        1 ZS4      0.135000
     49 HAH        -6.7530    0.1340   -1.7500 ha        1 ZS4      0.137000
     50 HAG        -6.0370    2.3560   -0.8450 ha        1 ZS4      0.153000
     51 HAC        -0.1870    3.5150    0.0310 h2        1 ZS4      0.101700
@<TRIPOS>BOND
     1    1    2 1   
     2    1    6 1   
     3    1   31 1   
     4    1   32 1   
     5    2    3 1   
     6    2   33 1   
     7    2   34 1   
     8    3    4 1   
     9    4    5 1   
    10    4   35 1   
    11    4   36 1   
    12    5    6 1   
    13    5   37 1   
    14    5   38 1   
    15    6    7 1   
    16    7    8 ar  
    17    7    9 ar  
    18    8   18 ar  
    19    9   10 ar  
    20   10   11 1   
    21   10   17 ar  
    22   11   12 1   
    23   11   16 1   
    24   12   13 1   
    25   12   39 1   
    26   12   40 1   
    27   13   14 1   
    28   13   43 1   
    29   13   44 1   
    30   14   15 1   
    31   15   16 1   
    32   15   45 1   
    33   15   46 1   
    34   16   41 1   
    35   16   42 1   
    36   17   18 ar  
    37   18   19 1   
    38   19   20 1   
    39   19   27 1   
    40   20   21 ar  
    41   20   25 ar  
    42   21   22 ar  
    43   21   47 1   
    44   22   23 ar  
    45   22   48 1   
    46   23   24 ar  
    47   23   49 1   
    48   24   25 ar  
    49   24   50 1   
    50   25   26 1   
    51   26   27 2   
    52   27   28 1   
    53   28   29 1   
    54   28   30 1   
    55   28   51 1   
@<TRIPOS>SUBSTRUCTURE
     1 ZS4         1 TEMP              0 ****  ****    0 ROOT
