@<TRIPOS>MOLECULE
ZS4
   51    55     1     0     0
SMALL
bcc


@<TRIPOS>ATOM
      1 CAQ         0.0830   -0.3630    0.5050 c3        1 ZS4      0.166550
      2 CAR         1.5920   -0.2280    0.2660 c3        1 ZS4      0.117400
      3 OAW         2.2410    0.4610    1.3260 os        1 ZS4     -0.407100
      4 CBB         1.6960    1.7590    1.5150 c3        1 ZS4      0.117400
      5 CBA         0.1910    1.7130    1.8130 c3        1 ZS4      0.166550
      6 NAV        -0.5480    0.9020    0.8570 nh        1 ZS4     -0.723300
      7 CAU        -1.9580    0.9350    0.9210 ca        1 ZS4      0.938900
      8 NAP        -2.6590   -0.0600    0.2450 nb        1 ZS4     -0.830000
      9 NAT        -2.5570    1.9840    1.5970 nb        1 ZS4     -0.834000
     10 CAS        -3.9370    2.0540    1.5070 ca        1 ZS4      0.938900
     11 NAY        -4.5820    3.1850    2.0510 nh        1 ZS4     -0.723300
     12 CAZ        -6.0130    3.0920    2.3050 c3        1 ZS4      0.166550
     13 CAI        -6.6380    4.4350    2.7040 c3        1 ZS4      0.117400
     14 OBD        -5.9100    5.0740    3.7440 os        1 ZS4     -0.407100
     15 CBC        -4.5570    5.2970    3.3720 c3        1 ZS4      0.117400
     16 CAX        -3.8380    3.9920    3.0080 c3        1 ZS4      0.166550
     17 NAN        -4.7220    1.1110    0.8520 nb        1 ZS4     -0.830000
     18 CAO        -4.0260    0.0880    0.2490 ca        1 ZS4      0.832500
     19 NAJ        -4.7840   -0.9030   -0.4230 na        1 ZS4     -0.197100
     20 CAK        -4.3690   -1.6470   -1.5520 ca        1 ZS4     -0.035200
     21 CAL        -3.1770   -1.7110   -2.2800 ca        1 ZS4     -0.111000
     22 CAM        -3.1370   -2.5740   -3.3690 ca        1 ZS4     -0.115000
     23 CAH        -4.2390   -3.3590   -3.7400 ca        1 ZS4     -0.147000
     24 CAG        -5.4340   -3.3100   -3.0350 ca        1 ZS4     -0.065000
     25 CAF        -5.5140   -2.4510   -1.9330 ca        1 ZS4      0.060400
     26 NAE        -6.5850   -2.2010   -1.0470 nc        1 ZS4     -0.514100
     27 CAD        -6.1400   -1.2890   -0.1750 cd        1 ZS4      0.372800
     28 CAC        -6.9700   -0.7210    0.9810 c3        1 ZS4      0.417600
     29 FA         -8.1780   -1.3590    1.1350 f         1 ZS4     -0.226300
     30 FB         -6.3710   -0.9370    2.2010 f         1 ZS4     -0.226300
     31 HAQ1       -0.3750   -0.7560   -0.4460 h1        1 ZS4      0.065700
     32 HAQ2       -0.0900   -1.1210    1.3220 h1        1 ZS4      0.065700
     33 HAR1        1.7940    0.2970   -0.7050 h1        1 ZS4      0.060825
     34 HAR2        2.0630   -1.2460    0.2600 h1        1 ZS4      0.060825
     35 HBB1        1.9020    2.3910    0.6110 h1        1 ZS4      0.060825
     36 HBB2        2.2420    2.1680    2.4050 h1        1 ZS4      0.060825
     37 HBA1        0.0390    1.3160    2.8570 h1        1 ZS4      0.065700
     38 HBA2       -0.1920    2.7720    1.7760 h1        1 ZS4      0.065700
     39 HAZ1       -6.2130    2.3390    3.1210 h1        1 ZS4      0.065700
     40 HAZ2       -6.5350    2.7460    1.3680 h1        1 ZS4      0.065700
     41 HAX1       -2.8410    4.2690    2.5630 h1        1 ZS4      0.065700
     42 HAX2       -3.6550    3.4020    3.9510 h1        1 ZS4      0.065700
     43 HAI1       -6.7070    5.1180    1.8170 h1        1 ZS4      0.060825
     44 HAI2       -7.6570    4.2600    3.1380 h1        1 ZS4      0.060825
     45 HBC1       -4.0830    5.7450    4.2850 h1        1 ZS4      0.060825
     46 HBC2       -4.5150    6.0250    2.5190 h1        1 ZS4      0.060825
     47 HAL        -2.2960   -1.1110   -2.0140 ha        1 ZS4      0.158000
     48 HAM        -2.2100   -2.6440   -3.9590 ha        1 ZS4      0.135000
     49 HAH        -4.1510   -4.0270   -4.6100 ha        1 ZS4      0.137000
     50 HAG        -6.2990   -3.9250   -3.3260 ha        1 ZS4      0.153000
     51 HAC        -7.1440    0.3850    0.8020 h2        1 ZS4      0.101700
@<TRIPOS>BOND
     1    1    2 1   
     2    1    6 1   
     3    1   31 1   
     4    1   32 1   
     5    2    3 1   
     6    2   33 1   
     7    2   34 1   
     8    3    4 1   
     9    4    5 1   
    10    4   35 1   
    11    4   36 1   
    12    5    6 1   
    13    5   37 1   
    14    5   38 1   
    15    6    7 1   
    16    7    8 ar  
    17    7    9 ar  
    18    8   18 ar  
    19    9   10 ar  
    20   10   11 1   
    21   10   17 ar  
    22   11   12 1   
    23   11   16 1   
    24   12   13 1   
    25   12   39 1   
    26   12   40 1   
    27   13   14 1   
    28   13   43 1   
    29   13   44 1   
    30   14   15 1   
    31   15   16 1   
    32   15   45 1   
    33   15   46 1   
    34   16   41 1   
    35   16   42 1   
    36   17   18 ar  
    37   18   19 1   
    38   19   20 1   
    39   19   27 1   
    40   20   21 ar  
    41   20   25 ar  
    42   21   22 ar  
    43   21   47 1   
    44   22   23 ar  
    45   22   48 1   
    46   23   24 ar  
    47   23   49 1   
    48   24   25 ar  
    49   24   50 1   
    50   25   26 1   
    51   26   27 2   
    52   27   28 1   
    53   28   29 1   
    54   28   30 1   
    55   28   51 1   
@<TRIPOS>SUBSTRUCTURE
     1 ZS4         1 TEMP              0 ****  ****    0 ROOT
