@<TRIPOS>MOLECULE
ZSC
   27    27     1     0     0
SMALL
bcc


@<TRIPOS>ATOM
      1 CAG        -1.7640    2.2290   -1.6870 c3        1 ZSC      0.228100
      2 CAH        -2.8060   -0.8690    0.5260 c3        1 ZSC     -0.350300
      3 OAJ         2.6760    2.7170    1.3880 o         1 ZSC     -0.850550
      4 OAK         0.3230   -3.3160   -1.7640 o         1 ZSC     -0.850550
      5 OAP        -4.1940    0.8260   -0.7470 o         1 ZSC     -0.697300
      6 OAQ        -3.2600    1.4880    1.3050 o         1 ZSC     -0.697300
      7 CBH         2.0620   -0.5750   -0.0710 ca        1 ZSC     -0.057000
      8 CBI         0.5480    1.2840    0.2480 ca        1 ZSC     -0.117500
      9 CBJ        -0.1600   -0.6690   -1.0140 ca        1 ZSC     -0.117500
     10 O2          3.8580    0.8570    1.6790 o         1 ZSC     -0.850550
     11 O1          2.5110   -3.0910   -1.4390 o         1 ZSC     -0.850550
     12 CCF         1.8000    0.6970    0.4490 ca        1 ZSC     -0.150100
     13 CCG         1.0850   -1.2630   -0.8000 ca        1 ZSC     -0.150100
     14 CCI        -0.4490    0.6010   -0.4740 ca        1 ZSC      0.014600
     15 NCS        -1.7260    1.1980   -0.6940 nh        1 ZSC     -0.691900
     16 SCU        -3.0510    0.7590    0.1080 s6        1 ZSC      1.456900
     17 HAG        -1.4090    1.8340   -2.6770 h1        1 ZSC      0.035033
     18 HAGA       -2.8170    2.6050   -1.8040 h1        1 ZSC      0.035033
     19 HAGB       -1.0950    3.0810   -1.3870 h1        1 ZSC      0.035033
     20 HAH        -2.9170   -1.5620   -0.3440 h1        1 ZSC      0.121700
     21 HAHA       -1.7870   -1.0850    0.9440 h1        1 ZSC      0.121700
     22 HAHB       -3.5430   -1.1880    1.3010 h1        1 ZSC      0.121700
     23 HBH         3.0490   -1.0400    0.0930 ha        1 ZSC      0.167000
     24 HBI         0.3740    2.2910    0.6590 ha        1 ZSC      0.140500
     25 HBJ        -0.9040   -1.2310   -1.6020 ha        1 ZSC      0.140500
     26 CBY         1.3290   -2.6480   -1.3700 c         1 ZSC      0.907200
     27 CBX         2.8510    1.4720    1.2230 c         1 ZSC      0.907200
@<TRIPOS>BOND
     1    1   15 1   
     2    1   17 1   
     3    1   18 1   
     4    1   19 1   
     5    2   16 1   
     6    2   20 1   
     7    2   21 1   
     8    2   22 1   
     9    3   27 1   
    10    4   26 1   
    11    5   16 2   
    12    6   16 2   
    13    7   12 ar  
    14    7   13 ar  
    15    7   23 1   
    16    8   12 ar  
    17    8   14 ar  
    18    8   24 1   
    19    9   13 ar  
    20    9   14 ar  
    21    9   25 1   
    22   10   27 1   
    23   11   26 1   
    24   12   27 1   
    25   13   26 1   
    26   14   15 1   
    27   15   16 1   
@<TRIPOS>SUBSTRUCTURE
     1 ZSC         1 TEMP              0 ****  ****    0 ROOT
