@<TRIPOS>MOLECULE
ZSC
   27    27     1     0     0
SMALL
bcc


@<TRIPOS>ATOM
      1 CAG         0.5530    0.8760   -2.1280 c3        1 ZSC     -0.026000
      2 CAH         1.2820   -1.8440    1.8820 c3        1 ZSC     -0.836000
      3 OAJ         0.1980    0.0970   -3.2880 os        1 ZSC     -0.292000
      4 OAK         5.4660    1.5640   -4.9690 o         1 ZSC     -0.564500
      5 OAP         1.3260    0.3600    2.9850 o         1 ZSC     -1.023000
      6 OAQ         3.4320   -0.4640    2.4570 o         1 ZSC     -1.023000
      7 CBH         3.7660   -0.3080   -3.4340 c1        1 ZSC     -0.015000
      8 CBI         2.0610    0.6640   -1.8430 c3        1 ZSC     -0.004000
      9 CBJ         2.7500   -1.1890   -0.1420 c1        1 ZSC     -0.664000
     10 O2          1.1200   -1.2260   -4.7860 o         1 ZSC     -0.358000
     11 O1          6.7830   -0.1990   -5.3340 o         1 ZSC     -0.564500
     12 CCF         2.5310   -0.1080   -3.0490 c2        1 ZSC     -0.172000
     13 CCG         4.9830   -0.5120   -3.8310 c2        1 ZSC     -0.154000
     14 CCI         2.2590   -0.0260   -0.5350 c2        1 ZSC     -0.074000
     15 NCS         1.8240    0.6390    0.6550 n7        1 ZSC     -0.825000
     16 SCU         2.1110   -0.3180    1.9480 s6        1 ZSC      2.821000
     17 HAG         1.2690    1.4460    0.6100 hn        1 ZSC      0.200000
     18 HAGA        0.3220    1.9420   -2.3740 h1        1 ZSC      0.077000
     19 HAGB       -0.1040    0.5160   -1.2990 h1        1 ZSC      0.077000
     20 HAH         0.6150   -1.9270    0.9960 h1        1 ZSC      0.109000
     21 HAHA        0.6620   -2.0020    2.7950 h1        1 ZSC      0.109000
     22 HAHB        2.0250   -2.6710    1.8090 h1        1 ZSC      0.109000
     23 HBH         5.5300   -1.4120   -3.4990 ha        1 ZSC      0.142000
     24 HBI         2.5790    1.6620   -1.8210 hc        1 ZSC      0.101000
     25 HBJ         3.2260   -2.0090   -0.6390 ha        1 ZSC      0.118000
     26 CBY         5.7930    0.3620   -4.7810 c2        1 ZSC      0.368000
     27 CBX         1.3380   -0.5060   -3.8120 c2        1 ZSC      0.364000
@<TRIPOS>BOND
     1    1    3 1   
     2    1    8 1   
     3    1   18 1   
     4    1   19 1   
     5    2   16 1   
     6    2   20 1   
     7    2   21 1   
     8    2   22 1   
     9    3   27 1   
    10    4   26 1   
    11    5   16 1   
    12    6   16 1   
    13    7   12 1   
    14    7   13 1   
    15    8   12 1   
    16    8   14 1   
    17    8   24 1   
    18    9   14 1   
    19    9   25 1   
    20   10   27 1   
    21   11   26 1   
    22   12   27 1   
    23   13   23 1   
    24   13   26 1   
    25   14   15 1   
    26   15   16 1   
    27   15   17 1   
@<TRIPOS>SUBSTRUCTURE
     1 ZSC         1 TEMP              0 ****  ****    0 ROOT
