@<TRIPOS>MOLECULE
ZSC
   27    26     1     0     0
SMALL
bcc


@<TRIPOS>ATOM
      1 CAG        -0.3330    0.3460   -3.4990 c3        1 ZSC     -0.072000
      2 CAH         3.1270   -1.3600    2.3060 c3        1 ZSC     -0.866000
      3 OAJ         0.4410    1.3950   -4.0650 os        1 ZSC     -0.292000
      4 OAK         6.1580   -1.5090   -3.4190 o         1 ZSC     -0.568000
      5 OAP         1.0930   -0.2500    3.2330 o         1 ZSC     -1.006500
      6 OAQ         2.9240    1.1510    2.8640 o         1 ZSC     -1.006500
      7 CBH         3.1760   -0.4570   -3.2950 c1        1 ZSC     -0.124000
      8 CBI         1.8180    0.4860   -1.4820 c1        1 ZSC     -0.255000
      9 CBJ         3.6600    0.1680    0.2100 c1        1 ZSC     -0.405000
     10 O2          2.3030    2.4670   -4.1970 o         1 ZSC     -0.356000
     11 O1          5.4180   -1.8460   -5.4960 o         1 ZSC     -0.568000
     12 CCF         2.3610    0.4560   -2.7840 c2        1 ZSC     -0.082000
     13 CCG         3.7840   -1.4680   -3.8300 c2        1 ZSC     -0.145000
     14 CCI         2.3680    0.3100   -0.2370 c2        1 ZSC     -0.097000
     15 NCS         1.4860    0.2820    0.9010 n3        1 ZSC     -0.838000
     16 SCU         2.1780    0.0740    2.3200 s6        1 ZSC      2.841000
     17 HAG         0.5190    0.3000    0.7130 hn        1 ZSC      0.237000
     18 HAGA       -1.3720    0.5470   -3.8610 h1        1 ZSC      0.079333
     19 HAGB        0.0280   -0.6410   -3.8800 h1        1 ZSC      0.079333
     20 HAH         2.9710   -1.9880    1.3980 h1        1 ZSC      0.129333
     21 HAHA        2.9060   -1.9920    3.1970 h1        1 ZSC      0.129333
     22 HAHB        4.2150   -1.1010    2.3130 h1        1 ZSC      0.129333
     23 HBH         3.2060   -2.3810   -4.0690 ha        1 ZSC      0.111000
     24 HBI        -0.2700    0.3730   -2.3800 h1        1 ZSC      0.079333
     25 HBJ         4.5320    0.1590   -0.4360 ha        1 ZSC      0.110000
     26 CBY         5.2330   -1.5920   -4.2690 c2        1 ZSC      0.371000
     27 CBX         1.7710    1.4760   -3.6890 c2        1 ZSC      0.384000
@<TRIPOS>BOND
     1    1    3 1   
     2    1   18 1   
     3    1   19 1   
     4    1   24 1   
     5    2   16 1   
     6    2   20 1   
     7    2   21 1   
     8    2   22 1   
     9    3   27 1   
    10    4   26 1   
    11    5   16 1   
    12    6   16 1   
    13    7   12 1   
    14    7   13 1   
    15    8   12 1   
    16    8   14 1   
    17    9   14 1   
    18    9   25 1   
    19   10   27 1   
    20   11   26 1   
    21   12   27 1   
    22   13   23 1   
    23   13   26 1   
    24   14   15 1   
    25   15   16 1   
    26   15   17 1   
@<TRIPOS>SUBSTRUCTURE
     1 ZSC         1 TEMP              0 ****  ****    0 ROOT
