@<TRIPOS>MOLECULE
ZSN
   15    13     1     0     0
SMALL
bcc


@<TRIPOS>ATOM
      1 N          -1.8070    0.8150    0.9800 nh        1 ZSN     -0.133300
      2 C           0.4020    0.4500    1.9900 c1        1 ZSN      0.838000
      3 O           1.6530    0.5660    1.8340 o         1 ZSN     -0.792500
      4 CB          0.0660    0.4370   -0.4930 c3        1 ZSN      0.127800
      5 CG          0.4600   -0.9660   -0.7940 c         1 ZSN      0.627100
      6 OD1         0.2730   -1.8680    0.0640 o         1 ZSN     -0.688100
      7 NA         -0.4910    0.4990    0.8200 n2        1 ZSN     -0.617300
      8 ND2         1.0620   -1.2940   -2.0660 n         1 ZSN     -0.669000
      9 OXT        -0.0770    0.2850    3.1500 o         1 ZSN     -0.792500
     10 H2         -1.9250    1.7380    0.8480 hn        1 ZSN      0.166700
     11 H          -2.3160    0.3440    0.3550 hn        1 ZSN      0.166700
     12 HB1C       -0.6430    0.7570   -1.1910 h1        1 ZSN      0.070200
     13 HB2C        0.8760    1.0310   -0.5400 h1        1 ZSN      0.070200
     14 HD21        1.3690   -2.1330   -2.2180 hn        1 ZSN      0.313000
     15 HD22        1.0990   -0.6610   -2.7360 hn        1 ZSN      0.313000
@<TRIPOS>BOND
     1    1    7 2   
     2    1   10 1   
     3    1   11 1   
     4    2    3 2   
     5    2    9 2   
     6    4    5 1   
     7    4    7 1   
     8    4   12 1   
     9    4   13 1   
    10    5    6 2   
    11    5    8 1   
    12    8   14 1   
    13    8   15 1   
@<TRIPOS>SUBSTRUCTURE
     1 ZSN         1 TEMP              0 ****  ****    0 ROOT
