@<TRIPOS>MOLECULE
ZSN
   15    14     1     0     0
SMALL
bcc


@<TRIPOS>ATOM
      1 N          -0.8310    1.6820   -0.0360 n3        1 ZSN     -0.646800
      2 C          -0.9380   -0.7000    0.5490 c         1 ZSN      0.968600
      3 O          -0.2740   -1.6690    1.0230 o         1 ZSN     -0.824300
      4 CB          0.9410    0.7610    1.2610 c3        1 ZSN      0.040000
      5 CG          2.0540    0.4950    0.2370 c         1 ZSN      0.627100
      6 OD1         3.0620    1.2390    0.1630 o         1 ZSN     -0.688100
      7 NA         -0.4310    0.6770    0.8110 n         1 ZSN     -0.393200
      8 ND2         1.9410   -0.5920   -0.5870 n         1 ZSN     -0.669000
      9 OXT        -2.0060   -0.8030   -0.1160 o         1 ZSN     -0.824300
     10 H2         -0.8350    1.3420   -0.9950 hn        1 ZSN      0.321800
     11 H          -1.8070    1.8540    0.1840 hn        1 ZSN      0.321800
     12 HB1C        1.0580   -0.0110    2.0740 h1        1 ZSN      0.070200
     13 HB2C        1.1420    1.7860    1.6840 h1        1 ZSN      0.070200
     14 HD21        1.2260   -1.2670   -0.4220 hn        1 ZSN      0.313000
     15 HD22        2.6850   -0.8230   -1.1920 hn        1 ZSN      0.313000
@<TRIPOS>BOND
     1    1    7 1   
     2    1   10 1   
     3    1   11 1   
     4    2    3 1   
     5    2    7 1   
     6    2    9 1   
     7    4    5 1   
     8    4    7 1   
     9    4   12 1   
    10    4   13 1   
    11    5    6 2   
    12    5    8 1   
    13    8   14 1   
    14    8   15 1   
@<TRIPOS>SUBSTRUCTURE
     1 ZSN         1 TEMP              0 ****  ****    0 ROOT
