@<TRIPOS>MOLECULE
ZSP
   29    30     1     0     0
SMALL
bcc


@<TRIPOS>ATOM
      1 O17         0.2820   -1.1680   -0.1950 o         1 ZSP     -0.526500
      2 C16         1.4030   -0.6750   -0.0680 c         1 ZSP      0.739700
      3 C08         2.0880   -0.2200    1.1450 cc        1 ZSP     -0.053600
      4 N07         1.3970   -0.3550    2.3490 ne        1 ZSP     -0.539300
      5 C06         1.9930    0.0470    3.4450 cf        1 ZSP      0.510600
      6 C04         1.3620   -0.0530    4.7570 cf        1 ZSP     -0.077500
      7 C02         0.1230   -0.5610    5.0320 c2        1 ZSP      0.091900
      8 O03        -0.2200   -0.5400    6.3670 oh        1 ZSP     -0.515100
      9 C01        -0.8470   -1.1090    4.0620 c3        1 ZSP     -0.083900
     10 O05         2.1950    0.4350    5.7550 oh        1 ZSP     -0.519100
     11 C11         3.3900    0.6570    3.4890 c3        1 ZSP      0.142500
     12 N10         4.0300    0.7640    2.1970 nu        1 ZSP     -0.741000
     13 C09         3.3950    0.3280    1.0610 cd        1 ZSP      0.378600
     14 N12         4.0670    0.4420   -0.1730 nd        1 ZSP     -0.613300
     15 C13         3.4160    0.0190   -1.2490 cc        1 ZSP      0.540800
     16 N14         4.1670    0.1580   -2.5460 nz        1 ZSP     -0.804600
     17 N15         2.1460   -0.5260   -1.2930 ns        1 ZSP     -0.495400
     18 H1         -1.1190   -0.8890    6.4650 ho        1 ZSP      0.447000
     19 H2         -1.7820   -1.4510    4.5730 hc        1 ZSP      0.074033
     20 H3         -1.1240   -0.3320    3.3040 hc        1 ZSP      0.074033
     21 H4         -0.4050   -1.9820    3.5170 hc        1 ZSP      0.074033
     22 H5          1.7180    0.3960    6.5990 ho        1 ZSP      0.451000
     23 H6          3.3160    1.6890    3.9460 h1        1 ZSP      0.091200
     24 H7          4.2910   -0.7680   -2.9710 hn        1 ZSP      0.481800
     25 H8          5.0940    0.5750   -2.3670 hn        1 ZSP      0.481800
     26 H9          1.7110   -0.8250   -2.1400 hn        1 ZSP      0.349500
     27 H10         4.0350    0.0240    4.1690 h1        1 ZSP      0.091200
     28 H11         4.9520    1.1340    2.1620 hn        1 ZSP      0.469800
     29 H143        3.6410    0.7690   -3.1820 hn        1 ZSP      0.481800
@<TRIPOS>BOND
     1    1    2 2   
     2    2    3 1   
     3    2   17 1   
     4    3    4 1   
     5    3   13 2   
     6    4    5 2   
     7    5    6 1   
     8    5   11 1   
     9    6    7 2   
    10    6   10 1   
    11    7    8 1   
    12    7    9 1   
    13    8   18 1   
    14    9   19 1   
    15    9   20 1   
    16    9   21 1   
    17   10   22 1   
    18   11   12 1   
    19   11   23 1   
    20   11   27 1   
    21   12   13 1   
    22   12   28 1   
    23   13   14 1   
    24   14   15 2   
    25   15   16 1   
    26   15   17 1   
    27   16   24 1   
    28   16   25 1   
    29   16   29 1   
    30   17   26 1   
@<TRIPOS>SUBSTRUCTURE
     1 ZSP         1 TEMP              0 ****  ****    0 ROOT
