@<TRIPOS>MOLECULE
ZSP
   29    30     1     0     0
SMALL
bcc


@<TRIPOS>ATOM
      1 O17         0.3570   -1.3730   -0.0990 o         1 ZSP     -0.526500
      2 C16         1.4380   -0.7900   -0.0100 c         1 ZSP      0.739700
      3 C08         2.1150   -0.2600    1.1770 cc        1 ZSP     -0.053600
      4 N07         1.4680   -0.4280    2.4010 ne        1 ZSP     -0.539300
      5 C06         2.0580    0.0400    3.4740 cf        1 ZSP      0.510600
      6 C04         1.4690   -0.0850    4.8040 cf        1 ZSP     -0.077500
      7 C02         0.2800   -0.6810    5.1190 c2        1 ZSP      0.091900
      8 O03        -0.0310   -0.6620    6.4620 oh        1 ZSP     -0.515100
      9 C01        -0.6680   -1.3200    4.1840 c3        1 ZSP     -0.083900
     10 O05         2.2850    0.4850    5.7720 oh        1 ZSP     -0.519100
     11 C11         3.4030    0.7580    3.4710 c3        1 ZSP      0.142500
     12 N10         4.0000    0.8910    2.1610 nh        1 ZSP     -0.741000
     13 C09         3.3720    0.3870    1.0490 cd        1 ZSP      0.378600
     14 N12         4.0010    0.5330   -0.2040 nd        1 ZSP     -0.613300
     15 C13         3.3590    0.0400   -1.2550 cc        1 ZSP      0.540800
     16 N14         4.0620    0.2160   -2.5740 n4        1 ZSP     -0.804600
     17 N15         2.1350   -0.6040   -1.2560 n         1 ZSP     -0.495400
     18 H1         -0.8950   -1.0810    6.5900 ho        1 ZSP      0.447000
     19 H2         -0.1730   -2.1670    3.6430 hc        1 ZSP      0.074033
     20 H3         -1.0240   -0.5820    3.4200 hc        1 ZSP      0.074033
     21 H4         -1.5620   -1.7240    4.7250 hc        1 ZSP      0.074033
     22 H5          1.8390    0.4170    6.6300 ho        1 ZSP      0.451000
     23 H6          4.1120    0.1890    4.1440 h1        1 ZSP      0.091200
     24 H7          4.2500   -0.7040   -2.9870 hn        1 ZSP      0.481800
     25 H8          3.4730    0.7720   -3.2050 hn        1 ZSP      0.481800
     26 H9          1.7040   -0.9520   -2.0870 hn        1 ZSP      0.349500
     27 H10         3.2590    1.7890    3.9140 h1        1 ZSP      0.091200
     28 H11         4.8870    1.3350    2.0950 hn        1 ZSP      0.469800
     29 H143        4.9570    0.7090   -2.4260 hn        1 ZSP      0.481800
@<TRIPOS>BOND
     1    1    2 2   
     2    2    3 1   
     3    2   17 1   
     4    3    4 1   
     5    3   13 2   
     6    4    5 2   
     7    5    6 1   
     8    5   11 1   
     9    6    7 2   
    10    6   10 1   
    11    7    8 1   
    12    7    9 1   
    13    8   18 1   
    14    9   19 1   
    15    9   20 1   
    16    9   21 1   
    17   10   22 1   
    18   11   12 1   
    19   11   23 1   
    20   11   27 1   
    21   12   13 1   
    22   12   28 1   
    23   13   14 1   
    24   14   15 2   
    25   15   16 1   
    26   15   17 1   
    27   16   24 1   
    28   16   25 1   
    29   16   29 1   
    30   17   26 1   
@<TRIPOS>SUBSTRUCTURE
     1 ZSP         1 TEMP              0 ****  ****    0 ROOT
