@<TRIPOS>MOLECULE
ZST
   40    44     1     0     0
SMALL
bcc


@<TRIPOS>ATOM
      1 C1          0.5290   -0.6130   -0.5460 c         1 ZST      0.679100
      2 O1          0.2190   -0.9410   -1.7080 o         1 ZST     -0.639500
      3 C2          1.9100   -0.7160   -0.0190 ca        1 ZST     -0.143600
      4 C3          2.1950   -0.2750    1.2910 ca        1 ZST     -0.097900
      5 C4          1.0720    0.2390    2.0770 cc        1 ZST      0.390900
      6 C5          2.9320   -1.2250   -0.8330 ca        1 ZST     -0.074000
      7 C6          4.2290   -1.3050   -0.3430 ca        1 ZST     -0.153000
      8 C7          4.5140   -0.8760    0.9600 ca        1 ZST     -0.112000
      9 C8          3.5100   -0.3660    1.7720 ca        1 ZST     -0.124000
     10 N1         -0.4550   -0.1590    0.3690 n         1 ZST     -0.196800
     11 N2         -0.1640    0.2200    1.6130 nd        1 ZST     -0.432300
     12 C9         -1.7730    0.2700   -0.1380 c3        1 ZST      0.104700
     13 C10        -2.1980    1.6480    0.2960 c2        1 ZST      0.370600
     14 C11        -2.5930    3.8030    1.3550 ca        1 ZST      0.028500
     15 C12        -3.4550    3.4830    0.2410 ca        1 ZST      0.062400
     16 C13        -2.7570    5.0290    2.0180 ca        1 ZST     -0.078000
     17 C14        -3.7290    5.9160    1.6090 ca        1 ZST     -0.126000
     18 C15        -4.5690    5.5990    0.5170 ca        1 ZST     -0.202300
     19 C16        -4.4460    4.4030   -0.1670 ca        1 ZST     -0.034000
     20 N3         -3.2110    2.2460   -0.3520 ne        1 ZST     -0.580100
     21 S1         -1.5210    2.5560    1.6060 s4        1 ZST     -0.184300
     22 C17         1.3040    0.8700    3.4170 c3        1 ZST     -0.208700
     23 C18         0.2770    1.9520    3.7720 c         1 ZST      0.762600
     24 O2         -0.0780    2.8010    2.8580 os        1 ZST     -0.438900
     25 O3         -0.1410    2.0360    4.9470 o         1 ZST     -0.747500
     26 C19        -5.6130    6.6140    0.0900 c3        1 ZST      0.690200
     27 F1         -6.2190    7.2970    1.1200 f         1 ZST     -0.254633
     28 F2         -5.1420    7.6230   -0.7210 f         1 ZST     -0.254633
     29 F3         -6.6750    6.1070   -0.6230 f         1 ZST     -0.254633
     30 H5          2.6850   -1.5540   -1.8550 ha        1 ZST      0.154000
     31 H6          5.0340   -1.7050   -0.9760 ha        1 ZST      0.128000
     32 H7          5.5440   -0.9440    1.3410 ha        1 ZST      0.126000
     33 H8          3.7410   -0.0340    2.7950 ha        1 ZST      0.144000
     34 H91        -2.5310   -0.4750    0.2410 h1        1 ZST      0.077700
     35 H92        -1.7290    0.2010   -1.2630 h1        1 ZST      0.077700
     36 H13        -2.1000    5.2680    2.8700 ha        1 ZST      0.146000
     37 H14        -3.8700    6.8760    2.1250 ha        1 ZST      0.127000
     38 H16        -5.1070    4.1640   -1.0130 ha        1 ZST      0.142000
     39 H171        2.3090    1.3660    3.4120 hc        1 ZST      0.061200
     40 H172        1.2930    0.0830    4.2140 hc        1 ZST      0.061200
@<TRIPOS>BOND
     1    1    2 2   
     2    1    3 1   
     3    1   10 1   
     4    3    4 ar  
     5    3    6 ar  
     6    4    5 1   
     7    4    9 ar  
     8    5   11 2   
     9    5   22 1   
    10    6    7 ar  
    11    6   30 1   
    12    7    8 ar  
    13    7   31 1   
    14    8    9 ar  
    15    8   32 1   
    16    9   33 1   
    17   10   11 1   
    18   10   12 1   
    19   12   13 1   
    20   12   34 1   
    21   12   35 1   
    22   13   20 2   
    23   13   21 1   
    24   14   15 ar  
    25   14   16 ar  
    26   14   21 1   
    27   15   19 ar  
    28   15   20 1   
    29   16   17 ar  
    30   16   36 1   
    31   17   18 ar  
    32   17   37 1   
    33   18   19 ar  
    34   18   26 1   
    35   19   38 1   
    36   21   24 1   
    37   22   23 1   
    38   22   39 1   
    39   22   40 1   
    40   23   24 1   
    41   23   25 2   
    42   26   27 1   
    43   26   28 1   
    44   26   29 1   
@<TRIPOS>SUBSTRUCTURE
     1 ZST         1 TEMP              0 ****  ****    0 ROOT
