@<TRIPOS>MOLECULE
ZST
   40    44     1     0     0
SMALL
bcc


@<TRIPOS>ATOM
      1 C1         -2.1170   -1.4770   -2.6720 c         1 ZST      0.679100
      2 O1         -3.0370   -2.2450   -2.3290 o         1 ZST     -0.639500
      3 C2         -2.2250   -0.5500   -3.8240 ca        1 ZST     -0.143600
      4 C3         -1.1600    0.3270   -4.1190 ca        1 ZST     -0.097900
      5 C4          0.0270    0.2410   -3.2670 cc        1 ZST      0.390900
      6 C5         -3.3940   -0.5300   -4.5970 ca        1 ZST     -0.074000
      7 C6         -3.5000    0.3500   -5.6650 ca        1 ZST     -0.153000
      8 C7         -2.4420    1.2170   -5.9670 ca        1 ZST     -0.112000
      9 C8         -1.2820    1.2090   -5.2040 ca        1 ZST     -0.124000
     10 N1         -0.8710   -1.4840   -1.9940 n         1 ZST     -0.196800
     11 N2          0.1310   -0.6680   -2.3140 nd        1 ZST     -0.432300
     12 C9         -0.7720   -2.1270   -0.6680 c3        1 ZST      0.104700
     13 C10        -0.2010   -1.2530    0.4160 c2        1 ZST      0.370600
     14 C11         0.9210    0.3900    1.8160 ca        1 ZST      0.028500
     15 C12         0.2790   -0.6980    2.5160 ca        1 ZST      0.062400
     16 C13         1.5900    1.3810    2.5530 ca        1 ZST     -0.078000
     17 C14         1.6300    1.3140    3.9290 ca        1 ZST     -0.126000
     18 C15         0.9980    0.2480    4.6100 ca        1 ZST     -0.202300
     19 C16         0.3290   -0.7500    3.9270 ca        1 ZST     -0.034000
     20 N3         -0.3600   -1.6260    1.6970 ne        1 ZST     -0.580100
     21 S1          0.6960    0.2080    0.1780 s4        1 ZST     -0.184300
     22 C17         1.1410    1.2340   -3.4070 c3        1 ZST     -0.208700
     23 C18         1.8970    1.4990   -2.0990 c         1 ZST      0.762600
     24 O2          1.2180    1.6380   -1.0020 os        1 ZST     -0.438900
     25 O3          3.1370    1.6430   -2.1280 o         1 ZST     -0.747500
     26 C19         1.0530    0.2260    6.1260 c3        1 ZST      0.690200
     27 F1          2.2410    0.6540    6.6740 f         1 ZST     -0.254633
     28 F2          0.1170    1.0200    6.7510 f         1 ZST     -0.254633
     29 F3          0.8590   -1.0060    6.7080 f         1 ZST     -0.254633
     30 H5         -4.2140   -1.2200   -4.3400 ha        1 ZST      0.154000
     31 H6         -4.4130    0.3690   -6.2760 ha        1 ZST      0.128000
     32 H7         -2.5340    1.9110   -6.8160 ha        1 ZST      0.126000
     33 H8         -0.4540    1.8910   -5.4490 ha        1 ZST      0.144000
     34 H91        -1.8100   -2.4770   -0.3960 h1        1 ZST      0.077700
     35 H92        -0.1060   -3.0310   -0.7880 h1        1 ZST      0.077700
     36 H13         2.0820    2.2060    2.0150 ha        1 ZST      0.146000
     37 H14         2.1560    2.0800    4.5160 ha        1 ZST      0.127000
     38 H16        -0.1570   -1.5780    4.4660 ha        1 ZST      0.142000
     39 H171        0.7090    2.2150   -3.7370 hc        1 ZST      0.061200
     40 H172        1.8690    0.8810   -4.1820 hc        1 ZST      0.061200
@<TRIPOS>BOND
     1    1    2 2   
     2    1    3 1   
     3    1   10 1   
     4    3    4 ar  
     5    3    6 ar  
     6    4    5 1   
     7    4    9 ar  
     8    5   11 2   
     9    5   22 1   
    10    6    7 ar  
    11    6   30 1   
    12    7    8 ar  
    13    7   31 1   
    14    8    9 ar  
    15    8   32 1   
    16    9   33 1   
    17   10   11 1   
    18   10   12 1   
    19   12   13 1   
    20   12   34 1   
    21   12   35 1   
    22   13   20 2   
    23   13   21 1   
    24   14   15 ar  
    25   14   16 ar  
    26   14   21 1   
    27   15   19 ar  
    28   15   20 1   
    29   16   17 ar  
    30   16   36 1   
    31   17   18 ar  
    32   17   37 1   
    33   18   19 ar  
    34   18   26 1   
    35   19   38 1   
    36   21   24 1   
    37   22   23 1   
    38   22   39 1   
    39   22   40 1   
    40   23   24 1   
    41   23   25 2   
    42   26   27 1   
    43   26   28 1   
    44   26   29 1   
@<TRIPOS>SUBSTRUCTURE
     1 ZST         1 TEMP              0 ****  ****    0 ROOT
