@<TRIPOS>MOLECULE
ZST
   40    33     1     0     0
SMALL
bcc


@<TRIPOS>ATOM
      1 C1          1.2570    1.7760   -0.6690 c1        1 ZST      0.327000
      2 O1          0.6510    1.9390   -1.7090 o         1 ZST     -0.382000
      3 C2          2.6500    1.7240   -0.6750 c1        1 ZST     -0.122000
      4 C3          3.3260    1.5760    0.4900 c1        1 ZST     -0.031000
      5 C4          2.6270    1.4780    1.6910 c1        1 ZST      0.016000
      6 C5          3.3560    1.8020   -1.8960 c1        1 ZST     -0.093000
      7 C6          4.7380    1.7280   -1.9030 c1        1 ZST     -0.132500
      8 C7          5.4280    1.5770   -0.7140 c1        1 ZST     -0.132500
      9 C8          4.7360    1.5010    0.4830 c1        1 ZST     -0.096000
     10 N1          0.5790    1.6790    0.5050 n2        1 ZST     -0.253000
     11 N2          1.2680    1.5290    1.6930 n1        1 ZST     -0.086000
     12 C9         -0.8440    1.7250    0.5100 c3        1 ZST      0.055000
     13 C10        -1.3920    0.4590   -0.1200 c2        1 ZST     -0.298000
     14 C11        -2.4120   -1.5520   -1.1630 c1        1 ZST     -0.220500
     15 C12        -3.4010   -0.9090   -0.3640 c1        1 ZST     -0.220500
     16 C13        -2.7300   -2.7090   -1.8620 c1        1 ZST     -0.051500
     17 C14        -4.0200   -3.2420   -1.7820 c1        1 ZST     -0.106000
     18 C15        -4.9990   -2.6060   -0.9910 c1        1 ZST     -0.175000
     19 C16        -4.6810   -1.4400   -0.2860 c1        1 ZST     -0.051500
     20 N3         -2.7500    0.3740    0.3020 n1        1 ZST     -0.117000
     21 S1         -1.1110   -0.7330   -1.0520 s         1 ZST      0.692000
     22 C17         3.1130    1.2320    3.1030 c3        1 ZST     -0.209000
     23 C18         3.0680   -0.2500    3.4010 c2        1 ZST      0.341000
     24 O2          4.0720   -0.9690    3.1660 o         1 ZST     -0.560000
     25 O3          2.0290   -0.7610    3.8940 o         1 ZST     -0.560000
     26 C19        -6.4100   -3.1180   -0.8200 c3        1 ZST      0.467000
     27 F1         -6.5430   -4.2860   -1.4620 f         1 ZST     -0.174333
     28 F2         -6.6660   -3.2930    0.4820 f         1 ZST     -0.174333
     29 F3         -7.2720   -2.2280   -1.3270 f         1 ZST     -0.174333
     30 H5          2.8700    1.9260   -2.7350 ha        1 ZST      0.147000
     31 H6          5.2260    1.7820   -2.7460 ha        1 ZST      0.127000
     32 H7          6.4020    1.5250   -0.7180 ha        1 ZST      0.127000
     33 H8          5.2250    1.4210    1.3250 ha        1 ZST      0.214000
     34 H91        -1.1480    2.5020   -0.0030 h1        1 ZST      0.131000
     35 H92        -1.1650    1.7960    1.4330 h1        1 ZST      0.131000
     36 H13        -2.0530   -3.1510   -2.4100 ha        1 ZST      0.157500
     37 H14        -4.2440   -4.0560   -2.2740 ha        1 ZST      0.142000
     38 H16        -5.3550   -1.0090    0.2750 ha        1 ZST      0.157500
     39 H171        4.0340    1.5550    3.1930 hc        1 ZST      0.093500
     40 H172        2.5380    1.7090    3.7340 hc        1 ZST      0.093500
@<TRIPOS>BOND
     1    1    2 1   
     2    1    3 1   
     3    3    6 1   
     4    4    5 1   
     5    4    9 1   
     6    5   22 1   
     7    6   30 1   
     8    7    8 1   
     9    7   31 1   
    10    8   32 1   
    11    9   33 1   
    12   10   11 1   
    13   10   12 1   
    14   12   13 1   
    15   12   34 1   
    16   12   35 1   
    17   13   20 1   
    18   13   21 1   
    19   14   16 1   
    20   15   19 1   
    21   16   36 1   
    22   17   18 1   
    23   17   37 1   
    24   18   26 1   
    25   19   38 1   
    26   22   23 1   
    27   22   39 1   
    28   22   40 1   
    29   23   24 1   
    30   23   25 1   
    31   26   27 1   
    32   26   28 1   
    33   26   29 1   
@<TRIPOS>SUBSTRUCTURE
     1 ZST         1 TEMP              0 ****  ****    0 ROOT
