@<TRIPOS>MOLECULE
ZSV
   75    78     1     0     0
SMALL
bcc


@<TRIPOS>ATOM
      1 C1         -5.4760    2.7290   -2.3630 ca        1 ZSV     -0.111000
      2 C2         -6.2890    1.6420   -2.0390 ca        1 ZSV     -0.125000
      3 C3         -4.0930    2.5730   -2.4070 ca        1 ZSV     -0.093000
      4 C4         -5.7140    0.4100   -1.7410 ca        1 ZSV     -0.127000
      5 C5         -0.8370   -3.3390   -1.1280 ca        1 ZSV     -0.116000
      6 C6          0.4380    2.5960    0.9010 ca        1 ZSV     -0.084500
      7 C7          1.5360    3.3790   -1.1110 ca        1 ZSV     -0.084500
      8 C8          0.5320   -3.3730   -1.3600 ca        1 ZSV     -0.150000
      9 C9          0.9590    3.6690    1.6130 ca        1 ZSV     -0.180500
     10 C10         2.0740    4.4580   -0.4090 ca        1 ZSV     -0.180500
     11 C11        -3.5110    1.3340   -2.1110 ca        1 ZSV     -0.085600
     12 C12        -0.5190   -1.8350    0.7700 ca        1 ZSV     -0.090600
     13 C13         0.7230    2.4480   -0.4650 ca        1 ZSV     -0.150300
     14 C14        -4.3200    0.2490   -1.7560 ca        1 ZSV     -0.111300
     15 C15        -1.3580   -2.5910   -0.0680 ca        1 ZSV     -0.180300
     16 C16         1.3890   -2.6410   -0.5230 ca        1 ZSV      0.106100
     17 C17         0.8610   -1.8600    0.5310 ca        1 ZSV      0.072100
     18 C18         1.7810    4.5990    0.9520 ca        1 ZSV      0.120100
     19 C20        -4.5610   -1.3530    2.2750 c2        1 ZSV     -0.208200
     20 C21        -2.0230    1.2240   -2.2950 c         1 ZSV      0.644700
     21 C23         7.3430   -1.3130   -0.0300 c         1 ZSV      0.912600
     22 C24         2.9860   -0.8890    0.8040 c3        1 ZSV      0.088400
     23 C25         3.5900   -2.1630    0.2300 c3        1 ZSV      0.104100
     24 C28        -3.7460   -1.0970   -1.4450 c3        1 ZSV      0.165100
     25 C29        -2.8170   -2.6500    0.2320 c3        1 ZSV      0.186100
     26 C30        -4.7830   -1.2810    0.7980 c3        1 ZSV      0.152000
     27 C32         4.9380   -1.9130   -0.4310 c3        1 ZSV     -0.066400
     28 N33        -1.2480    1.1560   -1.1710 n         1 ZSV     -0.543900
     29 N34        -3.5150   -1.3330    0.0110 n4        1 ZSV     -0.720400
     30 O35        -1.6990    0.0970    1.5410 o         1 ZSV     -0.812300
     31 O36         8.4290   -1.9070    0.2220 o         1 ZSV     -0.844300
     32 O37        -1.5530    1.1920   -3.4540 o         1 ZSV     -0.611100
     33 O38        -1.2280   -1.4680    3.0400 o         1 ZSV     -0.812300
     34 O39         7.2480   -0.2670   -0.7340 o         1 ZSV     -0.844300
     35 O40         1.6850   -1.1280    1.3630 os        1 ZSV     -0.299900
     36 O41         2.7290   -2.7010   -0.8070 os        1 ZSV     -0.316900
     37 O42         2.2340    5.6470    1.7350 os        1 ZSV     -0.334900
     38 H1         -5.9270    3.7070   -2.5920 ha        1 ZSV      0.141000
     39 H2         -7.3830    1.7560   -2.0210 ha        1 ZSV      0.137000
     40 H3         -3.4460    3.4190   -2.6880 ha        1 ZSV      0.158000
     41 H4         -6.3580   -0.4490   -1.4990 ha        1 ZSV      0.128000
     42 H5         -1.5090   -3.9180   -1.7780 ha        1 ZSV      0.117000
     43 H8          0.9600   -3.9620   -2.1830 ha        1 ZSV      0.151000
     44 H9          0.7490    3.7930    2.6840 ha        1 ZSV      0.141500
     45 H7          1.7690    3.2610   -2.1800 ha        1 ZSV      0.159000
     46 H10         2.7280    5.1740   -0.9250 ha        1 ZSV      0.141500
     47 H281       -4.4390   -1.9010   -1.8260 hx        1 ZSV      0.098200
     48 H282       -2.7420   -1.2190   -1.9550 hx        1 ZSV      0.098200
     49 H291       -3.3330   -3.4280   -0.3950 hx        1 ZSV      0.090200
     50 H292       -2.9430   -2.9070    1.3280 hx        1 ZSV      0.090200
     51 H20        -3.6110   -0.9130    2.6550 ha        1 ZSV      0.213000
     52 H301       -5.4510   -2.1160    0.4440 hx        1 ZSV      0.076700
     53 H302       -5.2830   -0.2940    0.5660 hx        1 ZSV      0.076700
     54 H33        -1.6600    1.2090   -0.2600 hn        1 ZSV      0.351500
     55 H241        3.5870   -0.5150    1.6740 h1        1 ZSV      0.082700
     56 H242        2.9000   -0.0950    0.0170 h1        1 ZSV      0.082700
     57 H25         3.6660   -2.9490    1.0310 h1        1 ZSV      0.063700
     58 H321        5.1230   -2.7200   -1.1890 hc        1 ZSV      0.067700
     59 H322        4.9250   -0.9340   -0.9820 hc        1 ZSV      0.067700
     60 H261        4.1680    5.6880    0.9110 h1        1 ZSV      0.041700
     61 H262        3.0160    6.9990    0.3440 h1        1 ZSV      0.041700
     62 H263        3.6550    7.0260    2.0660 h1        1 ZSV      0.041700
     63 H34        -2.8710   -0.5630    0.3880 hn        1 ZSV      0.520800
     64 C19        -5.4660   -1.8840    3.0930 c2        1 ZSV     -0.196000
     65 C27         0.1920    1.2610   -1.2140 c3        1 ZSV      0.133300
     66 C31         6.0530   -1.8970    0.5850 c3        1 ZSV     -0.203400
     67 H6         -0.1860    1.8410    1.4180 ha        1 ZSV      0.159000
     68 C26         3.3400    6.3740    1.2120 c3        1 ZSV      0.114700
     69 H271        0.5310    1.2900   -2.2890 h1        1 ZSV      0.075700
     70 H272        0.6130    0.3260   -0.7300 h1        1 ZSV      0.075700
     71 H191       -6.4070   -2.3310    2.7470 ha        1 ZSV      0.117500
     72 H192       -5.3140   -1.8990    4.1810 ha        1 ZSV      0.117500
     73 H311        6.2560   -2.9280    0.9650 hc        1 ZSV      0.024700
     74 H312        5.7750   -1.2530    1.4570 hc        1 ZSV      0.024700
     75 C22        -1.1450   -1.0180    1.8780 c         1 ZSV      0.914200
@<TRIPOS>BOND
     1    1    2 ar  
     2    1    3 ar  
     3    1   38 1   
     4    2    4 ar  
     5    2   39 1   
     6    3   11 ar  
     7    3   40 1   
     8    4   14 ar  
     9    4   41 1   
    10    5    8 ar  
    11    5   15 ar  
    12    5   42 1   
    13    6    9 ar  
    14    6   13 ar  
    15    6   67 1   
    16    7   10 ar  
    17    7   13 ar  
    18    7   45 1   
    19    8   16 ar  
    20    8   43 1   
    21    9   18 ar  
    22    9   44 1   
    23   10   18 ar  
    24   10   46 1   
    25   11   14 ar  
    26   11   20 1   
    27   12   15 ar  
    28   12   17 ar  
    29   12   75 1   
    30   13   65 1   
    31   14   24 1   
    32   15   25 1   
    33   16   17 ar  
    34   16   36 1   
    35   17   35 1   
    36   18   37 1   
    37   19   26 1   
    38   19   51 1   
    39   19   64 2   
    40   20   28 1   
    41   20   32 2   
    42   21   31 1   
    43   21   34 1   
    44   21   66 1   
    45   22   23 1   
    46   22   35 1   
    47   22   55 1   
    48   22   56 1   
    49   23   27 1   
    50   23   36 1   
    51   23   57 1   
    52   24   29 1   
    53   24   47 1   
    54   24   48 1   
    55   25   29 1   
    56   25   49 1   
    57   25   50 1   
    58   26   29 1   
    59   26   52 1   
    60   26   53 1   
    61   27   58 1   
    62   27   59 1   
    63   27   66 1   
    64   28   54 1   
    65   28   65 1   
    66   29   63 1   
    67   30   75 1   
    68   33   75 1   
    69   37   68 1   
    70   60   68 1   
    71   61   68 1   
    72   62   68 1   
    73   64   71 1   
    74   64   72 1   
    75   65   69 1   
    76   65   70 1   
    77   66   73 1   
    78   66   74 1   
@<TRIPOS>SUBSTRUCTURE
     1 ZSV         1 TEMP              0 ****  ****    0 ROOT
