@<TRIPOS>MOLECULE
ZSV
   75    71     1     0     0
SMALL
bcc


@<TRIPOS>ATOM
      1 C1         -1.2840   -0.4790    0.2240 c2        1 ZSV     -0.207000
      2 C2          3.7340   -0.0840    1.4990 c1        1 ZSV      0.178000
      3 C3         -0.0390   -0.3120    0.6780 c2        1 ZSV     -0.121000
      4 C4          2.6390    0.6220    1.3390 c2        1 ZSV     -0.446000
      5 C5          1.9010    3.4050    6.9390 c1        1 ZSV      0.243000
      6 C6         -8.4040   -1.8480    2.6980 c1        1 ZSV     -0.202000
      7 C7         -4.0870   -0.4490    3.7830 c2        1 ZSV     -0.027000
      8 C8          1.4550    2.1860    7.1280 c2        1 ZSV     -0.547000
      9 C9         -7.6180   -1.1500    3.2700 c1        1 ZSV     -0.087000
     10 C10        -5.3850   -0.4080    3.8680 c1        1 ZSV     -0.226000
     11 C11         0.2900    0.2910    1.9570 c2        1 ZSV     -0.110000
     12 C12         1.1060   -0.8200    7.7810 c2        1 ZSV     -0.184000
     13 C13        -3.2120   -1.2660    4.6600 c3        1 ZSV     -0.155000
     14 C14         1.5250    0.7370    2.2780 c2        1 ZSV      0.018000
     15 C15         2.5560   -0.6460    7.4970 c3        1 ZSV     -0.161000
     16 C16         0.6740    1.6390    8.2400 c2        1 ZSV      0.364000
     17 C17         0.2990    0.2000    8.1430 c2        1 ZSV     -0.017000
     18 C18        -6.6900   -0.3350    3.9400 c2        1 ZSV      0.045000
     19 C20         2.1540   -3.4220    3.6450 c3        1 ZSV     -0.261000
     20 C21        -0.8370    0.4120    2.9460 c2        1 ZSV      0.335000
     21 C23        -2.2220    0.9940   11.7720 c2        1 ZSV      0.306000
     22 C24        -5.0830    2.6720    8.1900 c1        1 ZSV     -0.225000
     23 C25        -4.1800    2.5290    8.9630 c1        1 ZSV     -0.167000
     24 C28         1.8440    1.3790    3.5750 c3        1 ZSV     -0.230000
     25 C29         2.8120   -0.8010    6.0240 c1        1 ZSV     -0.155000
     26 C30         3.0620   -2.2820    4.1280 c3        1 ZSV     -0.008000
     27 C32        -3.0970    2.3620    9.8860 c3        1 ZSV     -0.057000
     28 N33        -0.9260   -0.5840    3.8810 ns        1 ZSV     -0.371000
     29 N34         2.9090   -2.0170    5.5390 n7        1 ZSV     -0.203000
     30 O35        -0.6550   -2.4140    7.4620 o         1 ZSV     -0.567000
     31 O36        -0.8880    0.9500   11.5180 oh        1 ZSV     -0.294000
     32 O37        -1.6420    1.3710    2.8930 o         1 ZSV     -0.411000
     33 O38         1.4160   -3.1990    7.6520 o         1 ZSV     -0.567000
     34 O39        -2.5050    0.9720   12.9740 o         1 ZSV     -0.347000
     35 O40        -1.0210    0.0660    8.5220 oh        1 ZSV     -0.315000
     36 O41         0.2980    2.3390    9.1910 o         1 ZSV     -0.319000
     37 O42        -7.3430    0.6580    4.7650 os        1 ZSV     -0.025000
     38 H1         -1.4900   -0.9350   -0.7520 ha        1 ZSV      0.117500
     39 H2         -2.1680   -0.1620    0.7950 ha        1 ZSV      0.117500
     40 H3          0.8280   -0.6300    0.0720 ha        1 ZSV      0.115000
     41 H4          2.5130    1.2080    0.4030 ha        1 ZSV      0.197000
     42 H5          3.1080   -1.4140    8.1160 hc        1 ZSV      0.099000
     43 H8          1.7040    1.4410    6.3210 ha        1 ZSV      0.251000
     44 H9         -9.1000   -2.4670    2.1930 ha        1 ZSV      0.220000
     45 H7         -3.0320   -2.2590    4.1650 hc        1 ZSV      0.107000
     46 H10        -3.5620    0.1700    3.0220 ha        1 ZSV      0.176000
     47 H281        2.5880    2.2010    3.4310 hc        1 ZSV      0.111667
     48 H282        0.9240    1.8110    4.0430 hc        1 ZSV      0.111667
     49 H291        2.7670   -2.8410    6.1100 hn        1 ZSV      0.224000
     50 H292        2.9370    0.3610    7.8090 hc        1 ZSV      0.099000
     51 H20         2.4450   -4.3770    4.1640 hc        1 ZSV      0.116500
     52 H301        2.8420   -1.3460    3.5380 h1        1 ZSV      0.096500
     53 H302        4.1320   -2.5800    3.9320 h1        1 ZSV      0.096500
     54 H33        -0.2760   -1.3580    3.8440 hn        1 ZSV      0.282000
     55 H241       -5.8830    2.7920    7.5000 ha        1 ZSV      0.234000
     56 H242       -1.3060   -0.8580    8.3640 ho        1 ZSV      0.276000
     57 H25        -0.7250    0.9920   10.5570 ho        1 ZSV      0.264000
     58 H321       -2.1120    2.3920    9.3320 hc        1 ZSV      0.117500
     59 H322       -3.0980    3.2160   10.6200 hc        1 ZSV      0.117500
     60 H261       -6.8680    0.0520    7.4320 ha        1 ZSV      0.004000
     61 H262       -5.6000    1.5050    5.5270 ha        1 ZSV      0.059000
     62 H263       -6.4570    0.5170    7.7070 ha        1 ZSV      0.004000
     63 H34         2.2830    0.6240    4.2910 hc        1 ZSV      0.111667
     64 C19         0.7450   -3.0930    3.7380 c1        1 ZSV     -0.048000
     65 C27        -1.8790   -0.5660    4.9550 c3        1 ZSV     -0.044000
     66 C31        -3.2000    1.0420   10.6360 c3        1 ZSV     -0.200000
     67 H6         -3.7120   -1.4720    5.6440 hc        1 ZSV      0.107000
     68 C26        -6.7090    1.4900    5.4880 c1        1 ZSV     -0.052000
     69 H271       -1.4080   -1.0900    5.8460 h1        1 ZSV      0.127000
     70 H272       -2.0950    0.5040    5.2390 h1        1 ZSV      0.127000
     71 H191        0.0590   -3.9340    3.9200 ha        1 ZSV      0.060000
     72 H192        2.3450   -3.5690    2.5390 hc        1 ZSV      0.116500
     73 H311       -2.9800    0.1940    9.9320 hc        1 ZSV      0.121500
     74 H312       -4.2340    0.9040   11.0460 hc        1 ZSV      0.121500
     75 C22         0.5900   -2.2420    7.6360 c2        1 ZSV      0.359000
@<TRIPOS>BOND
     1    1    3 1   
     2    1   38 1   
     3    1   39 1   
     4    2    4 1   
     5    3   11 1   
     6    3   40 1   
     7    4   14 1   
     8    4   41 1   
     9    5    8 1   
    10    6    9 1   
    11    6   44 1   
    12    7   10 1   
    13    7   13 1   
    14    7   46 1   
    15    8   16 1   
    16    8   43 1   
    17    9   18 1   
    18   10   18 1   
    19   11   14 1   
    20   11   20 1   
    21   12   15 1   
    22   12   17 1   
    23   12   75 1   
    24   13   45 1   
    25   13   65 1   
    26   13   67 1   
    27   14   24 1   
    28   15   25 1   
    29   15   42 1   
    30   15   50 1   
    31   16   17 1   
    32   16   36 1   
    33   17   35 1   
    34   18   37 1   
    35   19   26 1   
    36   19   51 1   
    37   19   64 1   
    38   19   72 1   
    39   20   28 1   
    40   20   32 1   
    41   21   31 1   
    42   21   34 1   
    43   21   66 1   
    44   22   23 1   
    45   22   55 1   
    46   23   27 1   
    47   24   47 1   
    48   24   48 1   
    49   24   63 1   
    50   25   29 1   
    51   26   29 1   
    52   26   52 1   
    53   26   53 1   
    54   27   58 1   
    55   27   59 1   
    56   27   66 1   
    57   28   54 1   
    58   28   65 1   
    59   29   49 1   
    60   30   75 1   
    61   31   57 1   
    62   33   75 1   
    63   35   56 1   
    64   37   68 1   
    65   60   62 1   
    66   61   68 1   
    67   64   71 1   
    68   65   69 1   
    69   65   70 1   
    70   66   73 1   
    71   66   74 1   
@<TRIPOS>SUBSTRUCTURE
     1 ZSV         1 TEMP              0 ****  ****    0 ROOT
