@<TRIPOS>MOLECULE
ZSW
   71    66     1     0     0
SMALL
bcc


@<TRIPOS>ATOM
      1 C1         -0.5020    0.8700   -0.8860 c1        1 ZSW     -0.053000
      2 C2          0.9090    0.8260   -0.6780 c2        1 ZSW     -0.227000
      3 C3         -1.3850    0.7390    0.2630 c3        1 ZSW     -0.150000
      4 C4          1.4440    0.9270    0.5590 c2        1 ZSW     -0.040000
      5 C5          2.8620    4.1620    9.5000 c1        1 ZSW      0.286000
      6 C6          3.0280    2.8540    9.4110 c2        1 ZSW     -0.467000
      7 C7         -0.7790    0.6270    1.6230 c2        1 ZSW     -0.335000
      8 C8          2.7460   -0.7190    9.4720 c2        1 ZSW      0.016000
      9 C9          0.6190    0.9790    1.7670 c2        1 ZSW     -0.009000
     10 C10         3.5370   -1.5020   10.4160 c2        1 ZSW     -0.124000
     11 C11         2.1360    1.8000    9.8760 c2        1 ZSW      0.245000
     12 C12         2.3990    0.5220    9.6920 c1        1 ZSW     -0.281000
     13 C13        -0.9270   -4.0560    2.6910 c2        1 ZSW     -0.434000
     14 C15        -1.5970    0.2520    2.6810 c2        1 ZSW      0.225000
     15 C18        -5.1060    0.0470    5.8220 c3        1 ZSW     -0.337000
     16 C20        -1.7020   -0.2660    5.0700 c3        1 ZSW     -0.041000
     17 C22        -2.1890   -1.6890    5.1720 c3        1 ZSW     -0.249000
     18 C23         0.0230   -1.7770    8.7370 c2        1 ZSW      0.265000
     19 C25         0.0800    1.3760   11.0450 c3        1 ZSW      0.009000
     20 C26         1.1940    1.3920    2.9170 c2        1 ZSW     -0.267000
     21 C27         4.2520   -2.5810   10.0950 c2        1 ZSW     -0.194000
     22 C28         1.5090   -1.7850    3.6910 c2        1 ZSW      0.152000
     23 C31        -0.8770    0.8790   10.0260 c2        1 ZSW     -0.230000
     24 N32        -2.9540    0.0300    2.5790 n3        1 ZSW     -0.399000
     25 N33         1.3870   -1.6560    4.9830 n3        1 ZSW     -0.218000
     26 O37         1.0480   -1.5180    7.8300 os        1 ZSW     -0.367000
     27 O35        -2.3940   -0.2730    7.8480 o         1 ZSW     -0.587000
     28 O36        -0.9460   -0.0500    3.8710 os        1 ZSW     -0.287000
     29 O34         3.1240   -1.7520    7.2910 o         1 ZSW     -0.362000
     30 O38        -2.8630    1.7720    7.1740 o         1 ZSW     -0.587000
     31 O39         0.3360   -2.3570    9.7650 o         1 ZSW     -0.318000
     32 O40         1.0360    2.3140   10.5270 os        1 ZSW     -0.213000
     33 H1         -2.0780    1.6340    0.2270 hc        1 ZSW      0.127500
     34 H2          1.5480    0.7680   -1.5740 ha        1 ZSW      0.142000
     35 H3         -2.0260   -0.1660    0.0330 hc        1 ZSW      0.127500
     36 H4          2.5350    1.0080    0.7100 ha        1 ZSW      0.119000
     37 H5          3.5100   -1.1220   11.4520 ha        1 ZSW      0.141000
     38 H6          3.9590    2.4910    8.9220 ha        1 ZSW      0.206000
     39 H261        2.2520    1.6780    2.9640 ha        1 ZSW      0.121500
     40 H262        0.6280    1.5140    3.8490 ha        1 ZSW      0.121500
     41 H271        1.9470   -2.1650    5.6490 hn        1 ZSW      0.282000
     42 H272        4.8360   -3.1300   10.8450 ha        1 ZSW      0.123000
     43 H131       -1.9670   -3.6660    2.6660 ha        1 ZSW      0.228500
     44 H132       -0.8560   -5.0930    2.3190 ha        1 ZSW      0.228500
     45 H14         0.9250   -1.1100    3.0130 h4        1 ZSW      0.185500
     46 H281        2.3180   -2.4120    3.2680 h4        1 ZSW      0.185500
     47 H282        4.3060   -2.9820    9.0730 ha        1 ZSW      0.123000
     48 H32        -3.5460    0.1230    3.4240 hn        1 ZSW      0.243500
     49 H291       -0.4550    1.9920   11.8240 h1        1 ZSW      0.108000
     50 H292       -0.9200    2.5740    8.7260 ha        1 ZSW      0.135000
     51 H181       -4.8410   -1.0420    5.8270 hc        1 ZSW      0.150333
     52 H182       -2.5370    0.4780    5.1960 h1        1 ZSW      0.136000
     53 H20        -3.3680    0.4330    1.7680 hn        1 ZSW      0.243500
     54 H191       -5.5660    1.4690    4.2520 ha        1 ZSW      0.054000
     55 H192       -4.3150    0.5410    6.5090 hc        1 ZSW      0.150333
     56 H193       -6.1040    0.1980    6.3030 hc        1 ZSW      0.150333
     57 H221       -3.0530   -1.8790    4.4920 hc        1 ZSW      0.085667
     58 H222       -0.9550   -0.0360    5.8860 h1        1 ZSW      0.136000
     59 H223       -2.5220   -1.8620    6.2290 hc        1 ZSW      0.085667
     60 H231       -3.3860    2.4630    4.5630 ha        1 ZSW      0.007000
     61 H232        0.6190    0.5230   11.5390 h1        1 ZSW      0.108000
     62 H25        -0.9600   -1.4150    8.3270 h5        1 ZSW      0.286000
     63 H311       -3.6110    2.6110    5.1870 ha        1 ZSW      0.007000
     64 H312       -1.2830   -0.1260   10.2400 ha        1 ZSW      0.141000
     65 H33         0.6880   -1.0530    5.3870 hn        1 ZSW      0.282000
     66 C29        -1.2770    1.5560    8.9480 c2        1 ZSW     -0.155000
     67 C19        -4.9030    0.6440    4.5480 c1        1 ZSW     -0.136000
     68 C17        -2.2370    0.9910    7.9490 c2        1 ZSW      0.343000
     69 H322       -1.3750   -2.4110    4.9140 hc        1 ZSW      0.085667
     70 C14         0.0600   -3.3420    3.1170 c1        1 ZSW      0.076000
     71 C16         2.3690   -1.3740    8.1950 c2        1 ZSW      0.391000
@<TRIPOS>BOND
     1    1    2 1   
     2    1    3 1   
     3    2    4 1   
     4    2   34 1   
     5    3    7 1   
     6    3   33 1   
     7    3   35 1   
     8    4    9 1   
     9    4   36 1   
    10    5    6 1   
    11    6   11 1   
    12    6   38 1   
    13    7    9 1   
    14    7   14 1   
    15    8   10 1   
    16    8   12 1   
    17    8   71 1   
    18    9   20 1   
    19   10   21 1   
    20   10   37 1   
    21   11   12 1   
    22   11   32 1   
    23   13   43 1   
    24   13   44 1   
    25   13   70 1   
    26   14   24 1   
    27   14   28 1   
    28   15   51 1   
    29   15   55 1   
    30   15   56 1   
    31   15   67 1   
    32   16   17 1   
    33   16   28 1   
    34   16   52 1   
    35   16   58 1   
    36   17   57 1   
    37   17   59 1   
    38   17   69 1   
    39   18   26 1   
    40   18   31 1   
    41   18   62 1   
    42   19   23 1   
    43   19   32 1   
    44   19   49 1   
    45   19   61 1   
    46   20   39 1   
    47   20   40 1   
    48   21   42 1   
    49   21   47 1   
    50   22   25 1   
    51   22   45 1   
    52   22   46 1   
    53   23   64 1   
    54   23   66 1   
    55   24   48 1   
    56   24   53 1   
    57   25   41 1   
    58   25   65 1   
    59   26   71 1   
    60   27   68 1   
    61   29   71 1   
    62   30   68 1   
    63   50   66 1   
    64   54   67 1   
    65   60   63 1   
    66   66   68 1   
@<TRIPOS>SUBSTRUCTURE
     1 ZSW         1 TEMP              0 ****  ****    0 ROOT
