@<TRIPOS>MOLECULE
ZSW
   70    72     1     0     0
SMALL
bcc


@<TRIPOS>ATOM
      1 C1         -5.6640    3.1270    0.1360 ca        1 ZSW     -0.113000
      2 C2         -6.2860    2.0890   -0.5590 ca        1 ZSW     -0.127000
      3 C3         -4.2750    3.1680    0.2280 ca        1 ZSW     -0.098000
      4 C4         -5.5180    1.0830   -1.1390 ca        1 ZSW     -0.126000
      5 C5          0.0220   -1.5020   -2.4930 ca        1 ZSW     -0.114000
      6 C6          1.3880   -1.2480   -2.5030 ca        1 ZSW     -0.148000
      7 C7         -3.4980    2.1660   -0.3670 ca        1 ZSW     -0.084600
      8 C8          0.0080   -1.5670   -0.0530 ca        1 ZSW     -0.091600
      9 C9         -4.1210    1.1060   -1.0360 ca        1 ZSW     -0.106300
     10 C10        -0.6590   -1.6830   -1.2850 ca        1 ZSW     -0.176300
     11 C11         2.0790   -1.1710   -1.2840 ca        1 ZSW      0.105100
     12 C12         1.3850   -1.3150   -0.0600 ca        1 ZSW      0.076100
     13 C13        -4.8410   -3.8090    1.0450 c2        1 ZSW     -0.198000
     14 C15        -2.0050    2.3460   -0.3570 c         1 ZSW      0.645700
     15 C18         0.2750    4.0220    1.3830 c3        1 ZSW     -0.087400
     16 C20         0.0380    2.5490    1.0010 c3        1 ZSW      0.092700
     17 C22         0.7130    1.6660    2.0500 c3        1 ZSW     -0.120100
     18 C23         3.3350   -0.6200    1.0640 c3        1 ZSW      0.088400
     19 C25         4.1410   -1.1560   -0.1110 c3        1 ZSW      0.105100
     20 C26        -3.3200    0.0050   -1.6590 c3        1 ZSW      0.160100
     21 C27        -2.0880   -2.1080   -1.3090 c3        1 ZSW      0.187100
     22 C28        -4.2780   -1.7800   -0.2440 c3        1 ZSW      0.152000
     23 C31         5.4820   -0.4520   -0.2550 c3        1 ZSW     -0.066400
     24 N32        -1.3770    2.2340    0.8590 n         1 ZSW     -0.526900
     25 N33        -3.0290   -1.1040   -0.7040 n4        1 ZSW     -0.724400
     26 O37        -1.5090   -0.6780    1.5620 o         1 ZSW     -0.810300
     27 O35         7.4950    1.1280    1.0210 o         1 ZSW     -0.844300
     28 O36        -1.4310    2.6900   -1.4140 o         1 ZSW     -0.611100
     29 O34        -0.8400   -2.7730    1.8530 o         1 ZSW     -0.810300
     30 O38         8.8770   -0.6100    0.7620 o         1 ZSW     -0.844300
     31 O39         2.0450   -1.2410    1.1510 os        1 ZSW     -0.302900
     32 O40         3.4280   -0.9220   -1.3520 os        1 ZSW     -0.316900
     33 H1         -6.2690    3.9170    0.6050 ha        1 ZSW      0.139000
     34 H2         -7.3820    2.0630   -0.6480 ha        1 ZSW      0.136000
     35 H3         -3.7750    3.9920    0.7630 ha        1 ZSW      0.157000
     36 H4         -6.0110    0.2650   -1.6870 ha        1 ZSW      0.128000
     37 H5         -0.5180   -1.5760   -3.4480 ha        1 ZSW      0.117000
     38 H6          1.9380   -1.1090   -3.4430 ha        1 ZSW      0.150000
     39 H261       -3.8710   -0.4210   -2.5440 hx        1 ZSW      0.102200
     40 H262       -2.3220    0.4090   -2.0130 hx        1 ZSW      0.102200
     41 H271       -2.4320   -2.3180   -2.3600 hx        1 ZSW      0.087200
     42 H272       -2.1790   -3.0540   -0.6910 hx        1 ZSW      0.087200
     43 H131       -4.6890   -4.5030    1.8830 ha        1 ZSW      0.117000
     44 H132       -5.6850   -4.0500    0.3860 ha        1 ZSW      0.117000
     45 H14        -3.1930   -2.5420    1.5480 ha        1 ZSW      0.212000
     46 H281       -4.7540   -2.2820   -1.1330 hx        1 ZSW      0.075700
     47 H282       -4.9780   -0.9760    0.1320 hx        1 ZSW      0.075700
     48 H32        -1.7470    1.5850    1.5250 hn        1 ZSW      0.347500
     49 H291        6.8660   -2.0370    0.2810 hc        1 ZSW      0.024700
     50 H292        6.0820   -1.2080    1.6870 hc        1 ZSW      0.024700
     51 H181        1.3810    4.1510    1.5220 hc        1 ZSW      0.044200
     52 H182       -0.2150    4.2440    2.3660 hc        1 ZSW      0.044200
     53 H20         0.5420    2.3730    0.0000 h1        1 ZSW      0.071700
     54 H191        0.1620    4.6890   -0.6760 hc        1 ZSW      0.032367
     55 H192       -1.3310    4.9940    0.2910 hc        1 ZSW      0.032367
     56 H193        0.1370    6.0190    0.5620 hc        1 ZSW      0.032367
     57 H221        0.5490    0.5790    1.8280 hc        1 ZSW      0.057700
     58 H222        1.8100    1.8720    2.0450 hc        1 ZSW      0.057700
     59 H223        0.3130    1.8820    3.0700 hc        1 ZSW      0.057700
     60 H231        3.8250   -0.8800    2.0390 h1        1 ZSW      0.080700
     61 H232        3.1940    0.4900    0.9780 h1        1 ZSW      0.080700
     62 H25         4.2710   -2.2690   -0.0130 h1        1 ZSW      0.062700
     63 H311        5.8230   -0.5380   -1.3200 hc        1 ZSW      0.067200
     64 H312        5.3710    0.6420   -0.0270 hc        1 ZSW      0.067200
     65 H33        -2.5460   -0.6810    0.1630 hn        1 ZSW      0.522800
     66 C29         6.5160   -1.0480    0.6680 c3        1 ZSW     -0.203400
     67 C14        -4.0480   -2.7560    0.8650 c2        1 ZSW     -0.206200
     68 C16        -0.7890   -1.6930    1.2250 c         1 ZSW      0.912200
     69 C19        -0.2150    4.9840    0.3340 c3        1 ZSW     -0.091100
     70 C17         7.7240   -0.1000    0.8230 c         1 ZSW      0.912600
@<TRIPOS>BOND
     1    1    2 ar  
     2    1    3 ar  
     3    1   33 1   
     4    2    4 ar  
     5    2   34 1   
     6    3    7 ar  
     7    3   35 1   
     8    4    9 ar  
     9    4   36 1   
    10    5    6 ar  
    11    5   10 ar  
    12    5   37 1   
    13    6   11 ar  
    14    6   38 1   
    15    7    9 ar  
    16    7   14 1   
    17    8   10 ar  
    18    8   12 ar  
    19    8   68 1   
    20    9   20 1   
    21   10   21 1   
    22   11   12 ar  
    23   11   32 1   
    24   12   31 1   
    25   13   43 1   
    26   13   44 1   
    27   13   67 2   
    28   14   24 1   
    29   14   28 2   
    30   15   16 1   
    31   15   51 1   
    32   15   52 1   
    33   15   69 1   
    34   16   17 1   
    35   16   24 1   
    36   16   53 1   
    37   17   57 1   
    38   17   58 1   
    39   17   59 1   
    40   18   19 1   
    41   18   31 1   
    42   18   60 1   
    43   18   61 1   
    44   19   23 1   
    45   19   32 1   
    46   19   62 1   
    47   20   25 1   
    48   20   39 1   
    49   20   40 1   
    50   21   25 1   
    51   21   41 1   
    52   21   42 1   
    53   22   25 1   
    54   22   46 1   
    55   22   47 1   
    56   22   67 1   
    57   23   63 1   
    58   23   64 1   
    59   23   66 1   
    60   24   48 1   
    61   25   65 1   
    62   26   68 1   
    63   27   70 1   
    64   29   68 1   
    65   30   70 1   
    66   45   67 1   
    67   49   66 1   
    68   50   66 1   
    69   54   69 1   
    70   55   69 1   
    71   56   69 1   
    72   66   70 1   
@<TRIPOS>SUBSTRUCTURE
     1 ZSW         1 TEMP              0 ****  ****    0 ROOT
