@<TRIPOS>MOLECULE
ZSW
   70    55     1     0     0
SMALL
bcc


@<TRIPOS>ATOM
      1 C1         -3.3590   -1.1900   -4.0130 c1        1 ZSW     -0.140625
      2 C2         -4.1270   -2.0400   -3.1940 c1        1 ZSW     -0.140625
      3 C3         -2.4590   -0.2610   -3.4280 c1        1 ZSW     -0.140625
      4 C4         -4.0010   -1.9680   -1.7420 c1        1 ZSW     -0.140625
      5 C5          0.0460   -2.4470    1.3160 c1        1 ZSW     -0.140625
      6 C6          1.3370   -1.9890    1.1710 c1        1 ZSW     -0.140625
      7 C7         -2.3320   -0.1880   -1.9690 c1        1 ZSW     -0.072000
      8 C8         -0.5570   -0.3640    2.6300 c1        1 ZSW     -0.036000
      9 C9         -3.1080   -1.0470   -1.1510 c1        1 ZSW     -0.097000
     10 C10        -0.9460   -1.6310    2.0610 c1        1 ZSW     -0.036000
     11 C11         1.7100   -0.7620    1.7230 c1        1 ZSW     -0.036000
     12 C12         0.6900    0.0710    2.4860 c1        1 ZSW     -0.036000
     13 C13        -1.7180   -5.4520   -0.0160 c1        1 ZSW     -0.140625
     14 C14        -2.2550   -4.4730    0.6420 c1        1 ZSW     -0.140625
     15 C15        -1.6640    0.8750   -1.4050 c1        1 ZSW      0.340500
     16 C16        -1.4020    0.2470    3.5960 c1        1 ZSW      0.340500
     17 C17         7.0760    2.2550    1.4360 c1        1 ZSW      0.332000
     18 C19         2.1810    2.2930   -2.8280 c3        1 ZSW     -0.211000
     19 C18         0.8080    2.7270   -3.2720 c3        1 ZSW     -0.166000
     20 C20        -0.1640    2.6340   -2.1020 c3        1 ZSW      0.024000
     21 C22        -0.5710    3.9850   -1.7070 c3        1 ZSW     -0.247000
     22 C23         2.2310    2.0080    2.3280 c3        1 ZSW     -0.062000
     23 C25         3.3560    1.0410    2.2160 c3        1 ZSW     -0.007000
     24 C26        -3.0720   -0.9020    0.3800 c3        1 ZSW     -0.136000
     25 C27        -2.3310   -2.1330    2.2420 c1        1 ZSW     -0.070000
     26 C28        -2.2280   -3.0800    0.0890 c2        1 ZSW     -0.120000
     27 C29         5.8700    1.5480    2.2200 c2        1 ZSW     -0.232000
     28 C31         4.5530    1.7660    1.4500 c3        1 ZSW     -0.145000
     29 N32        -1.3100    1.8880   -2.4960 n2        1 ZSW     -0.334000
     30 N33        -2.9830   -2.2100    0.9720 n3        1 ZSW      0.012000
     31 O37        -2.2120    1.1320    3.2430 os        1 ZSW     -0.558000
     32 O35         7.8590    1.5530    0.6970 o         1 ZSW     -0.579500
     33 O36        -0.9890    1.1450   -0.2640 o         1 ZSW     -0.480000
     34 O34        -1.4120   -0.1800    4.7810 o         1 ZSW     -0.480000
     35 O38         7.2520    3.5060    1.5370 o         1 ZSW     -0.579500
     36 O39         1.0810    1.5370    2.8400 o         1 ZSW     -0.176000
     37 O40         3.0830   -0.1780    1.5470 o         1 ZSW     -0.201000
     38 H1         -3.4480   -1.2420   -5.0150 ha        1 ZSW      0.133000
     39 H2         -4.7690   -2.7020   -3.6120 ha        1 ZSW      0.133000
     40 H3         -2.0210    0.3950   -3.9790 ha        1 ZSW      0.133000
     41 H4         -4.4790   -2.5570   -1.2080 ha        1 ZSW      0.133000
     42 H5         -0.1930   -3.3860    1.0150 ha        1 ZSW      0.133000
     43 H6          1.9760   -2.5200    0.7290 ha        1 ZSW      0.133000
     44 H261       -2.3010   -0.3800    0.6370 h1        1 ZSW      0.200500
     45 H262       -3.9180   -0.4440    0.6950 h1        1 ZSW      0.200500
     46 H271       -2.8450   -1.5060    2.8480 ha        1 ZSW      0.148500
     47 H272       -2.3020   -3.0460    2.6580 ha        1 ZSW      0.148500
     48 H131       -1.2920   -5.2890   -0.8750 DU        1 ZSW      0.134000
     49 H132       -1.7440   -6.4350    0.3870 ha        1 ZSW      0.133000
     50 H14        -2.6930   -4.6480    1.5260 ha        1 ZSW      0.133000
     51 H281       -2.6500   -3.0710   -0.8440 h4        1 ZSW      0.164000
     52 H282       -1.3580   -2.7830    0.0340 h4        1 ZSW      0.164000
     53 H32        -2.0370    2.4730   -2.6290 hn        1 ZSW      0.266000
     54 H291        5.7900    1.9270    3.0990 ha        1 ZSW      0.064000
     55 H292        6.0550    0.5720    2.2940 ha        1 ZSW      0.064000
     56 H181        0.8460    3.6650   -3.5960 hc        1 ZSW      0.080000
     57 H182        0.4930    2.1200   -4.0230 hc        1 ZSW      0.080000
     58 H20         0.2620    2.2020   -1.3690 h1        1 ZSW      0.100000
     59 H191        2.1480    1.3040   -2.5480 hc        1 ZSW      0.076333
     60 H192        2.4760    2.8520   -2.0500 hc        1 ZSW      0.076333
     61 H193        2.8350    2.4070   -3.5970 hc        1 ZSW      0.076333
     62 H221        0.1020    4.3770   -1.2310 hc        1 ZSW      0.103333
     63 H222       -0.7720    4.5690   -2.5820 hc        1 ZSW      0.103333
     64 H223       -1.4000    3.9340   -1.1390 hc        1 ZSW      0.103333
     65 H231        2.0320    2.3790    1.3870 h1        1 ZSW      0.119500
     66 H232        2.5180    2.7250    2.8710 h1        1 ZSW      0.119500
     67 H25         3.6690    0.8190    3.1540 h1        1 ZSW      0.102000
     68 H311        4.3500    2.8000    1.3880 hc        1 ZSW      0.105500
     69 H312        4.6450    1.3600    0.4630 hc        1 ZSW      0.105500
     70 H33        -3.9070   -2.5850    1.0980 hn        1 ZSW      0.208000
@<TRIPOS>BOND
     1    1    3 1   
     2    1   38 1   
     3    2    4 1   
     4    2   39 1   
     5    3   40 1   
     6    4   41 1   
     7    5    6 1   
     8    5   42 1   
     9    6   43 1   
    10    7    9 1   
    11    8   10 1   
    12    9   24 1   
    13   11   12 1   
    14   13   14 1   
    15   13   49 1   
    16   14   50 1   
    17   15   33 1   
    18   16   34 1   
    19   17   32 1   
    20   17   35 1   
    21   18   19 1   
    22   18   59 1   
    23   18   60 1   
    24   18   61 1   
    25   19   20 1   
    26   19   56 1   
    27   19   57 1   
    28   20   21 1   
    29   20   29 1   
    30   20   58 1   
    31   21   62 1   
    32   21   63 1   
    33   21   64 1   
    34   22   23 1   
    35   22   36 1   
    36   22   65 1   
    37   22   66 1   
    38   23   28 1   
    39   23   37 1   
    40   23   67 1   
    41   24   30 1   
    42   24   44 1   
    43   24   45 1   
    44   25   46 1   
    45   25   47 1   
    46   26   30 1   
    47   26   51 1   
    48   26   52 1   
    49   27   28 1   
    50   27   54 1   
    51   27   55 1   
    52   28   68 1   
    53   28   69 1   
    54   29   53 1   
    55   30   70 1   
@<TRIPOS>SUBSTRUCTURE
     1 ZSW         1 TEMP              0 ****  ****    0 ROOT
