@<TRIPOS>MOLECULE
ZSW
   70    69     1     0     0
SMALL
bcc


@<TRIPOS>ATOM
      1 C1          0.4600   -2.2120    0.2210 c3        1 ZSW     -0.231000
      2 C2          1.8950   -1.9710    0.2520 c1        1 ZSW     -0.099000
      3 C3         -0.3970   -1.3030    1.0050 c2        1 ZSW     -0.073000
      4 C4          2.3890   -1.0280    1.1860 c2        1 ZSW     -0.241000
      5 C5          2.3000    1.5910    7.6930 c3        1 ZSW     -0.093000
      6 C6          1.2880    1.7890    8.7540 c2        1 ZSW     -0.167000
      7 C7          0.1400   -0.4040    1.8710 c2        1 ZSW     -0.160000
      8 C8          0.9360   -0.4050    6.9470 c2        1 ZSW     -0.130000
      9 C9          1.5740   -0.3050    2.0200 c2        1 ZSW      0.080000
     10 C10         1.9480    0.5920    6.6280 c2        1 ZSW     -0.034000
     11 C11         0.2300    0.9590    8.8810 c2        1 ZSW      0.025000
     12 C12         0.0860   -0.1760    7.9840 c2        1 ZSW      0.006000
     13 C14         0.3200   -4.7020    3.8380 c2        1 ZSW     -0.524000
     14 C15        -0.7640    0.5390    2.6010 c2        1 ZSW      0.354000
     15 C17        -1.2370    0.8590   13.4450 c2        1 ZSW      0.393000
     16 C18        -4.1490    0.3290    3.5440 c3        1 ZSW     -0.175000
     17 C20        -2.7550    0.7250    4.0670 c3        1 ZSW      0.019000
     18 C22        -2.7650    0.5830    5.5910 c3        1 ZSW     -0.238000
     19 C23        -1.6740   -1.0110    9.3320 c1        1 ZSW      0.117000
     20 C25        -1.3630    0.0000   10.3770 c3        1 ZSW     -0.147000
     21 C26         2.1620    0.5840    3.0840 c3        1 ZSW     -0.063000
     22 C27         2.5780    0.7190    5.4350 c2        1 ZSW     -0.091000
     23 C28         3.5230   -1.0910    4.2090 c3        1 ZSW     -0.128000
     24 C31        -0.7140   -0.6080   11.5450 c1        1 ZSW     -0.093000
     25 N32        -1.6920   -0.0320    3.4430 ns        1 ZSW     -0.375000
     26 N33         2.4210   -0.1540    4.3210 n3        1 ZSW     -0.228000
     27 O37        -0.4060   -1.9310    5.5790 oh        1 ZSW     -0.320000
     28 O35        -2.2380    1.3240   12.8520 o         1 ZSW     -0.512000
     29 O36        -0.7100    1.7740    2.4140 o         1 ZSW     -0.379000
     30 O34         1.6500   -2.5150    5.9430 o         1 ZSW     -0.326000
     31 O38        -0.9740    0.8600   14.6620 o         1 ZSW     -0.512000
     32 O39        -0.9840   -1.0620    8.2280 os        1 ZSW     -0.102000
     33 O40        -0.7510    1.2020    9.8140 os        1 ZSW     -0.211000
     34 H1          0.3430   -3.2680    0.6630 hc        1 ZSW      0.185500
     35 H2          0.1050   -2.2800   -0.8440 hc        1 ZSW      0.185500
     36 H3         -1.4870   -1.3860    0.8700 ha        1 ZSW      0.133000
     37 H4          3.4830   -0.9060    1.2470 ha        1 ZSW      0.142000
     38 H5          2.5160    2.5860    7.2130 hc        1 ZSW      0.102500
     39 H6          1.4350    2.6350    9.4410 ha        1 ZSW      0.157000
     40 H261        1.4460    1.4260    3.3110 h1        1 ZSW      0.100000
     41 H262        3.1090    1.0460    2.6720 h1        1 ZSW      0.100000
     42 H271        3.2800    1.5690    5.2900 h4        1 ZSW      0.109000
     43 H272        3.2570    1.2520    8.1860 hc        1 ZSW      0.102500
     44 H131        0.5550   -3.8850    4.5650 ha        1 ZSW      0.219500
     45 H132        3.6420   -1.6270    5.1880 h1        1 ZSW      0.084667
     46 H14         0.3140   -5.6870    4.3230 ha        1 ZSW      0.219500
     47 H281        4.4950   -0.5940    3.9390 h1        1 ZSW      0.084667
     48 H282        3.2690   -1.8440    3.4170 h1        1 ZSW      0.084667
     49 H32        -1.6310   -1.0020    3.6490 hn        1 ZSW      0.236000
     50 H291        0.5860   -0.3730   13.1930 hc        1 ZSW      0.100500
     51 H292        0.4590    1.1130   12.1210 hc        1 ZSW      0.100500
     52 H181       -4.3300   -0.7610    3.7290 hc        1 ZSW      0.083500
     53 H182       -3.6550    0.0110    1.4520 hc        1 ZSW      0.072667
     54 H20        -2.5830    1.8170    3.8150 h1        1 ZSW      0.127000
     55 H191       -4.1000    1.7120    1.8750 hc        1 ZSW      0.072667
     56 H192       -4.9060    0.9000    4.1440 hc        1 ZSW      0.083500
     57 H193       -5.3840    0.4360    1.7740 hc        1 ZSW      0.072667
     58 H221       -1.7640    0.8180    6.0290 hc        1 ZSW      0.087000
     59 H222       -3.5080    1.2990    6.0170 hc        1 ZSW      0.087000
     60 H223       -3.0570   -0.4510    5.8990 hc        1 ZSW      0.087000
     61 H231       -3.0630    0.7140    8.1970 ha        1 ZSW      0.002000
     62 H232       -3.2470    0.9990    8.7850 ha        1 ZSW      0.002000
     63 H25        -2.3360    0.4260   10.8350 h1        1 ZSW      0.245000
     64 H311       -3.9270    1.8070   11.3710 ha        1 ZSW      0.002000
     65 H312       -4.1860    1.7130   10.7500 ha        1 ZSW      0.002000
     66 H33        -1.0840   -1.3290    5.9240 ho        1 ZSW      0.244000
     67 C13         0.0960   -4.4460    2.5870 c1        1 ZSW      0.087000
     68 C29        -0.0770    0.2080   12.5080 c3        1 ZSW     -0.323000
     69 C19        -4.3300    0.6390    2.0820 c3        1 ZSW     -0.208000
     70 C16         0.8050   -1.6420    6.1530 c2        1 ZSW      0.390000
@<TRIPOS>BOND
     1    1    2 1   
     2    1    3 1   
     3    1   34 1   
     4    1   35 1   
     5    2    4 1   
     6    3    7 1   
     7    3   36 1   
     8    4    9 1   
     9    4   37 1   
    10    5    6 1   
    11    5   10 1   
    12    5   38 1   
    13    5   43 1   
    14    6   11 1   
    15    6   39 1   
    16    7    9 1   
    17    7   14 1   
    18    8   10 1   
    19    8   12 1   
    20    8   70 1   
    21    9   21 1   
    22   10   22 1   
    23   11   12 1   
    24   11   33 1   
    25   12   32 1   
    26   13   44 1   
    27   13   46 1   
    28   13   67 1   
    29   14   25 1   
    30   14   29 1   
    31   15   28 1   
    32   15   31 1   
    33   15   68 1   
    34   16   17 1   
    35   16   52 1   
    36   16   56 1   
    37   16   69 1   
    38   17   18 1   
    39   17   25 1   
    40   17   54 1   
    41   18   58 1   
    42   18   59 1   
    43   18   60 1   
    44   19   20 1   
    45   19   32 1   
    46   20   24 1   
    47   20   33 1   
    48   20   63 1   
    49   21   26 1   
    50   21   40 1   
    51   21   41 1   
    52   22   26 1   
    53   22   42 1   
    54   23   26 1   
    55   23   45 1   
    56   23   47 1   
    57   23   48 1   
    58   24   68 1   
    59   25   49 1   
    60   27   66 1   
    61   27   70 1   
    62   30   70 1   
    63   50   68 1   
    64   51   68 1   
    65   53   69 1   
    66   55   69 1   
    67   57   69 1   
    68   61   62 1   
    69   64   65 1   
@<TRIPOS>SUBSTRUCTURE
     1 ZSW         1 TEMP              0 ****  ****    0 ROOT
