@<TRIPOS>MOLECULE
ZT0
   60    54     1     0     0
SMALL
bcc


@<TRIPOS>ATOM
      1 C1         -0.0460   -2.4710   -3.5590 c1        1 ZT0     -0.062500
      2 C2          1.3290   -2.6250   -3.5560 c1        1 ZT0     -0.062500
      3 C3         -0.7400   -2.2670   -2.3290 c1        1 ZT0     -0.062500
      4 C4          2.0250   -2.5810   -2.3700 c1        1 ZT0     -0.062500
      5 C5          4.7680    1.4640   -0.4240 c1        1 ZT0     -0.059500
      6 C6         -5.5550   -1.2050    1.1170 c1        1 ZT0     -0.033500
      7 C7         -4.9510    0.1640   -0.7580 c1        1 ZT0     -0.062500
      8 C8          5.0850    2.8160   -0.3910 c1        1 ZT0     -0.081500
      9 C9         -6.8850   -0.9630    0.8610 c1        1 ZT0     -0.099500
     10 C10        -6.2750    0.4010   -1.0080 c1        1 ZT0     -0.062500
     11 C11        -0.0380   -2.2230   -1.1400 cg        1 ZT0     -0.084200
     12 C12         4.6050    1.4490    2.0030 cg        1 ZT0     -0.020200
     13 C13        -4.5800   -0.6400    0.3060 c1        1 ZT0     -0.130100
     14 C14         1.3340   -2.3780   -1.1440 c1        1 ZT0     -0.068100
     15 C15         4.5270    0.7720    0.7640 c1        1 ZT0     -0.116100
     16 C16         5.1630    3.4980    0.8540 c1        1 ZT0      0.059600
     17 C17         4.9250    2.8180    2.0360 c1        1 ZT0      0.058600
     18 C18        -7.2460   -0.1640   -0.1960 c1        1 ZT0      0.120600
     19 C19        -0.9420   -1.8880    0.0540 c         1 ZT0      0.626300
     20 C20         4.4560    1.2880    3.5220 c         1 ZT0      0.862800
     21 C21         5.3490    5.0070    2.5550 c3        1 ZT0      0.316200
     22 C22         2.2910    0.1200   -0.4000 c3        1 ZT0      0.072100
     23 C23        -9.3780    0.7320   -0.6170 c3        1 ZT0      0.111700
     24 C24        -3.0980   -0.6690    0.6820 c3        1 ZT0      0.098100
     25 C25         2.4450   -2.1870   -0.0730 c3        1 ZT0      0.103900
     26 C26         4.1640   -0.7370    0.7150 c3        1 ZT0      0.132900
     27 N27        -2.3940   -1.6510   -0.1540 n         1 ZT0     -0.537900
     28 N28         3.1840   -0.9650   -0.3470 n4        1 ZT0     -0.670400
     29 O29         3.3140    1.2220    4.0310 o         1 ZT0     -0.813800
     30 O30        -0.4710   -1.8490    1.1880 o         1 ZT0     -0.670100
     31 O31         5.4580    1.0850    4.2210 o         1 ZT0     -0.813800
     32 O32         5.3150    4.8850    1.1710 os        1 ZT0     -0.321400
     33 O33         5.0620    3.7470    3.1100 os        1 ZT0     -0.289400
     34 O34        -8.6110   -0.4060   -0.5500 os        1 ZT0     -0.307400
     35 H1         -0.5210   -2.3460   -4.4170 ha        1 ZT0      0.099000
     36 H2          1.8170   -2.7690   -4.4150 ha        1 ZT0      0.099000
     37 H3         -1.6860   -2.1600   -2.3270 ha        1 ZT0      0.099000
     38 H4          3.0300   -2.7480   -2.3650 ha        1 ZT0      0.099000
     39 H5          4.7140    0.9940   -1.2840 ha        1 ZT0      0.069500
     40 H8          5.2510    3.3140   -1.2480 ha        1 ZT0      0.095500
     41 H6         -5.3040   -1.7590    1.8510 ha        1 ZT0      0.076500
     42 H9         -7.5620   -1.3530    1.4230 ha        1 ZT0      0.096500
     43 H7         -4.2460    0.5770   -1.3490 ha        1 ZT0      0.099000
     44 H10        -6.5250    0.9410   -1.7220 ha        1 ZT0      0.099000
     45 H241       -2.7110    0.2120    0.5400 h1        1 ZT0      0.072200
     46 H242       -3.0010   -0.9340    1.6870 h1        1 ZT0      0.072200
     47 H251        2.0140   -2.1250    0.8590 hx        1 ZT0      0.133700
     48 H252        3.0930   -2.9960   -0.1010 hx        1 ZT0      0.133700
     49 H261        3.7960   -1.0020    1.5480 hx        1 ZT0      0.106200
     50 H262        4.9860   -1.2720    0.5300 hx        1 ZT0      0.106200
     51 H27        -2.8710   -2.1760   -0.7600 hn        1 ZT0      0.319500
     52 H211        6.2800    5.3130    2.8530 h2        1 ZT0      0.072700
     53 H212        4.7160    5.6200    2.8290 h2        1 ZT0      0.072700
     54 H221        1.6250   -0.0420   -1.0810 hx        1 ZT0      0.104367
     55 H222        1.8380    0.2230    0.4990 hx        1 ZT0      0.104367
     56 H223        2.8090    0.9870   -0.6260 hx        1 ZT0      0.104367
     57 H231       -9.0930    1.2650   -1.3560 h1        1 ZT0      0.047367
     58 H232      -10.3920    0.4650   -0.7450 h1        1 ZT0      0.047367
     59 H233       -9.2800    1.2240    0.1810 h1        1 ZT0      0.047367
     60 H28         3.6340   -1.0480   -1.1810 hn        1 ZT0      0.453800
@<TRIPOS>BOND
     1    1    3 3   
     2    1   35 1   
     3    2    4 3   
     4    2   36 1   
     5    3   37 1   
     6    4   38 1   
     7    5   15 3   
     8    5   39 1   
     9    6   13 3   
    10    6   41 1   
    11    7   10 3   
    12    7   43 1   
    13    8   16 3   
    14    8   40 1   
    15    9   18 3   
    16    9   42 1   
    17   10   44 1   
    18   11   14 3   
    19   11   19 1   
    20   12   17 3   
    21   12   20 1   
    22   13   24 1   
    23   14   25 1   
    24   15   26 1   
    25   16   32 1   
    26   17   33 1   
    27   18   34 1   
    28   19   27 1   
    29   19   30 2   
    30   20   29 1   
    31   20   31 1   
    32   21   32 1   
    33   21   33 1   
    34   21   52 1   
    35   21   53 1   
    36   22   28 1   
    37   22   54 1   
    38   22   55 1   
    39   22   56 1   
    40   23   34 1   
    41   23   57 1   
    42   23   58 1   
    43   23   59 1   
    44   24   27 1   
    45   24   45 1   
    46   24   46 1   
    47   25   28 1   
    48   25   47 1   
    49   25   48 1   
    50   26   28 1   
    51   26   49 1   
    52   26   50 1   
    53   27   51 1   
    54   28   60 1   
@<TRIPOS>SUBSTRUCTURE
     1 ZT0         1 TEMP              0 ****  ****    0 ROOT
