@<TRIPOS>MOLECULE
ZT0
   60    63     1     0     0
SMALL
bcc


@<TRIPOS>ATOM
      1 C1          1.4610   -4.3230   -2.0760 ca        1 ZT0     -0.129000
      2 C2          0.1490   -4.7960   -2.1090 ca        1 ZT0     -0.120000
      3 C3          1.8580   -3.4470   -1.0680 ca        1 ZT0     -0.100000
      4 C4         -0.7630   -4.3940   -1.1360 ca        1 ZT0     -0.126000
      5 C5         -4.5150    0.3600    0.9460 ca        1 ZT0     -0.133000
      6 C6          3.1930    1.7220   -0.0170 ca        1 ZT0     -0.082500
      7 C7          4.5200    0.4410    1.5490 ca        1 ZT0     -0.082500
      8 C8         -5.2910    1.4040    0.4080 ca        1 ZT0     -0.092000
      9 C9          4.3430    2.3040   -0.5340 ca        1 ZT0     -0.186000
     10 C10         5.6870    1.0160    1.0450 ca        1 ZT0     -0.186000
     11 C11         0.9430   -3.0430   -0.0900 ca        1 ZT0     -0.116600
     12 C12        -2.5270    1.0340   -0.3110 ca        1 ZT0     -0.144600
     13 C13         3.2750    0.7900    1.0280 ca        1 ZT0     -0.153300
     14 C14        -0.3750   -3.5150   -0.1170 ca        1 ZT0     -0.048300
     15 C15        -3.1760    0.1710    0.6060 ca        1 ZT0     -0.050300
     16 C16        -4.6550    2.2380   -0.4850 ca        1 ZT0      0.053100
     17 C17        -3.2900    2.0590   -0.8400 ca        1 ZT0      0.105100
     18 C18         5.5950    1.9460    0.0040 ca        1 ZT0      0.125100
     19 C19         1.4220   -2.1320    0.9970 c         1 ZT0      0.661700
     20 C21        -4.0870    3.8710   -1.9700 c3        1 ZT0      0.320200
     21 C22        -3.6510   -2.7500    0.2220 c3        1 ZT0      0.151100
     22 C25        -1.3680   -3.1230    0.9430 c3        1 ZT0      0.204100
     23 C26        -2.4010   -0.9440    1.2560 c3        1 ZT0      0.200100
     24 N27         1.3980   -0.7820    0.7200 n         1 ZT0     -0.555900
     25 N28        -2.3530   -2.1590    0.4520 n3        1 ZT0     -0.752600
     26 O29        -0.1720    1.6210   -0.3180 o         1 ZT0     -0.499000
     27 O30         1.7800   -2.5740    2.1090 o         1 ZT0     -0.613100
     28 O31        -0.7010   -0.1690   -1.4240 oh        1 ZT0     -0.585100
     29 O32        -5.1660    3.3370   -1.1670 os        1 ZT0     -0.328900
     30 O33        -2.9230    3.0360   -1.7540 os        1 ZT0     -0.318900
     31 O34         6.6770    2.5800   -0.5780 os        1 ZT0     -0.328900
     32 H1          2.1820   -4.6400   -2.8440 ha        1 ZT0      0.137000
     33 H2         -0.1670   -5.4880   -2.9040 ha        1 ZT0      0.133000
     34 H3          2.8930   -3.0730   -1.0360 ha        1 ZT0      0.144000
     35 H4         -1.7960   -4.7710   -1.1630 ha        1 ZT0      0.131000
     36 H5         -4.9890   -0.3280    1.6640 ha        1 ZT0      0.147000
     37 H8         -6.3430    1.5430    0.6890 ha        1 ZT0      0.162000
     38 H9          4.2940    3.0360   -1.3510 ha        1 ZT0      0.142500
     39 H7          4.5880   -0.2950    2.3650 ha        1 ZT0      0.149500
     40 H10         6.6600    0.7330    1.4690 ha        1 ZT0      0.142500
     41 H251       -1.8780   -4.0670    1.3010 h1        1 ZT0      0.058700
     42 H252       -0.8060   -2.7070    1.8310 h1        1 ZT0      0.058700
     43 H261       -1.3380   -0.5920    1.4120 h1        1 ZT0      0.057200
     44 H262       -2.8480   -1.1390    2.2770 h1        1 ZT0      0.057200
     45 H27         1.1790   -0.4800   -0.2050 hn        1 ZT0      0.333500
     46 H211       -4.3750    3.8050   -3.0470 h2        1 ZT0      0.080700
     47 H212       -3.8530    4.9050   -1.6140 h2        1 ZT0      0.080700
     48 H221       -4.3290   -1.9800   -0.2330 h1        1 ZT0      0.035367
     49 H222       -3.5360   -3.6020   -0.4990 h1        1 ZT0      0.035367
     50 H223       -4.1360   -3.1390    1.1600 h1        1 ZT0      0.035367
     51 H231        8.6580    2.8730   -0.6580 h1        1 ZT0      0.043033
     52 H232        8.0200    2.5220    1.0310 h1        1 ZT0      0.043033
     53 H233        8.1710    1.1620   -0.1910 h1        1 ZT0      0.043033
     54 H28        -1.4350   -0.7870   -1.5640 ho        1 ZT0      0.456000
     55 C24         2.0140    0.1920    1.5840 c3        1 ZT0      0.133300
     56 H6          2.2030    1.9930   -0.4230 ha        1 ZT0      0.149500
     57 C23         7.9550    2.2490   -0.0500 c3        1 ZT0      0.113700
     58 H241        2.2250   -0.2850    2.5840 h1        1 ZT0      0.069700
     59 H242        1.2630    1.0260    1.7320 h1        1 ZT0      0.069700
     60 C20        -1.0990    0.8810   -0.6510 c         1 ZT0      0.667700
@<TRIPOS>BOND
     1    1    2 ar  
     2    1    3 ar  
     3    1   32 1   
     4    2    4 ar  
     5    2   33 1   
     6    3   11 ar  
     7    3   34 1   
     8    4   14 ar  
     9    4   35 1   
    10    5    8 ar  
    11    5   15 ar  
    12    5   36 1   
    13    6    9 ar  
    14    6   13 ar  
    15    6   56 1   
    16    7   10 ar  
    17    7   13 ar  
    18    7   39 1   
    19    8   16 ar  
    20    8   37 1   
    21    9   18 ar  
    22    9   38 1   
    23   10   18 ar  
    24   10   40 1   
    25   11   14 ar  
    26   11   19 1   
    27   12   15 ar  
    28   12   17 ar  
    29   12   60 1   
    30   13   55 1   
    31   14   22 1   
    32   15   23 1   
    33   16   17 ar  
    34   16   29 1   
    35   17   30 1   
    36   18   31 1   
    37   19   24 1   
    38   19   27 2   
    39   20   29 1   
    40   20   30 1   
    41   20   46 1   
    42   20   47 1   
    43   21   25 1   
    44   21   48 1   
    45   21   49 1   
    46   21   50 1   
    47   22   25 1   
    48   22   41 1   
    49   22   42 1   
    50   23   25 1   
    51   23   43 1   
    52   23   44 1   
    53   24   45 1   
    54   24   55 1   
    55   26   60 2   
    56   28   54 1   
    57   28   60 1   
    58   31   57 1   
    59   51   57 1   
    60   52   57 1   
    61   53   57 1   
    62   55   58 1   
    63   55   59 1   
@<TRIPOS>SUBSTRUCTURE
     1 ZT0         1 TEMP              0 ****  ****    0 ROOT
