@<TRIPOS>MOLECULE
ZT0
   61    59     1     0     0
SMALL
bcc


@<TRIPOS>ATOM
      1 C1          3.0610   -0.0200   -1.0710 c1        1 ZT0      0.489000
      2 C2          2.2170   -0.4550   -0.1200 c2        1 ZT0     -0.497000
      3 C3         -0.7840    0.3230    1.0590 c3        1 ZT0     -0.198000
      4 C4          2.1660    0.1580    1.1210 c1        1 ZT0     -0.056000
      5 C5          3.1750   -2.9810    7.0940 ca        1 ZT0     -0.137000
      6 C6         -6.0730   -0.5400    2.0880 c3        1 ZT0     -0.035000
      7 C7         -7.1220    3.4140    5.2730 c1        1 ZT0     -0.141000
      8 C8          3.1490   -4.0630    7.9810 ca        1 ZT0     -0.055000
      9 C9         -6.3400    0.5450    2.9830 c1        1 ZT0     -0.130000
     10 C10        -6.8630    2.4910    4.5530 c1        1 ZT0     -0.085000
     11 C11         0.0110    0.1460    2.2970 c2        1 ZT0     -0.137000
     12 C12         0.7490   -3.0100    6.9390 ca        1 ZT0     -0.168000
     13 C13        -4.8000   -1.2450    2.4050 c2        1 ZT0     -0.157000
     14 C14         1.3620   -0.0350    2.2610 c2        1 ZT0     -0.087000
     15 C15         1.9950   -2.4520    6.5770 ca        1 ZT0     -0.076000
     16 C16         1.9290   -4.6040    8.3640 ca        1 ZT0     -0.088000
     17 C17         0.7160   -4.0730    7.8600 ca        1 ZT0      0.136000
     18 C18        -6.5810    1.4560    3.7270 c1        1 ZT0     -0.054000
     19 C19        -0.7300    0.2760    3.5910 c2        1 ZT0      0.342000
     20 C21         1.1330   -6.0610   10.1060 c1        1 ZT0      0.021000
     21 C22         2.7320   -2.5630    3.7620 c3        1 ZT0     -0.189000
     22 C25         2.2040   -0.1740    3.5080 c3        1 ZT0     -0.075000
     23 C26         2.0930   -1.2150    5.7370 c3        1 ZT0     -0.087000
     24 N27        -2.0860    0.1590    3.6090 n         1 ZT0     -0.386000
     25 N28         1.9090   -1.4410    4.2630 n4        1 ZT0     -0.002000
     26 O29        -1.5420   -2.3640    7.1840 oh        1 ZT0     -0.312000
     27 O30        -0.1230    0.4890    4.6740 o         1 ZT0     -0.459000
     28 O31        -0.7010   -2.2320    5.1450 o         1 ZT0     -0.394000
     29 O32         1.9750   -5.7450    9.2160 os        1 ZT0      0.001000
     30 O33        -0.4160   -4.6880    8.3120 oh        1 ZT0     -0.248000
     31 O34        -3.8730   -0.8020    5.9420 o         1 ZT0     -0.352000
     32 H1         -1.3510    1.2890    1.0940 hc        1 ZT0      0.101333
     33 H2         -0.1390    0.3400    0.1460 hc        1 ZT0      0.101333
     34 H3         -1.5210   -0.5150    0.9430 hc        1 ZT0      0.101333
     35 H4          1.5610   -1.3190   -0.3850 ha        1 ZT0      0.180000
     36 H5          4.1480   -2.5420    6.8200 ha        1 ZT0      0.151000
     37 H8          4.0850   -4.4870    8.3820 ha        1 ZT0      0.180000
     38 H9         -6.0610   -0.1500    1.0290 hc        1 ZT0      0.122000
     39 H7         -7.3550    4.2340    5.9070 ha        1 ZT0      0.239000
     40 H10        -4.6040   -1.4040    3.4810 ha        1 ZT0      0.131000
     41 H251        1.9850    0.7120    4.1820 hx        1 ZT0      0.164000
     42 H252        3.3020   -0.1630    3.2490 hx        1 ZT0      0.164000
     43 H261        1.2920   -0.4760    6.0530 hx        1 ZT0      0.161500
     44 H262        3.1040   -0.7360    5.8810 hx        1 ZT0      0.161500
     45 H27        -2.6070   -0.0600    2.7950 hn        1 ZT0      0.247000
     46 H211        0.2230   -5.4830   10.3490 ha        1 ZT0      0.079000
     47 H212       -1.2100   -4.2290    7.9910 ho        1 ZT0      0.261000
     48 H221        2.5840   -2.6620    2.6540 hx        1 ZT0      0.133667
     49 H222        2.4150   -3.5130    4.2710 hx        1 ZT0      0.133667
     50 H223        3.8150   -2.3690    3.9820 hx        1 ZT0      0.133667
     51 H231       -2.3160   -1.9950    6.7080 ho        1 ZT0      0.291000
     52 H232       -5.5390    0.3820    5.7990 h4        1 ZT0      0.097500
     53 H233       -5.3070   -0.6130    7.3920 h4        1 ZT0      0.097500
     54 H28         0.9040   -1.6680    4.1130 hn        1 ZT0      0.282000
     55 C24        -3.9570   -1.6860    1.4730 c2        1 ZT0     -0.238000
     56 H6         -6.9200   -1.2870    2.1520 hc        1 ZT0      0.122000
     57 C23        -4.9240   -0.3360    6.3870 c2        1 ZT0      0.167000
     58 H241       -4.1290   -1.5430    0.3970 ha        1 ZT0      0.117000
     59 H242       -2.5570    0.1590    4.4860 hn        1 ZT0      0.247000
     60 H272       -3.0480   -2.2470    1.7270 ha        1 ZT0      0.117000
     61 C20        -0.4940   -2.5040    6.3370 c2        1 ZT0      0.370000
@<TRIPOS>BOND
     1    1    2 1   
     2    2    4 1   
     3    2   35 1   
     4    3   11 1   
     5    3   32 1   
     6    3   33 1   
     7    3   34 1   
     8    4   14 1   
     9    5    8 1   
    10    5   15 1   
    11    5   36 1   
    12    6    9 1   
    13    6   13 1   
    14    6   38 1   
    15    6   56 1   
    16    7   10 1   
    17    7   39 1   
    18    8   16 1   
    19    8   37 1   
    20    9   18 1   
    21   10   18 1   
    22   11   14 1   
    23   11   19 1   
    24   12   15 1   
    25   12   17 1   
    26   12   61 1   
    27   13   40 1   
    28   13   55 1   
    29   14   22 1   
    30   15   23 1   
    31   16   17 1   
    32   16   29 1   
    33   17   30 1   
    34   19   24 1   
    35   19   27 1   
    36   20   29 1   
    37   20   46 1   
    38   21   25 1   
    39   21   48 1   
    40   21   49 1   
    41   21   50 1   
    42   22   25 1   
    43   22   41 1   
    44   22   42 1   
    45   23   25 1   
    46   23   43 1   
    47   23   44 1   
    48   24   45 1   
    49   24   59 1   
    50   25   54 1   
    51   26   51 1   
    52   26   61 1   
    53   28   61 1   
    54   30   47 1   
    55   31   57 1   
    56   52   57 1   
    57   53   57 1   
    58   55   58 1   
    59   55   60 1   
@<TRIPOS>SUBSTRUCTURE
     1 ZT0         1 TEMP              0 ****  ****    0 ROOT
