@<TRIPOS>MOLECULE
ZT0
   61    60     1     0     0
SMALL
bcc


@<TRIPOS>ATOM
      1 C1         -0.4760    0.0230   -0.0770 c3        1 ZT0     -0.081000
      2 C2          1.9050    0.4860    0.5690 c1        1 ZT0      0.264000
      3 C3         -1.7050   -0.3430    0.7730 c3        1 ZT0     -0.145000
      4 C4          0.6710    0.1460    0.9060 c2        1 ZT0     -0.416000
      5 C5          3.8910   -2.8000    5.8970 ca        1 ZT0     -0.144000
      6 C6         -5.8270   -1.2280    6.9090 c3        1 ZT0      0.052000
      7 C7         -5.4020    3.3480    5.1890 c2        1 ZT0     -0.171000
      8 C8          4.4160   -3.9390    6.5190 ca        1 ZT0     -0.050000
      9 C9         -5.6040   -0.0520    6.1150 c1        1 ZT0     -0.144000
     10 C10        -5.2760    2.1090    4.7030 c2        1 ZT0     -0.081000
     11 C11        -1.1940   -0.4150    2.1800 c2        1 ZT0     -0.081000
     12 C12         1.6440   -3.3670    6.6500 ca        1 ZT0     -0.180000
     13 C13        -4.6710   -2.0750    7.0150 c1        1 ZT0     -0.178000
     14 C14         0.1380   -0.1470    2.2410 c2        1 ZT0     -0.061000
     15 C15         2.5310   -2.5090    5.9580 ca        1 ZT0     -0.070000
     16 C16         3.5630   -4.7930    7.1970 ca        1 ZT0     -0.097000
     17 C17         2.1710   -4.5220    7.2700 ca        1 ZT0      0.155000
     18 C18        -5.4460    0.9430    5.4660 c1        1 ZT0     -0.141000
     19 C19        -2.0520   -0.7560    3.3410 c2        1 ZT0      0.347000
     20 C21         3.7910   -6.5840    8.7900 c1        1 ZT0      0.020000
     21 C22         2.0340   -2.2670    3.0770 c3        1 ZT0     -0.194000
     22 C25         0.9840   -0.0690    3.4600 c3        1 ZT0     -0.067000
     23 C26         2.0960   -1.2260    5.3150 c3        1 ZT0     -0.076000
     24 N27        -3.3610   -0.4190    3.3220 nt        1 ZT0     -0.382000
     25 N28         1.3100   -1.4150    4.0470 nx        1 ZT0     -0.009000
     26 O29        -0.6640   -3.9090    7.1660 o         1 ZT0     -0.375000
     27 O30        -1.5410   -1.3540    4.3320 o         1 ZT0     -0.479000
     28 O31        -0.2530   -1.9020    6.3630 oh        1 ZT0     -0.332000
     29 O32         4.1380   -5.9820    7.7330 os        1 ZT0      0.002000
     30 O33         1.4650   -5.4440    7.9800 oh        1 ZT0     -0.255000
     31 O34        -4.5830    1.4270    0.2360 oh        1 ZT0     -0.136000
     32 H1         -2.5100    0.4330    0.6750 hc        1 ZT0      0.130000
     33 H2         -0.6360    0.9910   -0.6140 hc        1 ZT0      0.114000
     34 H3         -2.1360   -1.3270    0.4580 hc        1 ZT0      0.130000
     35 H4         -0.2600   -0.7730   -0.8330 hc        1 ZT0      0.114000
     36 H5          4.5820   -2.1270    5.3620 ha        1 ZT0      0.150000
     37 H8          5.4950   -4.1650    6.4680 ha        1 ZT0      0.180000
     38 H9         -6.6820   -1.8210    6.4620 hc        1 ZT0      0.128500
     39 H7         -5.2650    4.2340    4.5560 ha        1 ZT0      0.126000
     40 H10        -5.6510    3.5550    6.2390 ha        1 ZT0      0.126000
     41 H251        0.4260    0.5040    4.2610 hx        1 ZT0      0.146500
     42 H252        1.9550    0.4570    3.2330 hx        1 ZT0      0.146500
     43 H261        1.4510   -0.6340    6.0320 hx        1 ZT0      0.150000
     44 H262        3.0020   -0.6030    5.0570 hx        1 ZT0      0.150000
     45 H27        -3.7790    0.0740    2.5490 hn        1 ZT0      0.267000
     46 H211        0.5040   -5.2950    7.9210 ho        1 ZT0      0.281000
     47 H212        2.9740   -6.2690    9.4630 ha        1 ZT0      0.083000
     48 H221        1.4140   -2.3770    2.1470 hx        1 ZT0      0.138333
     49 H222        3.0190   -1.7960    2.8170 hx        1 ZT0      0.138333
     50 H223        2.2140   -3.2770    3.5340 hx        1 ZT0      0.138333
     51 H231       -5.0290    1.9330    3.6370 ha        1 ZT0      0.123000
     52 H232       -6.1660    1.1130    1.5300 ha        1 ZT0      0.051000
     53 H233       -5.2010    1.8510   -0.4010 ho        1 ZT0      0.184000
     54 H28         0.4020   -1.8710    4.2960 hn        1 ZT0      0.296000
     55 C24        -3.7220   -2.7940    7.1250 c1        1 ZT0     -0.205000
     56 H6         -6.1510   -0.9130    7.9470 hc        1 ZT0      0.128500
     57 C23        -5.0790    0.9960    1.3340 c1        1 ZT0     -0.071000
     58 H241       -1.2320   -1.8750    6.4120 ho        1 ZT0      0.295000
     59 H242       -3.9220   -0.6050    4.1240 hn        1 ZT0      0.267000
     60 H272       -2.8920   -3.4520    7.2310 ha        1 ZT0      0.239000
     61 C20         0.2010   -3.1210    6.7550 c2        1 ZT0      0.355000
@<TRIPOS>BOND
     1    1    3 1   
     2    1    4 1   
     3    1   33 1   
     4    1   35 1   
     5    2    4 1   
     6    3   11 1   
     7    3   32 1   
     8    3   34 1   
     9    4   14 1   
    10    5    8 1   
    11    5   15 1   
    12    5   36 1   
    13    6    9 1   
    14    6   13 1   
    15    6   38 1   
    16    6   56 1   
    17    7   10 1   
    18    7   39 1   
    19    7   40 1   
    20    8   16 1   
    21    8   37 1   
    22    9   18 1   
    23   10   18 1   
    24   10   51 1   
    25   11   14 1   
    26   11   19 1   
    27   12   15 1   
    28   12   17 1   
    29   12   61 1   
    30   13   55 1   
    31   14   22 1   
    32   15   23 1   
    33   16   17 1   
    34   16   29 1   
    35   17   30 1   
    36   19   24 1   
    37   19   27 1   
    38   20   29 1   
    39   20   47 1   
    40   21   25 1   
    41   21   48 1   
    42   21   49 1   
    43   21   50 1   
    44   22   25 1   
    45   22   41 1   
    46   22   42 1   
    47   23   25 1   
    48   23   43 1   
    49   23   44 1   
    50   24   45 1   
    51   24   59 1   
    52   25   54 1   
    53   26   61 1   
    54   28   58 1   
    55   28   61 1   
    56   30   46 1   
    57   31   53 1   
    58   31   57 1   
    59   52   57 1   
    60   55   60 1   
@<TRIPOS>SUBSTRUCTURE
     1 ZT0         1 TEMP              0 ****  ****    0 ROOT
