@<TRIPOS>MOLECULE
ZT2
   34    31     1     0     0
SMALL
bcc


@<TRIPOS>ATOM
      1 C1          3.6200   -0.1560    3.2430 c1        1 ZT2     -0.070750
      2 C2          4.7250   -0.4090    2.4220 c1        1 ZT2     -0.070750
      3 C3          2.4170    0.2630    2.6810 c1        1 ZT2     -0.070750
      4 C4         -1.1710   -1.4580   -0.2050 c1        1 ZT2     -0.035500
      5 C5          4.6220   -0.2420    1.0430 c1        1 ZT2     -0.070750
      6 C6         -2.1720   -2.1110   -0.9150 c1        1 ZT2     -0.100500
      7 C7          2.3120    0.4310    1.3000 cg        1 ZT2     -0.044300
      8 C8         -1.2230   -0.0740   -0.0380 ch        1 ZT2     -0.118300
      9 C9         -2.2750    0.6520   -0.5830 cg        1 ZT2      0.002800
     10 C10         3.4180    0.1780    0.4790 c1        1 ZT2     -0.069100
     11 C11        -3.2320   -1.3800   -1.4650 c1        1 ZT2      0.042600
     12 C12        -3.2840   -0.0050   -1.2990 c1        1 ZT2      0.031600
     13 C13         1.1090    0.6380    0.4120 ce        1 ZT2     -0.197900
     14 C14         1.5890    0.7780   -0.9740 c         1 ZT2      0.590300
     15 C15        -0.1790    0.6250    0.8070 cf        1 ZT2      0.078300
     16 C16        -2.9080    1.9870   -0.2670 c         1 ZT2      0.867800
     17 C17         3.0940    0.7220   -0.9510 c3        1 ZT2     -0.175300
     18 C18        -5.1390   -0.6310   -2.4800 c3        1 ZT2      0.317200
     19 O19        -2.7930    2.9450   -1.0750 o         1 ZT2     -0.809800
     20 O20         0.8960    0.9720   -1.9530 o         1 ZT2     -0.553100
     21 O21        -3.5440    2.1430    0.8070 o         1 ZT2     -0.809800
     22 O22        -4.3860   -1.7780   -2.2040 os        1 ZT2     -0.339400
     23 O23        -4.4690    0.4710   -1.9360 os        1 ZT2     -0.291400
     24 H1          3.6930   -0.2730    4.2090 ha        1 ZT2      0.073500
     25 H2          5.5680   -0.7030    2.8170 ha        1 ZT2      0.073500
     26 H3          1.6460    0.4400    3.2550 ha        1 ZT2      0.073500
     27 H5          5.3930   -0.4180    0.4710 ha        1 ZT2      0.073500
     28 H4         -0.4370   -1.9680    0.1840 ha        1 ZT2      0.088500
     29 H6         -2.1350   -3.0800   -1.0320 ha        1 ZT2      0.078500
     30 H15        -0.4350    1.0450    1.6500 ha        1 ZT2      0.191000
     31 H171        3.4670    1.5550   -1.3050 hc        1 ZT2      0.071700
     32 H172        3.4680    0.0700   -1.5770 hc        1 ZT2      0.071700
     33 H181       -5.2280   -0.5190   -3.4510 h2        1 ZT2      0.052200
     34 H182       -6.0280   -0.7120   -2.0730 h2        1 ZT2      0.052200
@<TRIPOS>BOND
     1    1    3 3   
     2    1   24 1   
     3    2    5 3   
     4    2   25 1   
     5    3   26 1   
     6    4    8 3   
     7    4   28 1   
     8    5   27 1   
     9    6   11 3   
    10    6   29 1   
    11    7   10 3   
    12    7   13 1   
    13    8   15 1   
    14    9   12 3   
    15    9   16 1   
    16   10   17 1   
    17   11   22 1   
    18   12   23 1   
    19   13   14 1   
    20   13   15 2   
    21   14   17 1   
    22   14   20 2   
    23   15   30 1   
    24   16   19 1   
    25   16   21 1   
    26   17   31 1   
    27   17   32 1   
    28   18   22 1   
    29   18   23 1   
    30   18   33 1   
    31   18   34 1   
@<TRIPOS>SUBSTRUCTURE
     1 ZT2         1 TEMP              0 ****  ****    0 ROOT
