@<TRIPOS>MOLECULE
ZT2
   34    37     1     0     0
SMALL
bcc


@<TRIPOS>ATOM
      1 C1         -2.4550   -2.8760    0.9280 ca        1 ZT2     -0.132000
      2 C2         -3.8430   -2.8090    0.9990 ca        1 ZT2     -0.149000
      3 C3         -1.7000   -1.7760    0.5010 ca        1 ZT2     -0.114000
      4 C4          0.6610   -0.9050   -1.3540 ca        1 ZT2     -0.130000
      5 C5         -4.5130   -1.6260    0.6580 ca        1 ZT2     -0.124000
      6 C6          1.8230   -1.6750   -1.5140 ca        1 ZT2     -0.155000
      7 C7         -2.3520   -0.6060    0.1360 ca        1 ZT2     -0.014800
      8 C8          0.6480    0.2830   -0.6120 ca        1 ZT2     -0.089800
      9 C9          1.8190    0.7860    0.0170 ca        1 ZT2     -0.053600
     10 C10        -3.7730   -0.5370    0.2380 ca        1 ZT2     -0.099300
     11 C11         2.9570   -1.1940   -0.8900 ca        1 ZT2      0.047100
     12 C12         2.9540    0.0100   -0.1410 ca        1 ZT2      0.059100
     13 C13        -1.8210    0.6810   -0.3140 ce        1 ZT2     -0.211400
     14 C14        -2.9860    1.5970   -0.4660 c         1 ZT2      0.579300
     15 C15        -0.5610    1.0910   -0.5570 cf        1 ZT2      0.058800
     16 C16         1.8010    2.1060    0.7910 c         1 ZT2      0.921200
     17 C17        -4.2590    0.8250   -0.1270 c3        1 ZT2     -0.142100
     18 C18         5.0620   -0.8560   -0.0990 c3        1 ZT2      0.317200
     19 O19         1.5400    3.1440    0.1240 o         1 ZT2     -0.803800
     20 O20        -2.9760    2.7700   -0.8360 o         1 ZT2     -0.535100
     21 O21         2.0260    2.0620    2.0260 o         1 ZT2     -0.803800
     22 O22         4.2360   -1.7480   -0.8810 os        1 ZT2     -0.355900
     23 O23         4.2430    0.2390    0.3470 os        1 ZT2     -0.305900
     24 H1         -1.9370   -3.8020    1.2160 ha        1 ZT2      0.123000
     25 H2         -4.4200   -3.6820    1.3320 ha        1 ZT2      0.117000
     26 H3         -0.6010   -1.8370    0.4750 ha        1 ZT2      0.158000
     27 H5         -5.6080   -1.5680    0.7320 ha        1 ZT2      0.121000
     28 H15        -0.3760    2.1780   -0.7440 ha        1 ZT2      0.201000
     29 H171       -4.9450    0.8040   -1.0100 hc        1 ZT2      0.073200
     30 H172       -4.7930    1.3170    0.7240 hc        1 ZT2      0.073200
     31 H181        5.4400   -1.4130    0.7920 h2        1 ZT2      0.053200
     32 H182        5.8730   -0.4570   -0.7570 h2        1 ZT2      0.053200
     33 H4         -0.2680   -1.2440   -1.8380 ha        1 ZT2      0.129000
     34 H6          1.8270   -2.5990   -2.1020 ha        1 ZT2      0.134000
@<TRIPOS>BOND
     1    1    2 ar  
     2    1    3 ar  
     3    1   24 1   
     4    2    5 ar  
     5    2   25 1   
     6    3    7 ar  
     7    3   26 1   
     8    4    6 ar  
     9    4    8 ar  
    10    4   33 1   
    11    5   10 ar  
    12    5   27 1   
    13    6   11 ar  
    14    6   34 1   
    15    7   10 ar  
    16    7   13 1   
    17    8    9 ar  
    18    8   15 1   
    19    9   12 ar  
    20    9   16 1   
    21   10   17 1   
    22   11   12 ar  
    23   11   22 1   
    24   12   23 1   
    25   13   14 1   
    26   13   15 2   
    27   14   17 1   
    28   14   20 2   
    29   15   28 1   
    30   16   19 1   
    31   16   21 1   
    32   17   29 1   
    33   17   30 1   
    34   18   22 1   
    35   18   23 1   
    36   18   31 1   
    37   18   32 1   
@<TRIPOS>SUBSTRUCTURE
     1 ZT2         1 TEMP              0 ****  ****    0 ROOT
