@<TRIPOS>MOLECULE
ZT4
   36    39     1     0     0
SMALL
bcc


@<TRIPOS>ATOM
      1 C1          0.6200   -0.0860   -0.1630 ca        1 ZT4     -0.138000
      2 C2          1.9940   -0.1320    0.0500 ca        1 ZT4     -0.146000
      3 C3         -0.2740   -0.0290    0.9140 ca        1 ZT4     -0.113000
      4 C4         -2.9150   -1.2840    2.0300 ca        1 ZT4     -0.138000
      5 C5          2.5110   -0.1030    1.3520 ca        1 ZT4     -0.131000
      6 C6         -4.0370   -1.6040    1.2500 ca        1 ZT4     -0.152000
      7 C7          0.2250   -0.0280    2.2110 ca        1 ZT4     -0.018800
      8 C8         -2.9270   -0.2440    2.9660 ca        1 ZT4     -0.063800
      9 C9         -4.0910    0.5400    3.1970 ca        1 ZT4     -0.061600
     10 C10         1.6330   -0.0430    2.4190 ca        1 ZT4     -0.089300
     11 C11        -5.1600   -0.8310    1.4610 ca        1 ZT4      0.041100
     12 C12        -5.1860    0.2180    2.4160 ca        1 ZT4      0.061100
     13 C13        -0.4710    0.0450    3.4920 ce        1 ZT4     -0.144400
     14 C14        -1.7720    0.0030    3.8140 cf        1 ZT4     -0.037200
     15 C15        -4.1100    1.6390    4.2600 c         1 ZT4      0.923200
     16 C16         1.9600    0.0420    3.8720 c3        1 ZT4     -0.036100
     17 C17        -7.2350    0.0990    1.4230 c3        1 ZT4      0.317200
     18 C18         0.5930    0.2260    4.5710 c3        1 ZT4      0.182300
     19 O19        -4.3000    2.8220    3.8830 o         1 ZT4     -0.811300
     20 O20        -3.9080    1.2770    5.4550 o         1 ZT4     -0.811300
     21 O21        -6.4030   -0.9260    0.8360 os        1 ZT4     -0.356900
     22 O22        -6.4590    0.7960    2.4140 os        1 ZT4     -0.307900
     23 O23         0.5180   -0.7380    5.6090 oh        1 ZT4     -0.613800
     24 H1          0.2250   -0.0890   -1.1880 ha        1 ZT4      0.121000
     25 H2          2.6830   -0.1810   -0.8050 ha        1 ZT4      0.116000
     26 H3         -1.3580    0.0310    0.7300 ha        1 ZT4      0.156000
     27 H5          3.5970   -0.1220    1.5180 ha        1 ZT4      0.120000
     28 H14        -2.0670    0.1990    4.8730 ha        1 ZT4      0.182000
     29 H161        2.4570   -0.8930    4.2350 hc        1 ZT4      0.058200
     30 H162        2.6320    0.9070    4.0900 hc        1 ZT4      0.058200
     31 H171       -8.1040   -0.3930    1.9250 h2        1 ZT4      0.051700
     32 H172       -7.5300    0.8200    0.6210 h2        1 ZT4      0.051700
     33 H23        -0.4080   -0.7860    5.8830 ho        1 ZT4      0.415000
     34 H18         0.5060    1.2520    5.0230 h1        1 ZT4      0.052700
     35 H4         -1.9990   -1.8830    1.9070 ha        1 ZT4      0.130000
     36 H6         -4.0190   -2.4220    0.5230 ha        1 ZT4      0.133000
@<TRIPOS>BOND
     1    1    2 ar  
     2    1    3 ar  
     3    1   24 1   
     4    2    5 ar  
     5    2   25 1   
     6    3    7 ar  
     7    3   26 1   
     8    4    6 ar  
     9    4    8 ar  
    10    4   35 1   
    11    5   10 ar  
    12    5   27 1   
    13    6   11 ar  
    14    6   36 1   
    15    7   10 ar  
    16    7   13 1   
    17    8    9 ar  
    18    8   14 1   
    19    9   12 ar  
    20    9   15 1   
    21   10   16 1   
    22   11   12 ar  
    23   11   21 1   
    24   12   22 1   
    25   13   14 2   
    26   13   18 1   
    27   14   28 1   
    28   15   19 1   
    29   15   20 1   
    30   16   18 1   
    31   16   29 1   
    32   16   30 1   
    33   17   21 1   
    34   17   22 1   
    35   17   31 1   
    36   17   32 1   
    37   18   23 1   
    38   18   34 1   
    39   23   33 1   
@<TRIPOS>SUBSTRUCTURE
     1 ZT4         1 TEMP              0 ****  ****    0 ROOT
