@<TRIPOS>MOLECULE
ZT4
   36    39     1     0     0
SMALL
bcc


@<TRIPOS>ATOM
      1 C1         -2.5150   -2.9420    0.9210 ca        1 ZT4     -0.138000
      2 C2         -3.9030   -2.8720    0.9870 ca        1 ZT4     -0.146000
      3 C3         -1.7540   -1.8240    0.5600 ca        1 ZT4     -0.113000
      4 C4          0.6090   -0.9040   -1.2760 ca        1 ZT4     -0.138000
      5 C5         -4.5660   -1.6690    0.7090 ca        1 ZT4     -0.131000
      6 C6          1.7810   -1.6440   -1.4980 ca        1 ZT4     -0.152000
      7 C7         -2.3990   -0.6320    0.2550 ca        1 ZT4     -0.018800
      8 C8          0.6070    0.2940   -0.5530 ca        1 ZT4     -0.063800
      9 C9          1.8030    0.8460   -0.0160 ca        1 ZT4     -0.061600
     10 C10        -3.8180   -0.5600    0.3550 ca        1 ZT4     -0.089300
     11 C11         2.9380   -1.1190   -0.9600 ca        1 ZT4      0.041100
     12 C12         2.9480    0.1010   -0.2360 ca        1 ZT4      0.061100
     13 C13        -1.8570    0.6680   -0.1250 ce        1 ZT4     -0.144400
     14 C14        -0.6130    1.0740   -0.4170 cf        1 ZT4     -0.037200
     15 C15         1.7980    2.1830    0.7250 c         1 ZT4      0.923200
     16 C16        -4.3060    0.8190    0.0650 c3        1 ZT4     -0.036100
     17 C17         5.0800   -0.7020   -0.3200 c3        1 ZT4      0.317200
     18 C18        -3.0190    1.6570   -0.1270 c3        1 ZT4      0.182300
     19 O19         2.1400    2.1890    1.9330 o         1 ZT4     -0.811300
     20 O20         1.4240    3.1950    0.0670 o         1 ZT4     -0.811300
     21 O21         4.2320   -1.6350   -1.0270 os        1 ZT4     -0.356900
     22 O22         4.2610    0.3800    0.1570 os        1 ZT4     -0.307900
     23 O23        -3.1580    2.3670   -1.3470 oh        1 ZT4     -0.613800
     24 H1         -2.0030   -3.8850    1.1600 ha        1 ZT4      0.121000
     25 H2         -4.4870   -3.7600    1.2680 ha        1 ZT4      0.116000
     26 H3         -0.6540   -1.8870    0.5360 ha        1 ZT4      0.156000
     27 H5         -5.6600   -1.6100    0.7780 ha        1 ZT4      0.120000
     28 H14        -0.4280    2.1650   -0.5670 ha        1 ZT4      0.182000
     29 H161       -4.9260    0.8460   -0.8660 hc        1 ZT4      0.058200
     30 H162       -4.9150    1.2240    0.9090 hc        1 ZT4      0.058200
     31 H171        5.5330   -1.2280    0.5560 h2        1 ZT4      0.051700
     32 H172        5.8340   -0.2950   -1.0380 h2        1 ZT4      0.051700
     33 H23        -2.2800    2.6930   -1.5850 ho        1 ZT4      0.415000
     34 H18        -2.8910    2.3970    0.7100 h1        1 ZT4      0.052700
     35 H4         -0.3370   -1.2770   -1.6970 ha        1 ZT4      0.130000
     36 H6          1.7740   -2.5790   -2.0670 ha        1 ZT4      0.133000
@<TRIPOS>BOND
     1    1    2 ar  
     2    1    3 ar  
     3    1   24 1   
     4    2    5 ar  
     5    2   25 1   
     6    3    7 ar  
     7    3   26 1   
     8    4    6 ar  
     9    4    8 ar  
    10    4   35 1   
    11    5   10 ar  
    12    5   27 1   
    13    6   11 ar  
    14    6   36 1   
    15    7   10 ar  
    16    7   13 1   
    17    8    9 ar  
    18    8   14 1   
    19    9   12 ar  
    20    9   15 1   
    21   10   16 1   
    22   11   12 ar  
    23   11   21 1   
    24   12   22 1   
    25   13   14 2   
    26   13   18 1   
    27   14   28 1   
    28   15   19 1   
    29   15   20 1   
    30   16   18 1   
    31   16   29 1   
    32   16   30 1   
    33   17   21 1   
    34   17   22 1   
    35   17   31 1   
    36   17   32 1   
    37   18   23 1   
    38   18   34 1   
    39   23   33 1   
@<TRIPOS>SUBSTRUCTURE
     1 ZT4         1 TEMP              0 ****  ****    0 ROOT
