@<TRIPOS>MOLECULE
ZTD
   53    55     1     0     0
SMALL
bcc


@<TRIPOS>ATOM
      1 CAA         0.2500   -0.5850   -0.4250 c3        1 ZTD     -0.139400
      2 CAW         1.6590   -0.9750   -0.2360 cc        1 ZTD      0.325600
      3 CAK         2.5660   -0.3740    0.7480 cc        1 ZTD     -0.321600
      4 NAQ         2.3390   -1.9130   -0.9300 nd        1 ZTD     -0.330300
      5 OAT         3.5780   -1.9680   -0.4940 os        1 ZTD     -0.103100
      6 CAZ         3.7630   -1.0280    0.5530 cd        1 ZTD      0.218000
      7 CAM         5.1080   -0.9320    1.1270 c3        1 ZTD     -0.164700
      8 CAU         5.4660   -2.1450    1.9620 c         1 ZTD      0.678100
      9 OAB         4.7990   -3.2000    1.9550 o         1 ZTD     -0.630100
     10 N           6.5590   -2.0690    2.8330 n         1 ZTD     -0.473800
     11 CD2         7.5010   -0.9590    2.8010 c3        1 ZTD      0.036000
     12 CG          8.9040   -1.5070    3.1750 c3        1 ZTD      0.138100
     13 OD1         9.7430   -1.4980    2.0390 oh        1 ZTD     -0.584800
     14 CB          8.6910   -2.9750    3.5710 c3        1 ZTD     -0.097400
     15 CA          7.2020   -3.2860    3.3040 c3        1 ZTD      0.042700
     16 C           6.5400   -3.8220    4.5880 c         1 ZTD      0.534100
     17 O           7.0390   -3.9000    5.6980 o         1 ZTD     -0.414100
     18 NAR         5.1270   -4.3160    4.4180 ny        1 ZTD     -0.676800
     19 CAL         4.7290   -5.4150    5.3560 c3        1 ZTD      0.166100
     20 CAX         5.1630   -6.7550    4.8620 ca        1 ZTD     -0.154300
     21 CAE         4.5560   -7.3080    3.7270 ca        1 ZTD     -0.120500
     22 CAG         4.9280   -8.5750    3.2870 ca        1 ZTD     -0.067000
     23 CAF         6.1380   -7.4740    5.5590 ca        1 ZTD     -0.120500
     24 CAH         6.5070   -8.7480    5.1250 ca        1 ZTD     -0.067000
     25 CAY         5.9060   -9.2960    3.9870 ca        1 ZTD     -0.085600
     26 CBA         6.2740  -10.6380    3.4940 c         1 ZTD      0.631700
     27 CAI         7.5820  -12.5950    3.8340 c3        1 ZTD      0.125700
     28 OAD         5.8370  -11.2040    2.4900 o         1 ZTD     -0.512000
     29 OAS         7.2010  -11.2810    4.2630 os        1 ZTD     -0.434900
     30 HAA1       -0.3150   -1.3410   -1.0260 hc        1 ZTD      0.067033
     31 HAA2        0.2030    0.3980   -0.9600 hc        1 ZTD      0.067033
     32 HAA3       -0.2460   -0.4740    0.5720 hc        1 ZTD      0.067033
     33 HAK         2.3110    0.4150    1.4470 ha        1 ZTD      0.179000
     34 HAM1        5.8650   -0.8610    0.2920 hc        1 ZTD      0.107200
     35 HAM2        5.1750    0.0030    1.7480 hc        1 ZTD      0.107200
     36 HD21        7.5430   -0.4880    1.7800 h1        1 ZTD      0.077700
     37 HD22        7.1650   -0.1890    3.5480 h1        1 ZTD      0.077700
     38 HA          7.1090   -4.1090    2.5300 h1        1 ZTD      0.111700
     39 HG          9.3470   -0.9130    4.0160 h1        1 ZTD      0.076700
     40 HD1        10.2010   -0.6470    2.0170 ho        1 ZTD      0.426000
     41 HB1C        8.9650   -3.1330    4.6430 hc        1 ZTD      0.104200
     42 HB2C        9.3320   -3.6410    2.9360 hc        1 ZTD      0.104200
     43 HAR         4.5010   -3.5120    4.5460 hn        1 ZTD      0.476800
     44 HAL1        5.1740   -5.1930    6.3700 hx        1 ZTD      0.115200
     45 HAL2        3.6020   -5.3860    5.4390 hx        1 ZTD      0.115200
     46 HAF         6.6110   -7.0480    6.4590 ha        1 ZTD      0.149000
     47 HAE         3.7710   -6.7560    3.1860 ha        1 ZTD      0.149000
     48 HAH         7.2690   -9.3270    5.6760 ha        1 ZTD      0.180500
     49 HAG         4.4570   -9.0250    2.3950 ha        1 ZTD      0.180500
     50 HAI1        8.0400  -12.5420    2.8170 h1        1 ZTD      0.062033
     51 HAI2        8.3260  -12.9110    4.6070 h1        1 ZTD      0.062033
     52 HAI3        6.6880  -13.2630    3.8230 h1        1 ZTD      0.062033
     53 HAR2        5.0090   -4.6400    3.4390 hn        1 ZTD      0.476800
@<TRIPOS>BOND
     1    1    2 1   
     2    1   30 1   
     3    1   31 1   
     4    1   32 1   
     5    2    3 1   
     6    2    4 2   
     7    3    6 2   
     8    3   33 1   
     9    4    5 1   
    10    5    6 1   
    11    6    7 1   
    12    7    8 1   
    13    7   34 1   
    14    7   35 1   
    15    8    9 2   
    16    8   10 1   
    17   10   11 1   
    18   10   15 1   
    19   11   12 1   
    20   11   36 1   
    21   11   37 1   
    22   12   13 1   
    23   12   14 1   
    24   12   39 1   
    25   13   40 1   
    26   14   15 1   
    27   14   41 1   
    28   14   42 1   
    29   15   16 1   
    30   15   38 1   
    31   16   17 2   
    32   16   18 1   
    33   18   19 1   
    34   18   43 1   
    35   18   53 1   
    36   19   20 1   
    37   19   44 1   
    38   19   45 1   
    39   20   21 ar  
    40   20   23 ar  
    41   21   22 ar  
    42   21   47 1   
    43   22   25 ar  
    44   22   49 1   
    45   23   24 ar  
    46   23   46 1   
    47   24   25 ar  
    48   24   48 1   
    49   25   26 1   
    50   26   28 2   
    51   26   29 1   
    52   27   29 1   
    53   27   50 1   
    54   27   51 1   
    55   27   52 1   
@<TRIPOS>SUBSTRUCTURE
     1 ZTD         1 TEMP              0 ****  ****    0 ROOT
