@<TRIPOS>MOLECULE
ZTD
   52    54     1     0     0
SMALL
bcc


@<TRIPOS>ATOM
      1 CAA         4.8980    4.6220   -0.5830 c3        1 ZTD     -0.133400
      2 CAW         5.0420    3.1910   -0.2630 cc        1 ZTD      0.316600
      3 CAK         4.0640    2.1590   -0.6240 cc        1 ZTD     -0.316600
      4 NAQ         6.0660    2.6070    0.3950 nd        1 ZTD     -0.355300
      5 OAT         5.8410    1.3140    0.4910 os        1 ZTD     -0.130100
      6 CAZ         4.6030    0.9910   -0.1320 cd        1 ZTD      0.243000
      7 CAM         4.2520   -0.4330   -0.1110 c3        1 ZTD     -0.178700
      8 CAU         2.7620   -0.6780   -0.2780 c         1 ZTD      0.674100
      9 OAB         1.9900    0.1790   -0.7550 o         1 ZTD     -0.618100
     10 N           2.2610   -1.8970    0.1510 n         1 ZTD     -0.454800
     11 CD2         3.1060   -3.0350    0.4540 c3        1 ZTD      0.048000
     12 CG          2.2840   -4.3200    0.1750 c3        1 ZTD      0.132100
     13 OD1         2.8570   -5.0620   -0.8850 oh        1 ZTD     -0.590800
     14 CB          0.8990   -3.8480   -0.2860 c3        1 ZTD     -0.089400
     15 CA          0.8960   -2.3110   -0.1610 c3        1 ZTD      0.032700
     16 C          -0.1220   -1.8470    0.9090 c         1 ZTD      0.650100
     17 O          -0.8380   -2.6670    1.5180 o         1 ZTD     -0.619100
     18 NAR        -0.1940   -0.4940    1.1540 n         1 ZTD     -0.550900
     19 CAL        -1.1650    0.0670    2.0530 c3        1 ZTD      0.127300
     20 CAX        -2.4690    0.4570    1.4110 ca        1 ZTD     -0.086300
     21 CAE        -2.8050    1.8040    1.2500 ca        1 ZTD     -0.135000
     22 CAG        -4.0280    2.1560    0.6820 ca        1 ZTD     -0.074000
     23 CAF        -3.3610   -0.5390    0.9980 ca        1 ZTD     -0.135000
     24 CAH        -4.5830   -0.1930    0.4280 ca        1 ZTD     -0.074000
     25 CAY        -4.9200    1.1570    0.2690 ca        1 ZTD     -0.131600
     26 CBA        -6.1990    1.5650   -0.3260 c         1 ZTD      0.644700
     27 CAI        -8.2630    0.8680   -1.2860 c3        1 ZTD      0.127700
     28 OAD        -6.6180    2.7100   -0.5210 o         1 ZTD     -0.545000
     29 OAS        -7.0070    0.5210   -0.7020 os        1 ZTD     -0.438900
     30 HAA1        3.9530    5.0120   -0.1280 hc        1 ZTD      0.059367
     31 HAA2        5.7560    5.2270   -0.1980 hc        1 ZTD      0.059367
     32 HAA3        4.8400    4.7510   -1.6930 hc        1 ZTD      0.059367
     33 HAK         3.1240    2.3030   -1.1500 ha        1 ZTD      0.195000
     34 HAM1        4.7810   -0.9530   -0.9600 hc        1 ZTD      0.094700
     35 HAM2        4.6230   -0.8860    0.8510 hc        1 ZTD      0.094700
     36 HD21        4.0360   -3.0310   -0.1790 h1        1 ZTD      0.056200
     37 HD22        3.4070   -2.9890    1.5370 h1        1 ZTD      0.056200
     38 HA          0.5740   -1.8400   -1.1380 h1        1 ZTD      0.090700
     39 HG          2.2170   -4.9480    1.1020 h1        1 ZTD      0.059700
     40 HD1         3.6400   -5.5020   -0.5320 ho        1 ZTD      0.404000
     41 HB1C        0.7290   -4.1440   -1.3520 hc        1 ZTD      0.092200
     42 HB2C        0.0980   -4.3070    0.3440 hc        1 ZTD      0.092200
     43 HAR         0.2690    0.1330    0.5320 hn        1 ZTD      0.337500
     44 HAL1       -1.3830   -0.6900    2.8640 h1        1 ZTD      0.070700
     45 HAL2       -0.6980    0.9760    2.5320 h1        1 ZTD      0.070700
     46 HAF        -3.0860   -1.6000    1.1300 ha        1 ZTD      0.150000
     47 HAE        -2.1070    2.5910    1.5720 ha        1 ZTD      0.150000
     48 HAH        -5.2890   -0.9740    0.1020 ha        1 ZTD      0.156500
     49 HAG        -4.3040    3.2160    0.5520 ha        1 ZTD      0.156500
     50 HAI1       -8.8700    1.4600   -0.5590 h1        1 ZTD      0.051033
     51 HAI2       -8.1000    1.4600   -2.2180 h1        1 ZTD      0.051033
     52 HAI3       -8.7340   -0.1220   -1.5040 h1        1 ZTD      0.051033
@<TRIPOS>BOND
     1    1    2 1   
     2    1   30 1   
     3    1   31 1   
     4    1   32 1   
     5    2    3 1   
     6    2    4 2   
     7    3    6 2   
     8    3   33 1   
     9    4    5 1   
    10    5    6 1   
    11    6    7 1   
    12    7    8 1   
    13    7   34 1   
    14    7   35 1   
    15    8    9 2   
    16    8   10 1   
    17   10   11 1   
    18   10   15 1   
    19   11   12 1   
    20   11   36 1   
    21   11   37 1   
    22   12   13 1   
    23   12   14 1   
    24   12   39 1   
    25   13   40 1   
    26   14   15 1   
    27   14   41 1   
    28   14   42 1   
    29   15   16 1   
    30   15   38 1   
    31   16   17 2   
    32   16   18 1   
    33   18   19 1   
    34   18   43 1   
    35   19   20 1   
    36   19   44 1   
    37   19   45 1   
    38   20   21 ar  
    39   20   23 ar  
    40   21   22 ar  
    41   21   47 1   
    42   22   25 ar  
    43   22   49 1   
    44   23   24 ar  
    45   23   46 1   
    46   24   25 ar  
    47   24   48 1   
    48   25   26 1   
    49   26   28 2   
    50   26   29 1   
    51   27   29 1   
    52   27   50 1   
    53   27   51 1   
    54   27   52 1   
@<TRIPOS>SUBSTRUCTURE
     1 ZTD         1 TEMP              0 ****  ****    0 ROOT
