@<TRIPOS>MOLECULE
ZTH
   29    29     1     0     0
SMALL
bcc


@<TRIPOS>ATOM
      1 O4         -5.8760   -0.7420   -0.4740 o         1 ZTH     -0.683500
      2 C4         -4.6740   -0.4030   -0.4380 c         1 ZTH      0.724700
      3 N3         -4.3190    0.8170   -1.0410 n         1 ZTH     -0.594500
      4 C2         -2.9980    1.3040   -1.0650 c         1 ZTH      0.788500
      5 O2         -2.7710    2.4100   -1.6100 o         1 ZTH     -0.669500
      6 C5         -3.5840   -1.1550    0.1790 cc        1 ZTH     -0.342400
      7 C5M        -3.9130   -2.4340    0.8350 c3        1 ZTH     -0.006900
      8 C6         -2.3010   -0.6650    0.1380 cd        1 ZTH      0.104600
      9 N1         -1.9790    0.5270   -0.4680 n         1 ZTH     -0.332000
     10 C1G        -0.6170    1.0600   -0.4930 c3        1 ZTH      0.090000
     11 C2G         0.4840    0.0850   -0.0670 c3        1 ZTH      0.060100
     12 O2G         0.3200   -0.1770    1.3210 oh        1 ZTH     -0.678800
     13 C3G         1.8820    0.7150   -0.3520 c3        1 ZTH      0.223400
     14 O3G         2.8280    0.0720    0.3900 os        1 ZTH     -0.556200
     15 P           3.7830   -1.0610   -0.5800 p5        1 ZTH      1.307900
     16 O1P         4.6940   -1.6690    0.4420 o         1 ZTH     -0.924167
     17 O2P         2.6320   -1.8980   -1.0740 o         1 ZTH     -0.924167
     18 H3         -5.0140    1.3710   -1.4840 hn        1 ZTH      0.329500
     19 H5M1       -4.4230   -2.2490    1.8140 hc        1 ZTH      0.034700
     20 H5M2       -4.6090   -3.0280    0.1920 hc        1 ZTH      0.034700
     21 H5M3       -2.9900   -3.0360    1.0230 hc        1 ZTH      0.034700
     22 H6         -1.4520   -1.2150    0.6080 h4        1 ZTH      0.226000
     23 H1G1       -0.4060    1.3950   -1.5480 h1        1 ZTH      0.061700
     24 H1G2       -0.6030    1.9610    0.1840 h1        1 ZTH      0.061700
     25 H2G         0.4260   -0.8940   -0.6250 h1        1 ZTH      0.101700
     26 H3G1        2.0910    0.6370   -1.4550 h1        1 ZTH     -0.003300
     27 H3G2        1.8280    1.8040   -0.0530 h1        1 ZTH     -0.003300
     28 OXT         4.3870   -0.1340   -1.5960 o         1 ZTH     -0.924167
     29 H2          1.2120   -0.3740    1.6590 ho        1 ZTH      0.459000
@<TRIPOS>BOND
     1    1    2 2   
     2    2    3 1   
     3    2    6 1   
     4    3    4 1   
     5    3   18 1   
     6    4    5 2   
     7    4    9 1   
     8    6    7 1   
     9    6    8 2   
    10    7   19 1   
    11    7   20 1   
    12    7   21 1   
    13    8    9 1   
    14    8   22 1   
    15    9   10 1   
    16   10   11 1   
    17   10   23 1   
    18   10   24 1   
    19   11   12 1   
    20   11   13 1   
    21   11   25 1   
    22   12   29 1   
    23   13   14 1   
    24   13   26 1   
    25   13   27 1   
    26   14   15 1   
    27   15   16 1   
    28   15   17 1   
    29   15   28 1   
@<TRIPOS>SUBSTRUCTURE
     1 ZTH         1 TEMP              0 ****  ****    0 ROOT
