@<TRIPOS>MOLECULE
ZTW
   27    29     1     0     0
SMALL
bcc


@<TRIPOS>ATOM
      1 C1         -0.0030   -0.2270   -0.0110 ca        1 ZTW     -0.052000
      2 C2          1.3760   -0.2060    0.0920 ca        1 ZTW     -0.209000
      3 C3          1.9850   -0.0690    1.3620 ca        1 ZTW      0.131100
      4 O3          3.3530   -0.0440    1.5120 oh        1 ZTW     -0.497100
      5 C4          1.2300    0.0480    2.5300 ca        1 ZTW     -0.132000
      6 C5         -0.1610    0.0260    2.4200 ca        1 ZTW     -0.042100
      7 S6         -1.3170    0.1460    3.6410 ss        1 ZTW      0.022500
      8 C7         -2.6350    0.0270    2.5610 cc        1 ZTW     -0.025600
      9 C8         -3.9980    0.0660    3.0330 ca        1 ZTW     -0.060800
     10 C9         -4.3130    0.7250    4.2350 ca        1 ZTW     -0.081500
     11 C10        -5.6190    0.7710    4.7030 ca        1 ZTW     -0.183000
     12 C11        -6.6350    0.1480    3.9570 ca        1 ZTW      0.129100
     13 O11        -7.9090    0.2280    4.4690 oh        1 ZTW     -0.495100
     14 C12        -6.3400   -0.5140    2.7580 ca        1 ZTW     -0.183000
     15 C13        -5.0250   -0.5510    2.3040 ca        1 ZTW     -0.081500
     16 C14        -0.7840   -0.1120    1.1470 ca        1 ZTW     -0.112800
     17 C15        -2.2180   -0.1080    1.2600 cd        1 ZTW     -0.117200
     18 H1         -0.4910   -0.3320   -0.9920 ha        1 ZTW      0.138000
     19 H2          2.0060   -0.2950   -0.8040 ha        1 ZTW      0.134000
     20 H3          3.7510   -0.1330    0.6340 ho        1 ZTW      0.420000
     21 H4          1.7300    0.1530    3.5030 ha        1 ZTW      0.156000
     22 H9         -3.5120    1.2140    4.8120 ha        1 ZTW      0.139000
     23 H10        -5.8720    1.2850    5.6410 ha        1 ZTW      0.144500
     24 H11        -8.5040   -0.2380    3.8640 ho        1 ZTW      0.420000
     25 H12        -7.1390   -1.0010    2.1810 ha        1 ZTW      0.144500
     26 H13        -4.7870   -1.0750    1.3660 ha        1 ZTW      0.139000
     27 H15        -2.8730   -0.1930    0.3900 ha        1 ZTW      0.155000
@<TRIPOS>BOND
     1    1    2 ar  
     2    1   16 ar  
     3    1   18 1   
     4    2    3 ar  
     5    2   19 1   
     6    3    4 1   
     7    3    5 ar  
     8    4   20 1   
     9    5    6 ar  
    10    5   21 1   
    11    6    7 1   
    12    6   16 ar  
    13    7    8 1   
    14    8    9 1   
    15    8   17 2   
    16    9   10 ar  
    17    9   15 ar  
    18   10   11 ar  
    19   10   22 1   
    20   11   12 ar  
    21   11   23 1   
    22   12   13 1   
    23   12   14 ar  
    24   13   24 1   
    25   14   15 ar  
    26   14   25 1   
    27   15   26 1   
    28   16   17 1   
    29   17   27 1   
@<TRIPOS>SUBSTRUCTURE
     1 ZTW         1 TEMP              0 ****  ****    0 ROOT
