@<TRIPOS>MOLECULE
ZTW
   27    29     1     0     0
SMALL
bcc


@<TRIPOS>ATOM
      1 C1         -1.7520    0.1200   -2.8870 ca        1 ZTW     -0.052000
      2 C2         -1.2310    0.0360   -4.1650 ca        1 ZTW     -0.209000
      3 C3          0.1640   -0.1020   -4.3500 ca        1 ZTW      0.131100
      4 O3          0.7260   -0.1890   -5.6040 oh        1 ZTW     -0.497100
      5 C4          1.0470   -0.1570   -3.2700 ca        1 ZTW     -0.132000
      6 C5          0.5160   -0.0730   -1.9820 ca        1 ZTW     -0.042100
      7 S6          1.3250   -0.1110   -0.5030 ss        1 ZTW      0.022500
      8 C7         -0.1060    0.0530    0.4140 cc        1 ZTW     -0.025600
      9 C8         -0.0730    0.0870    1.8560 ca        1 ZTW     -0.060800
     10 C9          1.0810    0.5280    2.5290 ca        1 ZTW     -0.081500
     11 C10         1.1280    0.5670    3.9150 ca        1 ZTW     -0.183000
     12 C11         0.0010    0.1580    4.6500 ca        1 ZTW      0.129100
     13 O11         0.1060    0.2190    6.0190 oh        1 ZTW     -0.495100
     14 C12        -1.1570   -0.2860    3.9970 ca        1 ZTW     -0.183000
     15 C13        -1.1860   -0.3190    2.6060 ca        1 ZTW     -0.081500
     16 C14        -0.8880    0.0660   -1.7850 ca        1 ZTW     -0.112800
     17 C15        -1.2180    0.1370   -0.3870 cd        1 ZTW     -0.117200
     18 H1         -2.8350    0.2290   -2.7280 ha        1 ZTW      0.138000
     19 H2         -1.8930    0.0770   -5.0420 ha        1 ZTW      0.134000
     20 H3          0.0110   -0.1380   -6.2550 ho        1 ZTW      0.420000
     21 H4          2.1270   -0.2650   -3.4430 ha        1 ZTW      0.156000
     22 H9          1.9590    0.8510    1.9460 ha        1 ZTW      0.139000
     23 H10         2.0260    0.9120    4.4470 ha        1 ZTW      0.144000
     24 H11        -0.7310   -0.0870    6.3970 ho        1 ZTW      0.420000
     25 H12        -2.0330   -0.6060    4.5770 ha        1 ZTW      0.144000
     26 H13        -2.0920   -0.6720    2.0890 ha        1 ZTW      0.139000
     27 H15        -2.2450    0.2540   -0.0340 ha        1 ZTW      0.155000
@<TRIPOS>BOND
     1    1    2 ar  
     2    1   16 ar  
     3    1   18 1   
     4    2    3 ar  
     5    2   19 1   
     6    3    4 1   
     7    3    5 ar  
     8    4   20 1   
     9    5    6 ar  
    10    5   21 1   
    11    6    7 1   
    12    6   16 ar  
    13    7    8 1   
    14    8    9 1   
    15    8   17 2   
    16    9   10 ar  
    17    9   15 ar  
    18   10   11 ar  
    19   10   22 1   
    20   11   12 ar  
    21   11   23 1   
    22   12   13 1   
    23   12   14 ar  
    24   13   24 1   
    25   14   15 ar  
    26   14   25 1   
    27   15   26 1   
    28   16   17 1   
    29   17   27 1   
@<TRIPOS>SUBSTRUCTURE
     1 ZTW         1 TEMP              0 ****  ****    0 ROOT
