@<TRIPOS>MOLECULE
ZTX
   58    62     1     0     0
SMALL
bcc


@<TRIPOS>ATOM
      1 N1         -0.5680   -0.7050    0.0390 nb        1 ZTX     -0.718000
      2 C2         -0.7840    0.6650    0.0790 ca        1 ZTX      0.866900
      3 N3         -1.9920    1.2730   -0.2130 nb        1 ZTX     -0.774000
      4 C4         -3.0340    0.4750   -0.5640 ca        1 ZTX      0.656200
      5 C5         -2.8970   -0.9550   -0.6460 ca        1 ZTX     -0.210000
      6 C6         -1.6100   -1.4630   -0.3100 ca        1 ZTX      0.440200
      7 CAB        -5.2540   -1.7130   -0.7270 c         1 ZTX      0.729100
      8 CAC        -5.7350   -0.6340    0.1760 ca        1 ZTX     -0.136600
      9 CAD        -5.3050    0.7080    0.0810 ca        1 ZTX      0.146600
     10 NAE        -4.3090    1.0550   -0.8840 na        1 ZTX     -0.617700
     11 CAF        -4.3030    2.4310   -1.3300 c3        1 ZTX      0.175100
     12 CAH        -6.8980    1.3050    1.8210 ca        1 ZTX     -0.092000
     13 CAI        -7.3090   -0.0240    1.9190 ca        1 ZTX     -0.149000
     14 CAK        -6.7330   -0.9850    1.0940 ca        1 ZTX     -0.066000
     15 CAL        -5.9070    1.6730    0.9170 ca        1 ZTX     -0.166000
     16 NAN         0.2510    1.5220    0.5250 nh        1 ZTX     -0.691300
     17 CAO         1.6100    1.1330    0.4100 ca        1 ZTX      0.088600
     18 CAP         2.5000    1.8860   -0.3860 ca        1 ZTX     -0.108000
     19 CAQ         3.8500    1.5730   -0.4370 ca        1 ZTX     -0.158000
     20 CAR         4.3730    0.4800    0.2940 ca        1 ZTX      0.132600
     21 NAS         5.7700    0.2350    0.2710 nh        1 ZTX     -0.637000
     22 CAT         6.3350    0.0080   -1.0530 c3        1 ZTX      0.189300
     23 CAU         7.8620    0.0090   -1.0540 c3        1 ZTX     -0.099400
     24 CAV         8.3950   -0.9890   -0.0320 c3        1 ZTX      0.141100
     25 OAW         9.8090   -0.8480   -0.0240 oh        1 ZTX     -0.596800
     26 CAX         7.8010   -0.7030    1.3430 c3        1 ZTX     -0.099400
     27 CAY         6.2750   -0.6810    1.2810 c3        1 ZTX      0.189300
     28 CAZ         3.4750   -0.2720    1.0800 ca        1 ZTX     -0.158000
     29 CBA         2.1250    0.0510    1.1470 ca        1 ZTX     -0.108000
     30 NBG        -3.9110   -1.8160   -1.0890 n         1 ZTX     -0.358000
     31 CBH        -3.5150   -2.8910   -1.9700 c3        1 ZTX      0.078300
     32 H6         -1.4080   -2.5510   -0.3410 h4        1 ZTX      0.036100
     33 HAF        -3.9700    3.1640   -0.5480 h1        1 ZTX      0.050033
     34 HAFA       -3.6110    2.5070   -2.2100 h1        1 ZTX      0.050033
     35 HAFB       -5.3450    2.6920   -1.6550 h1        1 ZTX      0.050033
     36 HAH        -7.3560    2.0710    2.4660 ha        1 ZTX      0.138000
     37 HAI        -8.0890   -0.3120    2.6390 ha        1 ZTX      0.141000
     38 HAK        -7.0690   -2.0340    1.1370 ha        1 ZTX      0.158000
     39 HAL        -5.5960    2.7270    0.8630 ha        1 ZTX      0.144000
     40 HNAN        0.0950    2.4890    0.3110 hn        1 ZTX      0.431800
     41 HAP         2.1330    2.7440   -0.9710 ha        1 ZTX      0.143000
     42 HAQ         4.5150    2.2000   -1.0510 ha        1 ZTX      0.138000
     43 HAT         5.9760   -0.9750   -1.4780 h1        1 ZTX      0.039200
     44 HATA        5.9780    0.8270   -1.7380 h1        1 ZTX      0.039200
     45 HAU         8.2240   -0.2680   -2.0760 hc        1 ZTX      0.060700
     46 HAUA        8.2570    1.0290   -0.8130 hc        1 ZTX      0.060700
     47 HAV         8.1320   -2.0390   -0.3470 h1        1 ZTX      0.031700
     48 HOAW       10.1410   -1.4140    0.6830 ho        1 ZTX      0.400000
     49 HAX         8.1150   -1.4940    2.0700 hc        1 ZTX      0.060700
     50 HAXA        8.1900    0.2810    1.7140 hc        1 ZTX      0.060700
     51 HAY         5.8800   -0.3460    2.2810 h1        1 ZTX      0.039200
     52 HAYA        5.9130   -1.7370    1.0980 h1        1 ZTX      0.039200
     53 HAZ         3.8270   -1.1360    1.6650 ha        1 ZTX      0.138000
     54 HBA         1.4610   -0.5570    1.7820 ha        1 ZTX      0.143000
     55 HBH        -3.2440   -3.8010   -1.3700 h1        1 ZTX      0.051367
     56 HBHA       -4.3670   -3.1520   -2.6540 h1        1 ZTX      0.051367
     57 HBHB       -2.6300   -2.5770   -2.5840 h1        1 ZTX      0.051367
     58 OAA        -6.0520   -2.5710   -1.1570 o         1 ZTX     -0.633500
@<TRIPOS>BOND
     1    1    2 ar  
     2    1    6 ar  
     3    2    3 ar  
     4    2   16 1   
     5    3    4 ar  
     6    4    5 ar  
     7    4   10 1   
     8    5    6 ar  
     9    5   30 1   
    10    6   32 1   
    11    7    8 1   
    12    7   30 1   
    13    7   58 2   
    14    8    9 ar  
    15    8   14 ar  
    16    9   10 1   
    17    9   15 ar  
    18   10   11 1   
    19   11   33 1   
    20   11   34 1   
    21   11   35 1   
    22   12   13 ar  
    23   12   15 ar  
    24   12   36 1   
    25   13   14 ar  
    26   13   37 1   
    27   14   38 1   
    28   15   39 1   
    29   16   17 1   
    30   16   40 1   
    31   17   18 ar  
    32   17   29 ar  
    33   18   19 ar  
    34   18   41 1   
    35   19   20 ar  
    36   19   42 1   
    37   20   21 1   
    38   20   28 ar  
    39   21   22 1   
    40   21   27 1   
    41   22   23 1   
    42   22   43 1   
    43   22   44 1   
    44   23   24 1   
    45   23   45 1   
    46   23   46 1   
    47   24   25 1   
    48   24   26 1   
    49   24   47 1   
    50   25   48 1   
    51   26   27 1   
    52   26   49 1   
    53   26   50 1   
    54   27   51 1   
    55   27   52 1   
    56   28   29 ar  
    57   28   53 1   
    58   29   54 1   
    59   30   31 1   
    60   31   55 1   
    61   31   56 1   
    62   31   57 1   
@<TRIPOS>SUBSTRUCTURE
     1 ZTX         1 TEMP              0 ****  ****    0 ROOT
