@<TRIPOS>MOLECULE
ZTX
   58    62     1     0     0
SMALL
bcc


@<TRIPOS>ATOM
      1 N1         -0.5260   -0.9020    0.2160 nb        1 ZTX     -0.713000
      2 C2          0.8440   -0.6940    0.1270 ca        1 ZTX      0.864900
      3 N3          1.6430   -0.3170    1.1910 nb        1 ZTX     -0.774000
      4 C4          1.0500   -0.1420    2.4010 ca        1 ZTX      0.661200
      5 C5         -0.3630   -0.3310    2.5850 ca        1 ZTX     -0.204000
      6 C6         -1.0790   -0.7250    1.4170 ca        1 ZTX      0.437200
      7 CAB        -0.5850   -0.5450    5.0350 c         1 ZTX      0.737100
      8 CAC         0.7490   -1.1490    5.1710 ca        1 ZTX     -0.185600
      9 CAD         1.9220   -0.7220    4.5410 ca        1 ZTX      0.207600
     10 NAE         1.8570    0.2530    3.5210 na        1 ZTX     -0.633700
     11 CAF         3.0450    1.0220    3.2320 c3        1 ZTX      0.185100
     12 CAH         3.3580   -2.2940    5.8160 ca        1 ZTX     -0.043000
     13 CAI         2.0360   -2.9280    5.7820 ca        1 ZTX     -0.207000
     14 CAK         1.0480   -2.0820    6.2510 ca        1 ZTX     -0.079000
     15 CAL         3.2640   -1.1780    5.0400 ca        1 ZTX     -0.195000
     16 NAN         1.5120   -0.9590   -1.0930 nu        1 ZTX     -0.687300
     17 CAO         0.8110   -0.8790   -2.3240 ca        1 ZTX      0.070600
     18 CAP         1.1840    0.0720   -3.2970 ca        1 ZTX     -0.095000
     19 CAQ         0.5620    0.1080   -4.5350 ca        1 ZTX     -0.177500
     20 CAR        -0.4790   -0.7960   -4.8560 ca        1 ZTX      0.157600
     21 NAS        -1.0480   -0.8110   -6.1410 nh        1 ZTX     -0.608000
     22 CAT        -1.1220    0.4240   -6.8890 cx        1 ZTX      0.095500
     23 CAU        -1.0050    0.3480   -8.4030 cx        1 ZTX     -0.087400
     24 CAV        -2.3780    0.4110   -7.7850 cx        1 ZTX      0.061800
     25 OAW        -3.1320    1.5420   -8.0470 oh        1 ZTX     -0.542800
     26 CAX        -3.0970   -0.8910   -7.5030 c3        1 ZTX     -0.089400
     27 CAY        -2.2920   -1.5590   -6.3630 c3        1 ZTX      0.181800
     28 CAZ        -0.8360   -1.7560   -3.8800 ca        1 ZTX     -0.177500
     29 CBA        -0.2040   -1.7990   -2.6450 ca        1 ZTX     -0.095000
     30 NBG        -1.0360   -0.0870    3.7910 n         1 ZTX     -0.366000
     31 CBH        -2.3510    0.5010    3.7070 c3        1 ZTX      0.079300
     32 H6         -2.1730   -0.8950    1.4580 h4        1 ZTX      0.037100
     33 HAF         3.8670    0.4120    2.7680 h1        1 ZTX      0.051367
     34 HAFA        2.7690    1.8490    2.5270 h1        1 ZTX      0.051367
     35 HAFB        3.4120    1.4720    4.1930 h1        1 ZTX      0.051367
     36 HAH         4.1410   -0.5660    4.7940 ha        1 ZTX      0.148000
     37 HAI         4.2480   -2.6650    6.3260 ha        1 ZTX      0.156000
     38 HAK         1.8510   -3.4770    4.8350 ha        1 ZTX      0.123000
     39 HAL         0.8110   -1.8230    7.2870 ha        1 ZTX      0.166000
     40 HNAN        2.4380   -0.5790   -1.1370 hn        1 ZTX      0.430800
     41 HAP         1.9870    0.7970   -3.0880 ha        1 ZTX      0.141500
     42 HAQ         0.9100    0.8470   -5.2760 ha        1 ZTX      0.138000
     43 HAT         1.5960    2.3540   -7.0350 ha        1 ZTX      0.000500
     44 HATA        1.1390    2.0140   -7.4030 ha        1 ZTX      0.000500
     45 HAU        -0.7720    1.3390   -6.3760 h1        1 ZTX      0.105700
     46 HAUA       -0.6910   -0.5900   -8.8940 hc        1 ZTX      0.087700
     47 HAV        -0.6250    1.2490   -8.9170 hc        1 ZTX      0.087700
     48 HOAW       -3.7290    1.6600   -7.2950 ho        1 ZTX      0.407000
     49 HAX        -4.1510   -0.7040   -7.1840 hc        1 ZTX      0.063200
     50 HAXA       -3.1110   -1.5440   -8.4080 hc        1 ZTX      0.063200
     51 HAY        -2.9280   -1.5950   -5.4340 h1        1 ZTX      0.050700
     52 HAYA       -2.0110   -2.6110   -6.6400 h1        1 ZTX      0.050700
     53 HAZ        -1.6140   -2.5070   -4.0890 ha        1 ZTX      0.138000
     54 HBA        -0.5120   -2.5650   -1.9150 ha        1 ZTX      0.141500
     55 HBH        -2.3900    1.2210    2.8470 h1        1 ZTX      0.050700
     56 HBHA       -3.1320   -0.2920    3.5620 h1        1 ZTX      0.050700
     57 HBHB       -2.5720    1.0490    4.6620 h1        1 ZTX      0.050700
     58 OAA        -1.3350   -0.4180    6.0230 o         1 ZTX     -0.626500
@<TRIPOS>BOND
     1    1    2 ar  
     2    1    6 ar  
     3    2    3 ar  
     4    2   16 1   
     5    3    4 ar  
     6    4    5 ar  
     7    4   10 1   
     8    5    6 ar  
     9    5   30 1   
    10    6   32 1   
    11    7    8 1   
    12    7   30 1   
    13    7   58 2   
    14    8    9 ar  
    15    8   14 ar  
    16    9   10 1   
    17    9   15 ar  
    18   10   11 1   
    19   11   33 1   
    20   11   34 1   
    21   11   35 1   
    22   12   13 ar  
    23   12   15 ar  
    24   12   37 1   
    25   13   14 ar  
    26   13   38 1   
    27   14   39 1   
    28   15   36 1   
    29   16   17 1   
    30   16   40 1   
    31   17   18 ar  
    32   17   29 ar  
    33   18   19 ar  
    34   18   41 1   
    35   19   20 ar  
    36   19   42 1   
    37   20   21 1   
    38   20   28 ar  
    39   21   22 1   
    40   21   27 1   
    41   22   23 1   
    42   22   24 1   
    43   22   45 1   
    44   23   24 1   
    45   23   46 1   
    46   23   47 1   
    47   24   25 1   
    48   24   26 1   
    49   25   48 1   
    50   26   27 1   
    51   26   49 1   
    52   26   50 1   
    53   27   51 1   
    54   27   52 1   
    55   28   29 ar  
    56   28   53 1   
    57   29   54 1   
    58   30   31 1   
    59   31   55 1   
    60   31   56 1   
    61   31   57 1   
    62   43   44 1   
@<TRIPOS>SUBSTRUCTURE
     1 ZTX         1 TEMP              0 ****  ****    0 ROOT
