@<TRIPOS>MOLECULE
ZTX
   58    54     1     0     0
SMALL
bcc


@<TRIPOS>ATOM
      1 N1         -1.0310   -1.2010    1.1870 n1        1 ZTX     -0.191000
      2 C2          0.3160   -0.9540    1.0040 c1        1 ZTX      0.147000
      3 N3          1.1080   -0.6060    2.0820 n1        1 ZTX     -0.249000
      4 C4          0.5600   -0.5050    3.3310 c1        1 ZTX      0.135000
      5 C5         -0.7780   -0.7510    3.5130 c1        1 ZTX     -0.072000
      6 C6         -1.5770   -1.1030    2.4210 c1        1 ZTX     -0.025000
      7 OAA        -1.1800   -0.0760    7.0070 o         1 ZTX     -0.359000
      8 CAB        -0.9210   -0.5520    5.9220 c1        1 ZTX      0.366000
      9 CAC        -0.1510   -1.8740    5.7100 c1        1 ZTX     -0.116000
     10 CAD         1.1470   -1.6310    5.3270 c1        1 ZTX      0.065000
     11 NAE         1.2430   -0.4060    4.5940 n3        1 ZTX     -0.185000
     12 CAF         2.6440   -0.0870    4.3640 c3        1 ZTX     -0.101000
     13 CAH         1.8760   -3.6420    6.4940 c1        1 ZTX     -0.129000
     14 CAI         0.5620   -3.8880    6.8820 c1        1 ZTX     -0.149000
     15 CAK        -0.4550   -3.0120    6.4960 c2        1 ZTX     -0.066000
     16 CAL         2.1780   -2.5200    5.7180 c1        1 ZTX     -0.129000
     17 NAN         1.0410   -1.1380   -0.2180 n3        1 ZTX     -0.209000
     18 CAO         0.5760   -0.5170   -1.4340 c2        1 ZTX     -0.004000
     19 CAP         0.7050    0.8500   -1.5990 c2        1 ZTX     -0.129000
     20 CAQ         0.4140    1.4390   -2.8400 c1        1 ZTX     -0.177000
     21 CAR        -0.0020    0.6510   -3.9000 c1        1 ZTX      0.067000
     22 NAS        -0.3650    1.2750   -5.1780 n3        1 ZTX     -0.250000
     23 CAT         0.7180    1.5700   -5.8410 c3        1 ZTX     -0.043500
     24 CAU         0.3930    2.3260   -7.1210 c3        1 ZTX     -0.204000
     25 CAV        -1.1030    2.1410   -7.5720 c3        1 ZTX      0.031000
     26 OAW        -1.4140    0.9100   -7.6970 oh        1 ZTX     -0.324000
     27 CAX        -1.7600    2.7900   -6.2840 c3        1 ZTX     -0.204000
     28 CAY        -1.4240    2.0320   -5.0130 c3        1 ZTX     -0.043500
     29 CAZ        -0.1320   -0.7240   -3.7360 c1        1 ZTX     -0.167000
     30 CBA         0.1570   -1.3110   -2.5020 c1        1 ZTX     -0.069000
     31 NBG        -1.3130    0.0360    4.6490 n3        1 ZTX     -0.261000
     32 CBH        -2.2260    1.1630    4.5110 c3        1 ZTX     -0.077000
     33 H6         -2.5300   -1.2780    2.5490 ha        1 ZTX      0.173000
     34 HAF         3.0950   -0.8620    3.9930 h1        1 ZTX      0.089333
     35 HAFA        3.0740    0.1650    5.2280 h1        1 ZTX      0.089333
     36 HAFB        2.7110    0.6680    3.7310 h1        1 ZTX      0.089333
     37 HAH         2.5870   -4.2560    6.7650 ha        1 ZTX      0.141000
     38 HAI         0.3520   -4.6720    7.4250 ha        1 ZTX      0.141000
     39 HAK        -1.3770   -3.1850    6.7690 ha        1 ZTX      0.158000
     40 HAL         3.0970   -2.3490    5.4470 ha        1 ZTX      0.141000
     41 HNAN        1.8050   -1.6340   -0.2230 hn        1 ZTX      0.225000
     42 HAP         1.0010    1.4110   -0.8450 ha        1 ZTX      0.130000
     43 HAQ         0.5070    2.4190   -2.9570 ha        1 ZTX      0.134000
     44 HAT         1.2960    2.1260   -5.2790 h1        1 ZTX      0.083500
     45 HATA        1.1880    0.7470   -6.0670 h1        1 ZTX      0.083500
     46 HAU         0.5650    3.2840   -6.9760 hc        1 ZTX      0.100750
     47 HAUA        0.9760    2.0050   -7.8310 hc        1 ZTX      0.100750
     48 HAV        -1.3020    2.6490   -8.3690 h1        1 ZTX      0.115000
     49 HOAW       -1.5950    0.7340   -8.5550 ho        1 ZTX      0.199000
     50 HAX        -1.4380    3.7170   -6.1970 hc        1 ZTX      0.100750
     51 HAXA       -2.7320    2.8020   -6.3980 hc        1 ZTX      0.100750
     52 HAY        -1.2510    2.6730   -4.2940 h1        1 ZTX      0.083500
     53 HAYA       -2.1810    1.4740   -4.7650 h1        1 ZTX      0.083500
     54 HAZ        -0.4260   -1.2800   -4.4840 ha        1 ZTX      0.138000
     55 HBA         0.0650   -2.2950   -2.3840 ha        1 ZTX      0.154000
     56 HBH        -3.1540    0.8330    4.4800 h1        1 ZTX      0.090667
     57 HBHA       -2.0220    1.6510    3.6790 h1        1 ZTX      0.090667
     58 HBHB       -2.1180    1.7670    5.2790 h1        1 ZTX      0.090667
@<TRIPOS>BOND
     1    1    6 1   
     2    2    3 1   
     3    2   17 1   
     4    4    5 1   
     5    4   11 1   
     6    5   31 1   
     7    6   33 1   
     8    7    8 1   
     9    8   31 1   
    10    9   10 1   
    11    9   15 1   
    12   10   11 1   
    13   11   12 1   
    14   12   34 1   
    15   12   35 1   
    16   12   36 1   
    17   13   16 1   
    18   13   37 1   
    19   14   15 1   
    20   14   38 1   
    21   15   39 1   
    22   16   40 1   
    23   17   18 1   
    24   17   41 1   
    25   18   19 1   
    26   18   30 1   
    27   19   20 1   
    28   19   42 1   
    29   20   43 1   
    30   21   22 1   
    31   21   29 1   
    32   22   23 1   
    33   22   28 1   
    34   23   24 1   
    35   23   44 1   
    36   23   45 1   
    37   24   25 1   
    38   24   46 1   
    39   24   47 1   
    40   25   26 1   
    41   25   27 1   
    42   25   48 1   
    43   26   49 1   
    44   27   28 1   
    45   27   50 1   
    46   27   51 1   
    47   28   52 1   
    48   28   53 1   
    49   29   54 1   
    50   30   55 1   
    51   31   32 1   
    52   32   56 1   
    53   32   57 1   
    54   32   58 1   
@<TRIPOS>SUBSTRUCTURE
     1 ZTX         1 TEMP              0 ****  ****    0 ROOT
