@<TRIPOS>MOLECULE
ZTX
   58    62     1     0     0
SMALL
bcc


@<TRIPOS>ATOM
      1 N1         -0.4170   -0.5960    0.3030 nb        1 ZTX     -0.718000
      2 C2          0.9640   -0.5710    0.1820 ca        1 ZTX      0.866900
      3 N3          1.8350   -0.3370    1.2320 nb        1 ZTX     -0.774000
      4 C4          1.3010   -0.1150    2.4610 ca        1 ZTX      0.656200
      5 C5         -0.1220   -0.1080    2.6760 ca        1 ZTX     -0.210000
      6 C6         -0.9130   -0.3730    1.5230 ca        1 ZTX      0.440200
      7 CAB        -0.2870   -0.2530    5.1430 c         1 ZTX      0.729100
      8 CAC         0.9110   -1.1240    5.2710 ca        1 ZTX     -0.136600
      9 CAD         2.1030   -0.9170    4.5430 ca        1 ZTX      0.146600
     10 NAE         2.1600    0.1400    3.5830 na        1 ZTX     -0.617700
     11 CAF         3.4750    0.6670    3.2890 c3        1 ZTX      0.175100
     12 CAH         3.1360   -2.7360    5.7880 ca        1 ZTX     -0.092000
     13 CAI         1.9520   -2.9440    6.4930 ca        1 ZTX     -0.149000
     14 CAK         0.8490   -2.1350    6.2390 ca        1 ZTX     -0.066000
     15 CAL         3.2170   -1.7380    4.8220 ca        1 ZTX     -0.166000
     16 NAN         1.5610   -0.8840   -1.0630 nh        1 ZTX     -0.691300
     17 CAO         0.8500   -0.6890   -2.2740 ca        1 ZTX      0.088600
     18 CAP         1.3320    0.2160   -3.2440 ca        1 ZTX     -0.108000
     19 CAQ         0.7000    0.3510   -4.4700 ca        1 ZTX     -0.158000
     20 CAR        -0.4580   -0.4010   -4.7800 ca        1 ZTX      0.132600
     21 NAS        -1.0360   -0.2860   -6.0710 nh        1 ZTX     -0.637000
     22 CAT        -1.4440    1.0610   -6.4460 c3        1 ZTX      0.189300
     23 CAU        -1.8140    1.1790   -7.9230 c3        1 ZTX     -0.099400
     24 CAV        -2.8700    0.1440   -8.2900 c3        1 ZTX      0.141100
     25 OAW        -3.0770    0.2530   -9.6920 oh        1 ZTX     -0.596800
     26 CAX        -2.3960   -1.2530   -7.9060 c3        1 ZTX     -0.099400
     27 CAY        -2.0070   -1.3060   -6.4300 c3        1 ZTX      0.189300
     28 CAZ        -0.9390   -1.2970   -3.8020 ca        1 ZTX     -0.158000
     29 CBA        -0.2950   -1.4480   -2.5790 ca        1 ZTX     -0.108000
     30 NBG        -0.7280    0.2050    3.9020 n         1 ZTX     -0.358000
     31 CBH        -1.9000    1.0480    3.8530 c3        1 ZTX      0.078300
     32 H6         -2.0180   -0.3920    1.5900 h4        1 ZTX      0.036100
     33 HAF         3.9680    0.9260    4.2630 h1        1 ZTX      0.050033
     34 HAFA        4.1350   -0.0430    2.7230 h1        1 ZTX      0.050033
     35 HAFB        3.3460    1.6000    2.6800 h1        1 ZTX      0.050033
     36 HAH         4.0160   -3.3660    5.9910 ha        1 ZTX      0.138000
     37 HAI         1.8900   -3.7370    7.2520 ha        1 ZTX      0.141000
     38 HAK        -0.0850   -2.2660    6.8110 ha        1 ZTX      0.158000
     39 HAL         4.1620   -1.5980    4.2750 ha        1 ZTX      0.144000
     40 HNAN        2.5280   -0.6270   -1.1230 hn        1 ZTX      0.431800
     41 HAP         2.2310    0.8210   -3.0420 ha        1 ZTX      0.143000
     42 HAQ         1.1220    1.0500   -5.2080 ha        1 ZTX      0.138000
     43 HAT        -2.3270    1.3990   -5.8270 h1        1 ZTX      0.039200
     44 HATA       -0.5900    1.7640   -6.2360 h1        1 ZTX      0.039200
     45 HAU        -0.9110    1.0290   -8.5700 hc        1 ZTX      0.060700
     46 HAUA       -2.2090    2.2080   -8.1170 hc        1 ZTX      0.060700
     47 HAV        -3.8370    0.3750   -7.7580 h1        1 ZTX      0.031700
     48 HOAW       -3.6790   -0.4590   -9.9410 ho        1 ZTX      0.400000
     49 HAX        -1.5220   -1.5350   -8.5490 hc        1 ZTX      0.060700
     50 HAXA       -3.2110   -2.0000   -8.0850 hc        1 ZTX      0.060700
     51 HAY        -1.5480   -2.3130   -6.2160 h1        1 ZTX      0.039200
     52 HAYA       -2.9500   -1.2140   -5.8120 h1        1 ZTX      0.039200
     53 HAZ        -1.8380   -1.9040   -3.9880 ha        1 ZTX      0.138000
     54 HBA        -0.6990   -2.1670   -1.8490 ha        1 ZTX      0.143000
     55 HBH        -1.8340    1.7450    2.9770 h1        1 ZTX      0.051367
     56 HBHA       -1.9740    1.6470    4.8000 h1        1 ZTX      0.051367
     57 HBHB       -2.8250    0.4170    3.7550 h1        1 ZTX      0.051367
     58 OAA        -0.9430    0.0630    6.1580 o         1 ZTX     -0.633500
@<TRIPOS>BOND
     1    1    2 ar  
     2    1    6 ar  
     3    2    3 ar  
     4    2   16 1   
     5    3    4 ar  
     6    4    5 ar  
     7    4   10 1   
     8    5    6 ar  
     9    5   30 1   
    10    6   32 1   
    11    7    8 1   
    12    7   30 1   
    13    7   58 2   
    14    8    9 ar  
    15    8   14 ar  
    16    9   10 1   
    17    9   15 ar  
    18   10   11 1   
    19   11   33 1   
    20   11   34 1   
    21   11   35 1   
    22   12   13 ar  
    23   12   15 ar  
    24   12   36 1   
    25   13   14 ar  
    26   13   37 1   
    27   14   38 1   
    28   15   39 1   
    29   16   17 1   
    30   16   40 1   
    31   17   18 ar  
    32   17   29 ar  
    33   18   19 ar  
    34   18   41 1   
    35   19   20 ar  
    36   19   42 1   
    37   20   21 1   
    38   20   28 ar  
    39   21   22 1   
    40   21   27 1   
    41   22   23 1   
    42   22   43 1   
    43   22   44 1   
    44   23   24 1   
    45   23   45 1   
    46   23   46 1   
    47   24   25 1   
    48   24   26 1   
    49   24   47 1   
    50   25   48 1   
    51   26   27 1   
    52   26   49 1   
    53   26   50 1   
    54   27   51 1   
    55   27   52 1   
    56   28   29 ar  
    57   28   53 1   
    58   29   54 1   
    59   30   31 1   
    60   31   55 1   
    61   31   56 1   
    62   31   57 1   
@<TRIPOS>SUBSTRUCTURE
     1 ZTX         1 TEMP              0 ****  ****    0 ROOT
