@<TRIPOS>MOLECULE
ZTX
   58    62     1     0     0
SMALL
bcc


@<TRIPOS>ATOM
      1 N1         -0.5270   -0.9080    0.2130 nb        1 ZTX     -0.713000
      2 C2          0.8420   -0.6990    0.1270 ca        1 ZTX      0.864900
      3 N3          1.6410   -0.3270    1.1930 nb        1 ZTX     -0.774000
      4 C4          1.0460   -0.1570    2.4030 ca        1 ZTX      0.661200
      5 C5         -0.3680   -0.3460    2.5850 ca        1 ZTX     -0.204000
      6 C6         -1.0810   -0.7370    1.4150 ca        1 ZTX      0.437200
      7 CAB        -0.5920   -0.5720    5.0330 c         1 ZTX      0.737100
      8 CAC         0.7420   -1.1750    5.1690 ca        1 ZTX     -0.185600
      9 CAD         1.9150   -0.7460    4.5420 ca        1 ZTX      0.207600
     10 NAE         1.8510    0.2330    3.5260 na        1 ZTX     -0.633700
     11 CAF         3.0390    1.0040    3.2420 c3        1 ZTX      0.185100
     12 CAH         3.3510   -2.3220    5.8120 ca        1 ZTX     -0.043000
     13 CAI         2.0290   -2.9570    5.7740 ca        1 ZTX     -0.207000
     14 CAK         1.0400   -2.1130    6.2460 ca        1 ZTX     -0.079000
     15 CAL         3.2570   -1.2030    5.0410 ca        1 ZTX     -0.195000
     16 NAN         1.5120   -0.9590   -1.0930 nu        1 ZTX     -0.687300
     17 CAO         0.8130   -0.8740   -2.3250 ca        1 ZTX      0.070600
     18 CAP         1.1870    0.0820   -3.2930 ca        1 ZTX     -0.095000
     19 CAQ         0.5670    0.1240   -4.5320 ca        1 ZTX     -0.177500
     20 CAR        -0.4750   -0.7790   -4.8580 ca        1 ZTX      0.157600
     21 NAS        -1.0420   -0.7870   -6.1440 nh        1 ZTX     -0.608000
     22 CAT        -1.1150    0.4510   -6.8870 cx        1 ZTX      0.095500
     23 CAU        -0.9950    0.3810   -8.4010 cx        1 ZTX     -0.087400
     24 CAV        -2.3690    0.4430   -7.7840 cx        1 ZTX      0.061800
     25 OAW        -3.1230    1.5750   -8.0420 oh        1 ZTX     -0.542800
     26 CAX        -3.0890   -0.8600   -7.5080 c3        1 ZTX     -0.089400
     27 CAY        -2.2860   -1.5340   -6.3700 c3        1 ZTX      0.181800
     28 CAZ        -0.8330   -1.7430   -3.8870 ca        1 ZTX     -0.177500
     29 CBA        -0.2020   -1.7920   -2.6510 ca        1 ZTX     -0.095000
     30 NBG        -1.0420   -0.1090    3.7910 n         1 ZTX     -0.366000
     31 CBH        -2.3570    0.4800    3.7080 c3        1 ZTX      0.079300
     32 H6         -2.1760   -0.9070    1.4540 h4        1 ZTX      0.037100
     33 HAF         3.8620    0.3970    2.7770 h1        1 ZTX      0.051367
     34 HAFA        2.7640    1.8350    2.5400 h1        1 ZTX      0.051367
     35 HAFB        3.4050    1.4500    4.2050 h1        1 ZTX      0.051367
     36 HAH         4.1340   -0.5900    4.7980 ha        1 ZTX      0.148000
     37 HAI         4.2400   -2.6960    6.3210 ha        1 ZTX      0.156000
     38 HAK         1.8450   -3.5020    4.8250 ha        1 ZTX      0.123000
     39 HAL         0.8020   -1.8590    7.2820 ha        1 ZTX      0.166000
     40 HNAN        2.4380   -0.5790   -1.1350 hn        1 ZTX      0.430800
     41 HAP         1.9900    0.8060   -3.0800 ha        1 ZTX      0.141500
     42 HAQ         0.9150    0.8660   -5.2690 ha        1 ZTX      0.138000
     43 HAT         1.6050    2.3790   -7.0210 ha        1 ZTX      0.000500
     44 HATA        1.1480    2.0420   -7.3910 ha        1 ZTX      0.000500
     45 HAU        -0.7650    1.3630   -6.3690 h1        1 ZTX      0.105700
     46 HAUA       -0.6810   -0.5550   -8.8960 hc        1 ZTX      0.087700
     47 HAV        -0.6150    1.2850   -8.9110 hc        1 ZTX      0.087700
     48 HOAW       -3.7200    1.6900   -7.2900 ho        1 ZTX      0.407000
     49 HAX        -4.1430   -0.6740   -7.1900 hc        1 ZTX      0.063200
     50 HAXA       -3.1020   -1.5090   -8.4170 hc        1 ZTX      0.063200
     51 HAY        -2.9230   -1.5740   -5.4430 h1        1 ZTX      0.050700
     52 HAYA       -2.0050   -2.5850   -6.6520 h1        1 ZTX      0.050700
     53 HAZ        -1.6100   -2.4930   -4.1000 ha        1 ZTX      0.138000
     54 HBA        -0.5110   -2.5610   -1.9260 ha        1 ZTX      0.141500
     55 HBH        -2.3950    1.2030    2.8510 h1        1 ZTX      0.050700
     56 HBHA       -3.1380   -0.3140    3.5580 h1        1 ZTX      0.050700
     57 HBHB       -2.5790    1.0240    4.6650 h1        1 ZTX      0.050700
     58 OAA        -1.3440   -0.4490    6.0220 o         1 ZTX     -0.626500
@<TRIPOS>BOND
     1    1    2 ar  
     2    1    6 ar  
     3    2    3 ar  
     4    2   16 1   
     5    3    4 ar  
     6    4    5 ar  
     7    4   10 1   
     8    5    6 ar  
     9    5   30 1   
    10    6   32 1   
    11    7    8 1   
    12    7   30 1   
    13    7   58 2   
    14    8    9 ar  
    15    8   14 ar  
    16    9   10 1   
    17    9   15 ar  
    18   10   11 1   
    19   11   33 1   
    20   11   34 1   
    21   11   35 1   
    22   12   13 ar  
    23   12   15 ar  
    24   12   37 1   
    25   13   14 ar  
    26   13   38 1   
    27   14   39 1   
    28   15   36 1   
    29   16   17 1   
    30   16   40 1   
    31   17   18 ar  
    32   17   29 ar  
    33   18   19 ar  
    34   18   41 1   
    35   19   20 ar  
    36   19   42 1   
    37   20   21 1   
    38   20   28 ar  
    39   21   22 1   
    40   21   27 1   
    41   22   23 1   
    42   22   24 1   
    43   22   45 1   
    44   23   24 1   
    45   23   46 1   
    46   23   47 1   
    47   24   25 1   
    48   24   26 1   
    49   25   48 1   
    50   26   27 1   
    51   26   49 1   
    52   26   50 1   
    53   27   51 1   
    54   27   52 1   
    55   28   29 ar  
    56   28   53 1   
    57   29   54 1   
    58   30   31 1   
    59   31   55 1   
    60   31   56 1   
    61   31   57 1   
    62   43   44 1   
@<TRIPOS>SUBSTRUCTURE
     1 ZTX         1 TEMP              0 ****  ****    0 ROOT
