@<TRIPOS>MOLECULE
ZU0
   28    27     1     0     0
SMALL
bcc


@<TRIPOS>ATOM
      1 N          -1.8150   -0.9830   -1.2560 n3        1 ZU0     -0.895800
      2 CA         -1.4620   -0.7670    0.1380 c3        1 ZU0      0.017500
      3 C          -1.7630    0.6680    0.6820 c         1 ZU0      0.889600
      4 O          -2.2410    1.5300   -0.1080 o         1 ZU0     -0.846800
      5 CB         -0.0070   -1.1390    0.4980 c3        1 ZU0      0.142100
      6 O3          0.9030   -0.6970   -0.5180 os        1 ZU0     -0.436600
      7 C4          0.1660   -2.6470    0.5970 c3        1 ZU0     -0.096100
      8 OXT        -1.5200    0.8820    1.9050 o         1 ZU0     -0.846800
      9 C5          1.8360    0.3240   -0.1420 c3        1 ZU0      0.162800
     10 C6          2.8120   -0.2020    0.9050 c3        1 ZU0     -0.112767
     11 C7          2.5900    0.6240   -1.4390 c3        1 ZU0     -0.112767
     12 C8          1.1390    1.5810    0.3530 c3        1 ZU0     -0.112767
     13 H          -2.5020   -0.2880   -1.5060 hn        1 ZU0      0.339800
     14 H2         -1.0070   -0.8110   -1.8290 hn        1 ZU0      0.339800
     15 HA         -2.1240   -1.4600    0.7390 h1        1 ZU0      0.043700
     16 H3          0.2220   -0.6610    1.4910 h1        1 ZU0      0.075700
     17 H4         -0.0880   -3.1300   -0.3760 hc        1 ZU0      0.026700
     18 H5          1.2240   -2.8960    0.8540 hc        1 ZU0      0.026700
     19 H6         -0.5080   -3.0490    1.3890 hc        1 ZU0      0.026700
     20 H7          3.2550   -1.1670    0.5640 hc        1 ZU0      0.041033
     21 H8          3.6280    0.5400    1.0670 hc        1 ZU0      0.041033
     22 H9          2.2880   -0.3750    1.8760 hc        1 ZU0      0.041033
     23 H10         1.8780    1.0080   -2.2070 hc        1 ZU0      0.041033
     24 H11         3.3740    1.3930   -1.2440 hc        1 ZU0      0.041033
     25 H12         3.0710   -0.3030   -1.8270 hc        1 ZU0      0.041033
     26 H13         0.6910    1.4230    1.3670 hc        1 ZU0      0.041033
     27 H14         1.8660    2.4250    0.3990 hc        1 ZU0      0.041033
     28 H15         0.2940    1.8460   -0.3320 hc        1 ZU0      0.041033
@<TRIPOS>BOND
     1    1    2 1   
     2    1   13 1   
     3    1   14 1   
     4    2    3 1   
     5    2    5 1   
     6    2   15 1   
     7    3    4 1   
     8    3    8 1   
     9    5    6 1   
    10    5    7 1   
    11    5   16 1   
    12    6    9 1   
    13    7   17 1   
    14    7   18 1   
    15    7   19 1   
    16    9   10 1   
    17    9   11 1   
    18    9   12 1   
    19   10   20 1   
    20   10   21 1   
    21   10   22 1   
    22   11   23 1   
    23   11   24 1   
    24   11   25 1   
    25   12   26 1   
    26   12   27 1   
    27   12   28 1   
@<TRIPOS>SUBSTRUCTURE
     1 ZU0         1 TEMP              0 ****  ****    0 ROOT
