@<TRIPOS>MOLECULE
ZU3
   93    94     1     0     0
SMALL
bcc


@<TRIPOS>ATOM
      1 C17         3.8310   -0.0340    0.6200 c         1 ZU3      0.726100
      2 O19         3.9990    0.2620    1.8160 o         1 ZU3     -0.591000
      3 O15         4.7580   -0.8350   -0.0090 os        1 ZU3     -0.431900
      4 C13         5.8970   -1.1910    0.8020 c3        1 ZU3      0.196700
      5 C4          6.8300   -1.9800   -0.0530 ca        1 ZU3     -0.098300
      6 C6          6.3550   -2.8250   -1.0600 ca        1 ZU3     -0.111000
      7 C8          7.2500   -3.5780   -1.8200 ca        1 ZU3     -0.132000
      8 C10         8.6200   -3.4940   -1.5740 ca        1 ZU3     -0.124000
      9 C1          9.0960   -2.6510   -0.5690 ca        1 ZU3     -0.132000
     10 C2          8.2060   -1.8910    0.1880 ca        1 ZU3     -0.111000
     11 N21         2.8350    0.4180   -0.2370 n         1 ZU3     -0.495900
     12 C23         1.5990    0.8930    0.3400 c3        1 ZU3     -0.007300
     13 C25         1.0200    2.1070   -0.4500 c3        1 ZU3      0.081000
     14 N27         1.9200    3.2070   -0.6020 n         1 ZU3     -0.549900
     15 C29         2.5310    3.4890   -1.8180 c         1 ZU3      0.660100
     16 C31         0.4860   -0.1850    0.3340 c         1 ZU3      0.629100
     17 O35         0.5010   -1.1240   -0.4860 o         1 ZU3     -0.603100
     18 O43         2.1570    2.9230   -2.8630 o         1 ZU3     -0.600100
     19 C45         3.6220    4.5690   -1.8270 c3        1 ZU3     -0.117000
     20 C76         4.1030    4.7540   -3.2600 c3        1 ZU3     -0.087433
     21 C78         3.0510    5.8820   -1.3130 c3        1 ZU3     -0.087433
     22 C80         4.7880    4.1260   -0.9580 c3        1 ZU3     -0.087433
     23 N33        -0.4930   -0.0640    1.2950 n         1 ZU3     -0.540900
     24 C37        -1.6900   -0.8700    1.2800 c3        1 ZU3      0.030700
     25 C39        -2.9460    0.0230    1.0780 c         1 ZU3      0.633100
     26 O47        -2.9440    1.2300    1.4090 o         1 ZU3     -0.644100
     27 C41        -1.9110   -1.6660    2.5760 c3        1 ZU3     -0.079400
     28 C51        -0.7870   -2.6400    2.8930 c3        1 ZU3     -0.064700
     29 C53        -1.0990   -3.3580    4.1920 c3        1 ZU3     -0.097100
     30 C55        -0.5750   -3.6400    1.7760 c3        1 ZU3     -0.097100
     31 N49        -4.0590   -0.5850    0.5550 n         1 ZU3     -0.559900
     32 C57        -5.2420    0.1620    0.1850 c3        1 ZU3      0.103700
     33 C59        -5.8960   -0.3670   -1.1070 c3        1 ZU3     -0.082400
     34 C61        -4.9380   -0.4550   -2.2760 c3        1 ZU3     -0.141700
     35 C63        -6.3250    0.1710    1.2780 c3        1 ZU3     -0.086400
     36 C65        -4.3950   -1.8800   -2.4630 c         1 ZU3      0.701500
     37 O66        -3.8500   -2.5810   -1.5920 o         1 ZU3     -0.655500
     38 N69        -4.6030   -2.2920   -3.7650 n         1 ZU3     -0.577900
     39 C71        -5.2600   -1.2900   -4.5690 c3        1 ZU3      0.090000
     40 C73        -5.5930   -0.1140   -3.6240 c3        1 ZU3     -0.093400
     41 C82        -5.8380    0.8300    2.5480 c3        1 ZU3     -0.186400
     42 C84        -6.9570    1.2770    3.4430 c         1 ZU3      0.567100
     43 C86        -6.5420    1.6330    4.8350 c3        1 ZU3     -0.204100
     44 O88        -8.1320    1.3580    3.0680 o         1 ZU3     -0.541100
     45 H13         5.5320   -1.8020    1.6710 h1        1 ZU3      0.064200
     46 H13A        6.3750   -0.2510    1.1870 h1        1 ZU3      0.064200
     47 H6          5.2730   -2.8850   -1.2540 ha        1 ZU3      0.139500
     48 H8          6.8720   -4.2390   -2.6140 ha        1 ZU3      0.133000
     49 H10         9.3250   -4.0900   -2.1710 ha        1 ZU3      0.132000
     50 H1         10.1770   -2.5820   -0.3750 ha        1 ZU3      0.133000
     51 H2          8.5850   -1.2230    0.9750 ha        1 ZU3      0.139500
     52 HN21        2.7470   -0.0640   -1.1100 hn        1 ZU3      0.337500
     53 H23         1.8140    1.2120    1.4050 h1        1 ZU3      0.101700
     54 H25         0.6840    1.7580   -1.4690 h1        1 ZU3      0.080200
     55 H25A        0.1180    2.4650    0.1280 h1        1 ZU3      0.080200
     56 HN27        2.3690    3.5290    0.2240 hn        1 ZU3      0.306500
     57 H76         3.2520    5.0620   -3.9140 hc        1 ZU3      0.044478
     58 H76A        4.8960    5.5380   -3.2970 hc        1 ZU3      0.044478
     59 H76B        4.5160    3.7940   -3.6530 hc        1 ZU3      0.044478
     60 H78         2.7930    5.8140   -0.2300 hc        1 ZU3      0.044478
     61 H78A        3.8060    6.6950   -1.4430 hc        1 ZU3      0.044478
     62 H78B        2.1310    6.1540   -1.8850 hc        1 ZU3      0.044478
     63 H80         5.1300    3.1060   -1.2560 hc        1 ZU3      0.044478
     64 H80A        5.6410    4.8370   -1.0840 hc        1 ZU3      0.044478
     65 H80B        4.5070    4.1100    0.1220 hc        1 ZU3      0.044478
     66 HN33       -0.5380    0.7680    1.8410 hn        1 ZU3      0.325500
     67 H37        -1.6100   -1.6020    0.4150 h1        1 ZU3      0.116700
     68 H41        -2.0350   -0.9560    3.4350 hc        1 ZU3      0.052200
     69 H41A       -2.8700   -2.2380    2.4630 hc        1 ZU3      0.052200
     70 H51         0.1680   -2.0580    3.0350 hc        1 ZU3      0.055700
     71 H53        -2.0280   -3.9690    4.0900 hc        1 ZU3      0.038033
     72 H53A       -0.2580   -4.0380    4.4660 hc        1 ZU3      0.038033
     73 H53B       -1.2460   -2.6240    5.0200 hc        1 ZU3      0.038033
     74 H55        -1.5350   -4.1410    1.5060 hc        1 ZU3      0.038033
     75 H55A       -0.1670   -3.1330    0.8660 hc        1 ZU3      0.038033
     76 H55B        0.1540   -4.4230    2.0970 hc        1 ZU3      0.038033
     77 HN49       -4.0010   -1.5330    0.2470 hn        1 ZU3      0.344500
     78 H57        -4.9250    1.2370    0.0090 h1        1 ZU3      0.073700
     79 H59        -6.3520   -1.3730   -0.9100 hc        1 ZU3      0.062200
     80 H59A       -6.7320    0.3390   -1.3580 hc        1 ZU3      0.062200
     81 H61        -4.0560    0.2220   -2.1070 hc        1 ZU3      0.090700
     82 H63        -7.2130    0.7350    0.8830 hc        1 ZU3      0.059200
     83 H63A       -6.6630   -0.8740    1.4970 hc        1 ZU3      0.059200
     84 HN69       -4.2740   -3.1440   -4.1380 hn        1 ZU3      0.337500
     85 H71        -4.5860   -0.9520   -5.4040 h1        1 ZU3      0.046200
     86 H71A       -6.1960   -1.7150   -5.0260 h1        1 ZU3      0.046200
     87 H73        -6.7010   -0.0070   -3.5240 hc        1 ZU3      0.060700
     88 H73A       -5.1870    0.8410   -4.0320 hc        1 ZU3      0.060700
     89 H82        -5.1740    0.1270    3.1180 hc        1 ZU3      0.079700
     90 H82A       -5.2100    1.7310    2.2970 hc        1 ZU3      0.079700
     91 H86        -5.6430    2.2950    4.8100 hc        1 ZU3      0.063367
     92 H86A       -7.3680    2.1560    5.3750 hc        1 ZU3      0.063367
     93 H86B       -6.2820    0.7000    5.3930 hc        1 ZU3      0.063367
@<TRIPOS>BOND
     1    1    2 2   
     2    1    3 1   
     3    1   11 1   
     4    3    4 1   
     5    4    5 1   
     6    4   45 1   
     7    4   46 1   
     8    5    6 ar  
     9    5   10 ar  
    10    6    7 ar  
    11    6   47 1   
    12    7    8 ar  
    13    7   48 1   
    14    8    9 ar  
    15    8   49 1   
    16    9   10 ar  
    17    9   50 1   
    18   10   51 1   
    19   11   12 1   
    20   11   52 1   
    21   12   13 1   
    22   12   16 1   
    23   12   53 1   
    24   13   14 1   
    25   13   54 1   
    26   13   55 1   
    27   14   15 1   
    28   14   56 1   
    29   15   18 2   
    30   15   19 1   
    31   16   17 2   
    32   16   23 1   
    33   19   20 1   
    34   19   21 1   
    35   19   22 1   
    36   20   57 1   
    37   20   58 1   
    38   20   59 1   
    39   21   60 1   
    40   21   61 1   
    41   21   62 1   
    42   22   63 1   
    43   22   64 1   
    44   22   65 1   
    45   23   24 1   
    46   23   66 1   
    47   24   25 1   
    48   24   27 1   
    49   24   67 1   
    50   25   26 2   
    51   25   31 1   
    52   27   28 1   
    53   27   68 1   
    54   27   69 1   
    55   28   29 1   
    56   28   30 1   
    57   28   70 1   
    58   29   71 1   
    59   29   72 1   
    60   29   73 1   
    61   30   74 1   
    62   30   75 1   
    63   30   76 1   
    64   31   32 1   
    65   31   77 1   
    66   32   33 1   
    67   32   35 1   
    68   32   78 1   
    69   33   34 1   
    70   33   79 1   
    71   33   80 1   
    72   34   36 1   
    73   34   40 1   
    74   34   81 1   
    75   35   41 1   
    76   35   82 1   
    77   35   83 1   
    78   36   37 2   
    79   36   38 1   
    80   38   39 1   
    81   38   84 1   
    82   39   40 1   
    83   39   85 1   
    84   39   86 1   
    85   40   87 1   
    86   40   88 1   
    87   41   42 1   
    88   41   89 1   
    89   41   90 1   
    90   42   43 1   
    91   42   44 2   
    92   43   91 1   
    93   43   92 1   
    94   43   93 1   
@<TRIPOS>SUBSTRUCTURE
     1 ZU3         1 TEMP              0 ****  ****    0 ROOT
