@<TRIPOS>MOLECULE
ZU4
   43    44     1     0     0
SMALL
bcc


@<TRIPOS>ATOM
      1 O17        -1.2140   -2.7510   -0.7380 o         1 ZU4     -0.658500
      2 C6         -0.5440   -1.7270   -0.4850 c         1 ZU4      0.688700
      3 C1          0.7840   -1.7530    0.1230 cc        1 ZU4     -0.262200
      4 C2          1.4670   -0.6060    0.3980 cd        1 ZU4      0.021800
      5 C16         2.8120   -0.6260    1.0350 c3        1 ZU4     -0.050200
      6 C17         3.8950   -0.1690    0.0760 c3        1 ZU4     -0.075400
      7 C18         5.2480   -0.1520    0.7550 c3        1 ZU4     -0.080400
      8 C19         6.3330    0.2990   -0.1990 c3        1 ZU4     -0.079400
      9 C20         7.6870    0.3180    0.4770 c3        1 ZU4     -0.080400
     10 C21         8.7710    0.7660   -0.4690 c3        1 ZU4     -0.093100
     11 C3          0.8680    0.6560    0.0830 cd        1 ZU4     -0.250000
     12 C4         -0.3750    0.6910   -0.4940 cc        1 ZU4      0.017600
     13 C8         -4.1430    1.0500   -0.1940 ca        1 ZU4      0.028400
     14 C9         -5.2150    1.1440    0.7020 ca        1 ZU4     -0.130000
     15 C10        -5.6570    0.0060    1.3730 ca        1 ZU4     -0.113000
     16 C11        -5.0330   -1.2220    1.1550 ca        1 ZU4     -0.131000
     17 C12        -3.9700   -1.3140    0.2600 ca        1 ZU4     -0.099000
     18 C13        -3.5170   -0.1810   -0.4290 ca        1 ZU4     -0.109300
     19 NAD        -1.0800   -0.4540   -0.8050 n         1 ZU4     -0.341000
     20 C14        -2.3930   -0.3510   -1.4130 c3        1 ZU4      0.123300
     21 H1          1.1790   -2.7540    0.3440 ha        1 ZU4      0.162000
     22 H161        2.7980    0.0510    1.9330 hc        1 ZU4      0.055200
     23 H162        3.0510   -1.6610    1.4010 hc        1 ZU4      0.055200
     24 H3          1.4050    1.5860    0.3060 ha        1 ZU4      0.151000
     25 H171        3.9270   -0.8560   -0.8100 hc        1 ZU4      0.046200
     26 H172        3.6500    0.8570   -0.3070 hc        1 ZU4      0.046200
     27 H181        5.2160    0.5360    1.6410 hc        1 ZU4      0.040700
     28 H182        5.4880   -1.1770    1.1410 hc        1 ZU4      0.040700
     29 H191        6.3650   -0.3900   -1.0840 hc        1 ZU4      0.040700
     30 H192        6.0920    1.3240   -0.5870 hc        1 ZU4      0.040700
     31 H201        7.6530    1.0060    1.3630 hc        1 ZU4      0.038700
     32 H202        7.9260   -0.7070    0.8660 hc        1 ZU4      0.038700
     33 H211        8.8380    0.0780   -1.3460 hc        1 ZU4      0.033367
     34 H212        8.5640    1.7960   -0.8470 hc        1 ZU4      0.033367
     35 H213        9.7600    0.7730    0.0500 hc        1 ZU4      0.033367
     36 H4         -0.8730    1.6480   -0.7430 h4        1 ZU4      0.159000
     37 H9         -5.7050    2.1140    0.8760 ha        1 ZU4      0.148000
     38 H10        -6.4980    0.0820    2.0780 ha        1 ZU4      0.138000
     39 H11        -5.3790   -2.1200    1.6890 ha        1 ZU4      0.141000
     40 H12        -3.4650   -2.2800    0.0830 ha        1 ZU4      0.169000
     41 H141       -2.5740   -1.3060   -1.9930 h1        1 ZU4      0.083700
     42 H142       -2.3830    0.5070   -2.1440 h1        1 ZU4      0.083700
     43 CL         -3.6300    2.4730   -0.9810 cl        1 ZU4     -0.106400
@<TRIPOS>BOND
     1    1    2 2   
     2    2    3 1   
     3    2   19 1   
     4    3    4 2   
     5    3   21 1   
     6    4    5 1   
     7    4   11 1   
     8    5    6 1   
     9    5   22 1   
    10    5   23 1   
    11    6    7 1   
    12    6   25 1   
    13    6   26 1   
    14    7    8 1   
    15    7   27 1   
    16    7   28 1   
    17    8    9 1   
    18    8   29 1   
    19    8   30 1   
    20    9   10 1   
    21    9   31 1   
    22    9   32 1   
    23   10   33 1   
    24   10   34 1   
    25   10   35 1   
    26   11   12 2   
    27   11   24 1   
    28   12   19 1   
    29   12   36 1   
    30   13   14 ar  
    31   13   18 ar  
    32   13   43 1   
    33   14   15 ar  
    34   14   37 1   
    35   15   16 ar  
    36   15   38 1   
    37   16   17 ar  
    38   16   39 1   
    39   17   18 ar  
    40   17   40 1   
    41   18   20 1   
    42   19   20 1   
    43   20   41 1   
    44   20   42 1   
@<TRIPOS>SUBSTRUCTURE
     1 ZU4         1 TEMP              0 ****  ****    0 ROOT
