@<TRIPOS>MOLECULE
ZU4
   43    44     1     0     0
SMALL
bcc


@<TRIPOS>ATOM
      1 O17        -0.2960    0.1000   -0.0860 o         1 ZU4     -0.658500
      2 C6          0.9440    0.0310    0.0480 c         1 ZU4      0.688700
      3 C1          1.6200   -0.0480    1.3410 cc        1 ZU4     -0.262200
      4 C2          2.9780   -0.1010    1.4370 cd        1 ZU4      0.021800
      5 C16         3.6730   -0.1610    2.7520 c3        1 ZU4     -0.050200
      6 C17         4.3390   -1.5060    2.9740 c3        1 ZU4     -0.075400
      7 C18         5.0780   -1.5320    4.2950 c3        1 ZU4     -0.080400
      8 C19         5.7400   -2.8730    4.5250 c3        1 ZU4     -0.079400
      9 C20         6.4810   -2.9020    5.8450 c3        1 ZU4     -0.080400
     10 C21         7.1400   -4.2370    6.0790 c3        1 ZU4     -0.093100
     11 C3          3.7630   -0.0800    0.2380 cd        1 ZU4     -0.250000
     12 C4          3.1390   -0.0130   -0.9800 cc        1 ZU4      0.017600
     13 C8          1.8940    2.0090   -3.9430 ca        1 ZU4      0.028400
     14 C9          1.7010    3.3010   -4.4450 ca        1 ZU4     -0.130000
     15 C10         0.6510    4.0810   -3.9650 ca        1 ZU4     -0.113000
     16 C11        -0.2050    3.5750   -2.9860 ca        1 ZU4     -0.131000
     17 C12        -0.0140    2.2880   -2.4920 ca        1 ZU4     -0.099000
     18 C13         1.0330    1.4880   -2.9680 ca        1 ZU4     -0.109300
     19 NAD         1.7650    0.0190   -1.1080 n         1 ZU4     -0.341000
     20 C14         1.1640    0.0920   -2.4260 c3        1 ZU4      0.123300
     21 H1          0.9570   -0.0520    2.2170 ha        1 ZU4      0.162000
     22 H161        4.4490    0.6520    2.7900 hc        1 ZU4      0.055200
     23 H162        2.9430    0.0350    3.5830 hc        1 ZU4      0.055200
     24 H3          4.8580   -0.1150    0.3030 ha        1 ZU4      0.151000
     25 H171        3.5640   -2.3170    2.9590 hc        1 ZU4      0.046200
     26 H172        5.0550   -1.7140    2.1350 hc        1 ZU4      0.046200
     27 H181        4.3620   -1.3170    5.1310 hc        1 ZU4      0.040700
     28 H182        5.8550   -0.7220    4.3080 hc        1 ZU4      0.040700
     29 H191        6.4550   -3.0890    3.6880 hc        1 ZU4      0.040700
     30 H192        4.9630   -3.6830    4.5120 hc        1 ZU4      0.040700
     31 H201        7.2560   -2.0920    5.8560 hc        1 ZU4      0.038700
     32 H202        5.7640   -2.6840    6.6800 hc        1 ZU4      0.038700
     33 H211        7.8760   -4.4610    5.2690 hc        1 ZU4      0.033367
     34 H212        6.3800   -5.0550    6.0960 hc        1 ZU4      0.033367
     35 H213        7.6800   -4.2370    7.0560 hc        1 ZU4      0.033367
     36 H4          3.7130    0.0140   -1.9260 h4        1 ZU4      0.159000
     37 H9          2.3780    3.7010   -5.2160 ha        1 ZU4      0.148000
     38 H10         0.5010    5.0960   -4.3600 ha        1 ZU4      0.138000
     39 H11        -1.0310    4.1920   -2.6040 ha        1 ZU4      0.141000
     40 H12        -0.6820    1.8790   -1.7130 ha        1 ZU4      0.169000
     41 H141        1.7700   -0.5460   -3.1320 h1        1 ZU4      0.083700
     42 H142        0.1270   -0.3560   -2.3510 h1        1 ZU4      0.083700
     43 CL          3.2010    1.0990   -4.5530 cl        1 ZU4     -0.106400
@<TRIPOS>BOND
     1    1    2 2   
     2    2    3 1   
     3    2   19 1   
     4    3    4 2   
     5    3   21 1   
     6    4    5 1   
     7    4   11 1   
     8    5    6 1   
     9    5   22 1   
    10    5   23 1   
    11    6    7 1   
    12    6   25 1   
    13    6   26 1   
    14    7    8 1   
    15    7   27 1   
    16    7   28 1   
    17    8    9 1   
    18    8   29 1   
    19    8   30 1   
    20    9   10 1   
    21    9   31 1   
    22    9   32 1   
    23   10   33 1   
    24   10   34 1   
    25   10   35 1   
    26   11   12 2   
    27   11   24 1   
    28   12   19 1   
    29   12   36 1   
    30   13   14 ar  
    31   13   18 ar  
    32   13   43 1   
    33   14   15 ar  
    34   14   37 1   
    35   15   16 ar  
    36   15   38 1   
    37   16   17 ar  
    38   16   39 1   
    39   17   18 ar  
    40   17   40 1   
    41   18   20 1   
    42   19   20 1   
    43   20   41 1   
    44   20   42 1   
@<TRIPOS>SUBSTRUCTURE
     1 ZU4         1 TEMP              0 ****  ****    0 ROOT
