@<TRIPOS>MOLECULE
ZU4
   43    56     1     0     0
SMALL
bcc


@<TRIPOS>ATOM
      1 O17         0.0000    0.0000    0.0000 o         1 ZU4     -0.226000
      2 C6          1.2200    0.0000    0.0000 c3        1 ZU4      0.230000
      3 C1          1.9240    0.0000    1.2170 c2        1 ZU4     -0.227000
      4 C2          3.2870   -0.0010    1.2000 c3        1 ZU4     -0.271000
      5 C16         4.0650   -0.0010    2.4910 DU        1 ZU4     -0.229000
      6 C17         4.4350   -1.4390    2.8640 DU        1 ZU4     -0.290000
      7 C18         5.2240   -1.4390    4.1740 DU        1 ZU4     -0.270000
      8 C19         5.5940   -2.8770    4.5460 DU        1 ZU4     -0.382000
      9 C20         6.3840   -2.8760    5.8560 DU        1 ZU4     -0.399000
     10 C21         6.7540   -4.3140    6.2290 c3        1 ZU4     -0.431000
     11 C3          3.9580   -0.0020   -0.0300 c3        1 ZU4     -0.402000
     12 C4          3.2510   -0.0020   -1.1850 c2        1 ZU4     -0.205000
     13 C8          1.8980    2.1240   -3.5010 c2        1 ZU4     -0.134000
     14 C9          1.6640    3.4270   -3.9060 c3        1 ZU4     -0.096000
     15 C10         0.4320    4.0100   -3.6800 c3        1 ZU4     -0.215000
     16 C11        -0.5680    3.2910   -3.0490 c3        1 ZU4     -0.182000
     17 C12        -0.3350    1.9900   -2.6450 c2        1 ZU4     -0.443000
     18 C13         0.8980    1.4060   -2.8710 c3        1 ZU4     -0.009000
     19 NAD         1.8930   -0.0060   -1.1670 n3        1 ZU4      0.185000
     20 C14         1.1520   -0.0120   -2.4300 c3        1 ZU4     -0.368000
     21 H1          2.2840    0.3270    0.2490 DU        1 ZU4      0.165000
     22 H161        2.9920    0.0630    2.3560 DU        1 ZU4      0.291000
     23 H162        4.9680    0.5840    2.3690 ha        1 ZU4      0.157000
     24 H3          3.7970    0.1380    1.0320 hc        1 ZU4      0.251000
     25 H171        4.6340   -0.9680    1.9080 DU        1 ZU4      0.394000
     26 H172        5.0410   -1.8710    2.0770 ha        1 ZU4      0.163000
     27 H181        4.3700   -1.7350    3.5770 DU        1 ZU4      0.235000
     28 H182        4.6170   -1.0070    4.9610 ha        1 ZU4      0.147000
     29 H191        5.8650   -1.8580    4.2970 DU        1 ZU4      0.180000
     30 H192        4.6900   -3.4620    4.6690 ha        1 ZU4      0.103000
     31 H201        6.2930   -3.0950    4.7990 DU        1 ZU4      0.227000
     32 H202        7.2870   -2.2910    5.7330 ha        1 ZU4      0.109000
     33 H211        6.2610   -3.3720    6.4390 DU        1 ZU4      0.225000
     34 H212        7.3550   -4.7480    5.4390 hc        1 ZU4      0.047500
     35 H213        5.8500   -4.8970    6.3570 hc        1 ZU4      0.047500
     36 H4          3.6820   -0.4580   -0.3020 DU        1 ZU4      0.079000
     37 H9          2.1840    2.5820   -3.4700 hc        1 ZU4      0.199000
     38 H10         1.4520    4.0010   -4.0440 DU        1 ZU4      0.199000
     39 H11        -0.1560    4.1710   -3.5280 DU        1 ZU4      0.203000
     40 H12        -0.9430    2.8800   -2.7590 DU        1 ZU4      0.239000
     41 H141        0.2410    0.5640   -2.3180 DU        1 ZU4      0.266000
     42 H142        0.9260   -0.8990   -3.0100 h1        1 ZU4      0.183000
     43 Cl          3.4440    1.3890   -3.7910 cl        1 ZU4      0.252000
@<TRIPOS>BOND
     1    1    2 1   
     2    2    3 1   
     3    2   19 1   
     4    2   21 1   
     5    3    4 1   
     6    3   21 1   
     7    4    5 1   
     8    4   11 1   
     9    4   22 1   
    10    5    6 1   
    11    5   22 1   
    12    5   23 1   
    13    5   25 1   
    14    6    7 1   
    15    6   25 1   
    16    6   26 1   
    17    6   27 1   
    18    7    8 1   
    19    7   27 1   
    20    7   28 1   
    21    7   29 1   
    22    8    9 1   
    23    8   29 1   
    24    8   30 1   
    25    8   31 1   
    26    9   10 1   
    27    9   31 1   
    28    9   32 1   
    29    9   33 1   
    30   10   33 1   
    31   10   34 1   
    32   10   35 1   
    33   11   12 1   
    34   11   24 1   
    35   11   36 1   
    36   12   19 1   
    37   12   36 1   
    38   13   14 1   
    39   13   18 1   
    40   13   43 1   
    41   14   15 1   
    42   14   37 1   
    43   14   38 1   
    44   15   16 1   
    45   15   38 1   
    46   15   39 1   
    47   16   17 1   
    48   16   39 1   
    49   16   40 1   
    50   17   18 1   
    51   17   40 1   
    52   18   20 1   
    53   18   41 1   
    54   19   20 1   
    55   20   41 1   
    56   20   42 1   
@<TRIPOS>SUBSTRUCTURE
     1 ZU4         1 TEMP              0 ****  ****    0 ROOT
