@<TRIPOS>MOLECULE
ZUK
   26    26     1     0     0
SMALL
bcc


@<TRIPOS>ATOM
      1 C           3.9120   -0.1970    0.0520 c         1 ZUK      0.887600
      2 N           2.4720    1.6340   -0.9650 n3        1 ZUK     -0.892800
      3 O           4.8590    0.6410    0.0320 o         1 ZUK     -0.844300
      4 CA          2.5230    0.2470   -0.5200 c3        1 ZUK      0.018500
      5 CB          1.4530   -0.0990    0.5150 c3        1 ZUK     -0.064400
      6 CD         -0.9670   -0.4610    0.9760 c3        1 ZUK     -0.121700
      7 CE         -2.3760   -0.2780    0.4440 ca        1 ZUK      0.666300
      8 CG          0.0500    0.0270   -0.0400 c3        1 ZUK     -0.073400
      9 CT         -4.8830    0.0810   -0.5670 ca        1 ZUK     -0.392600
     10 CH1        -4.1240   -1.0690   -0.8520 ca        1 ZUK      0.426700
     11 CH2        -4.2780    1.0310    0.2760 ca        1 ZUK      0.426700
     12 OXT         4.0150   -1.3790    0.4840 o         1 ZUK     -0.844300
     13 NZ1        -2.8870   -1.2660   -0.3620 nb        1 ZUK     -0.696500
     14 NZ2        -3.0440    0.8720    0.7870 nb        1 ZUK     -0.696500
     15 HN          2.4490    2.2280   -0.1550 hn        1 ZUK      0.330300
     16 HA          2.3440   -0.3870   -1.4370 h1        1 ZUK      0.041700
     17 HT         -5.8850    0.2280   -0.9790 ha        1 ZUK      0.142000
     18 HB          1.6450   -1.1560    0.8450 hc        1 ZUK      0.047700
     19 HD         -0.8480    0.1080    1.9350 hc        1 ZUK      0.064700
     20 HG         -0.1620    1.0960   -0.3030 hc        1 ZUK      0.047700
     21 HBA         1.5620    0.5590    1.4160 hc        1 ZUK      0.047700
     22 HDA        -0.7890   -1.5470    1.1990 hc        1 ZUK      0.064700
     23 HGA        -0.0380   -0.5760   -0.9810 hc        1 ZUK      0.047700
     24 HH1        -4.5190   -1.8700   -1.5020 h4        1 ZUK      0.016600
     25 HH2        -4.8010    1.9620    0.5570 h4        1 ZUK      0.016600
     26 HNA         3.3440    1.8280   -1.4310 hn        1 ZUK      0.330300
@<TRIPOS>BOND
     1    1    3 1   
     2    1    4 1   
     3    1   12 1   
     4    2    4 1   
     5    2   15 1   
     6    2   26 1   
     7    4    5 1   
     8    4   16 1   
     9    5    8 1   
    10    5   18 1   
    11    5   21 1   
    12    6    7 1   
    13    6    8 1   
    14    6   19 1   
    15    6   22 1   
    16    7   13 ar  
    17    7   14 ar  
    18    8   20 1   
    19    8   23 1   
    20    9   10 ar  
    21    9   11 ar  
    22    9   17 1   
    23   10   13 ar  
    24   10   24 1   
    25   11   14 ar  
    26   11   25 1   
@<TRIPOS>SUBSTRUCTURE
     1 ZUK         1 TEMP              0 ****  ****    0 ROOT
