@<TRIPOS>MOLECULE
ZUN
   51    53     1     0     0
SMALL
bcc


@<TRIPOS>ATOM
      1 CAA         0.1980   -0.5820   -0.3790 c3        1 ZUN     -0.139400
      2 CAW         1.6170   -0.9360   -0.2040 cc        1 ZUN      0.325600
      3 CAK         2.5010   -0.3590    0.8160 cc        1 ZUN     -0.321600
      4 NAQ         2.3300   -1.8140   -0.9420 nd        1 ZUN     -0.331300
      5 OAT         3.5680   -1.8520   -0.5030 os        1 ZUN     -0.104100
      6 CAZ         3.7190   -0.9640    0.5930 cd        1 ZUN      0.219000
      7 CAM         5.0580   -0.8560    1.1790 c3        1 ZUN     -0.165700
      8 CAU         5.4410   -2.0910    1.9700 c         1 ZUN      0.677100
      9 OAB         4.7940   -3.1570    1.9280 o         1 ZUN     -0.629100
     10 N           6.5350   -2.0230    2.8410 n         1 ZUN     -0.472800
     11 CD2         7.4560   -0.8960    2.8460 c3        1 ZUN      0.037000
     12 CG          8.8680   -1.4290    3.2020 c3        1 ZUN      0.137100
     13 OD1         9.7090   -1.3650    2.0690 oh        1 ZUN     -0.584800
     14 CB          8.6840   -2.9140    3.5470 c3        1 ZUN     -0.097400
     15 CA          7.2000   -3.2430    3.2730 c3        1 ZUN      0.041700
     16 C           6.5490   -3.8300    4.5390 c         1 ZUN      0.534100
     17 O           7.0490   -3.9210    5.6490 o         1 ZUN     -0.415100
     18 NAR         5.1530   -4.3580    4.3540 ny        1 ZUN     -0.676800
     19 CAL         4.7960   -5.5130    5.2440 c3        1 ZUN      0.175100
     20 CAX         5.2710   -6.8090    4.6850 ca        1 ZUN     -0.192300
     21 CAE         6.3140   -7.5030    5.3060 ca        1 ZUN     -0.097500
     22 CAG         6.7230   -8.7400    4.8170 ca        1 ZUN     -0.108000
     23 CAF         4.6330   -7.3630    3.5680 ca        1 ZUN     -0.097500
     24 CAH         5.0350   -8.5950    3.0670 ca        1 ZUN     -0.108000
     25 CAY         6.0950   -9.2900    3.6840 ca        1 ZUN      0.108600
     26 NBB         6.6230  -10.5160    3.0720 nh        1 ZUN     -0.109000
     27 OAS         7.0880  -11.3210    4.0450 oh        1 ZUN     -0.428800
     28 OAD         5.6090  -11.1930    2.5050 oh        1 ZUN     -0.428800
     29 HAA1       -0.3370   -1.3150   -1.0330 hc        1 ZUN      0.067033
     30 HAA2       -0.3080   -0.5530    0.6180 hc        1 ZUN      0.067033
     31 HAA3        0.1210    0.4320   -0.8490 hc        1 ZUN      0.067033
     32 HAK         2.2180    0.3840    1.5540 ha        1 ZUN      0.179000
     33 HAM1        5.8170   -0.7350    0.3520 hc        1 ZUN      0.106700
     34 HAM2        5.0990    0.0560    1.8360 hc        1 ZUN      0.106700
     35 HD21        7.4880   -0.3910    1.8400 h1        1 ZUN      0.077200
     36 HD22        7.1060   -0.1560    3.6170 h1        1 ZUN      0.077200
     37 HA          7.1210   -4.0420    2.4720 h1        1 ZUN      0.110700
     38 HG          9.3000   -0.8560    4.0640 h1        1 ZUN      0.076700
     39 HD1        10.1430   -0.5020    2.0720 ho        1 ZUN      0.425000
     40 HB1C        9.3360   -3.5450    2.8890 hc        1 ZUN      0.103700
     41 HB2C        8.9630   -3.1040    4.6130 hc        1 ZUN      0.103700
     42 HAR         5.0380   -4.6430    3.3630 hn        1 ZUN      0.475300
     43 HAL1        5.2400   -5.3220    6.2640 hx        1 ZUN      0.112700
     44 HAL2        3.6690   -5.5210    5.3320 hx        1 ZUN      0.112700
     45 HAE         6.8080   -7.0830    6.1970 ha        1 ZUN      0.145000
     46 HAF         3.7910   -6.8370    3.0900 ha        1 ZUN      0.145000
     47 HAG         7.5280   -9.2950    5.3270 ha        1 ZUN      0.174000
     48 HAH         4.5150   -9.0370    2.2000 ha        1 ZUN      0.174000
     49 HAD         6.0030  -11.6480    1.7370 ho        1 ZUN      0.437000
     50 HAS         7.8040  -11.8380    3.6290 ho        1 ZUN      0.437000
     51 HAR2        4.5030   -3.5810    4.5210 hn        1 ZUN      0.475300
@<TRIPOS>BOND
     1    1    2 1   
     2    1   29 1   
     3    1   30 1   
     4    1   31 1   
     5    2    3 1   
     6    2    4 2   
     7    3    6 2   
     8    3   32 1   
     9    4    5 1   
    10    5    6 1   
    11    6    7 1   
    12    7    8 1   
    13    7   33 1   
    14    7   34 1   
    15    8    9 2   
    16    8   10 1   
    17   10   11 1   
    18   10   15 1   
    19   11   12 1   
    20   11   35 1   
    21   11   36 1   
    22   12   13 1   
    23   12   14 1   
    24   12   38 1   
    25   13   39 1   
    26   14   15 1   
    27   14   40 1   
    28   14   41 1   
    29   15   16 1   
    30   15   37 1   
    31   16   17 2   
    32   16   18 1   
    33   18   19 1   
    34   18   42 1   
    35   18   51 1   
    36   19   20 1   
    37   19   43 1   
    38   19   44 1   
    39   20   21 ar  
    40   20   23 ar  
    41   21   22 ar  
    42   21   45 1   
    43   22   25 ar  
    44   22   47 1   
    45   23   24 ar  
    46   23   46 1   
    47   24   25 ar  
    48   24   48 1   
    49   25   26 1   
    50   26   27 1   
    51   26   28 1   
    52   27   50 1   
    53   28   49 1   
@<TRIPOS>SUBSTRUCTURE
     1 ZUN         1 TEMP              0 ****  ****    0 ROOT
