@<TRIPOS>MOLECULE
ZUN
   50    52     1     0     0
SMALL
bcc


@<TRIPOS>ATOM
      1 CAA         4.6830    4.6190   -0.4720 c3        1 ZUN     -0.133400
      2 CAW         4.8150    3.1850   -0.1590 cc        1 ZUN      0.316600
      3 CAK         3.8370    2.1600   -0.5380 cc        1 ZUN     -0.317600
      4 NAQ         5.8270    2.5930    0.5090 nd        1 ZUN     -0.356300
      5 OAT         5.5940    1.3000    0.5960 os        1 ZUN     -0.130100
      6 CAZ         4.3630    0.9860   -0.0450 cd        1 ZUN      0.244000
      7 CAM         4.0050   -0.4360   -0.0350 c3        1 ZUN     -0.178700
      8 CAU         2.5220   -0.6760   -0.2620 c         1 ZUN      0.674100
      9 OAB         1.7720    0.1850   -0.7660 o         1 ZUN     -0.618100
     10 N           2.0020   -1.8960    0.1410 n         1 ZUN     -0.454800
     11 CD2         2.8320   -3.0360    0.4740 c3        1 ZUN      0.048000
     12 CG          2.0170   -4.3190    0.1600 c3        1 ZUN      0.132100
     13 OD1         2.6300   -5.0610   -0.8780 oh        1 ZUN     -0.590800
     14 CB          0.6530   -3.8410   -0.3550 c3        1 ZUN     -0.089400
     15 CA          0.6490   -2.3040   -0.2210 c3        1 ZUN      0.031700
     16 C          -0.4060   -1.8430    0.8150 c         1 ZUN      0.649100
     17 O          -1.1430   -2.6670    1.3930 o         1 ZUN     -0.619100
     18 NAR        -0.4810   -0.4930    1.0670 n         1 ZUN     -0.548900
     19 CAL        -1.4960    0.0670    1.9190 c3        1 ZUN      0.132300
     20 CAX        -2.7590    0.4750    1.2130 ca        1 ZUN     -0.120300
     21 CAE        -3.6590   -0.5050    0.7830 ca        1 ZUN     -0.114000
     22 CAG        -4.8460   -0.1470    0.1520 ca        1 ZUN     -0.115000
     23 CAF        -3.0570    1.8230    1.0080 ca        1 ZUN     -0.114000
     24 CAH        -4.2420    2.1970    0.3780 ca        1 ZUN     -0.115000
     25 CAY        -5.1390    1.2120   -0.0680 ca        1 ZUN      0.057600
     26 NBB        -6.3100    1.5910   -0.8710 nh        1 ZUN     -0.117000
     27 OAS        -7.3110    0.7190   -0.6390 oh        1 ZUN     -0.432300
     28 OAD        -6.7790    2.7740   -0.4310 oh        1 ZUN     -0.432300
     29 HAA1        3.7440    5.0150   -0.0100 hc        1 ZUN      0.058700
     30 HAA2        5.5480    5.2140   -0.0890 hc        1 ZUN      0.058700
     31 HAA3        4.6190    4.7530   -1.5810 hc        1 ZUN      0.058700
     32 HAK         2.9060    2.3110   -1.0770 ha        1 ZUN      0.196000
     33 HAM1        4.5670   -0.9610   -0.8600 hc        1 ZUN      0.094700
     34 HAM2        4.3330   -0.8870    0.9430 hc        1 ZUN      0.094700
     35 HD21        3.7860   -3.0340   -0.1230 h1        1 ZUN      0.056200
     36 HD22        3.0910   -2.9940    1.5680 h1        1 ZUN      0.056200
     37 HA          0.3630   -1.8280   -1.2070 h1        1 ZUN      0.089700
     38 HG          1.9110   -4.9480    1.0830 h1        1 ZUN      0.059700
     39 HD1         3.3980   -5.5020   -0.4950 ho        1 ZUN      0.404000
     40 HB1C        0.5260   -4.1310   -1.4280 hc        1 ZUN      0.091700
     41 HB2C       -0.1740   -4.3010    0.2410 hc        1 ZUN      0.091700
     42 HAR        -0.0030    0.1350    0.4570 hn        1 ZUN      0.334500
     43 HAL1       -1.7590   -0.6960    2.7100 h1        1 ZUN      0.068700
     44 HAL2       -1.0460    0.9680    2.4300 h1        1 ZUN      0.068700
     45 HAE        -3.4210   -1.5690    0.9540 ha        1 ZUN      0.145500
     46 HAF        -2.3590    2.6020    1.3500 ha        1 ZUN      0.145500
     47 HAG        -5.5560   -0.9250   -0.1680 ha        1 ZUN      0.149000
     48 HAH        -4.4760    3.2640    0.2360 ha        1 ZUN      0.149000
     49 HAD        -7.1560    3.2040   -1.2200 ho        1 ZUN      0.420000
     50 HAS        -7.7300    0.5870   -1.5090 ho        1 ZUN      0.420000
@<TRIPOS>BOND
     1    1    2 1   
     2    1   29 1   
     3    1   30 1   
     4    1   31 1   
     5    2    3 1   
     6    2    4 2   
     7    3    6 2   
     8    3   32 1   
     9    4    5 1   
    10    5    6 1   
    11    6    7 1   
    12    7    8 1   
    13    7   33 1   
    14    7   34 1   
    15    8    9 2   
    16    8   10 1   
    17   10   11 1   
    18   10   15 1   
    19   11   12 1   
    20   11   35 1   
    21   11   36 1   
    22   12   13 1   
    23   12   14 1   
    24   12   38 1   
    25   13   39 1   
    26   14   15 1   
    27   14   40 1   
    28   14   41 1   
    29   15   16 1   
    30   15   37 1   
    31   16   17 2   
    32   16   18 1   
    33   18   19 1   
    34   18   42 1   
    35   19   20 1   
    36   19   43 1   
    37   19   44 1   
    38   20   21 ar  
    39   20   23 ar  
    40   21   22 ar  
    41   21   45 1   
    42   22   25 ar  
    43   22   47 1   
    44   23   24 ar  
    45   23   46 1   
    46   24   25 ar  
    47   24   48 1   
    48   25   26 1   
    49   26   27 1   
    50   26   28 1   
    51   27   50 1   
    52   28   49 1   
@<TRIPOS>SUBSTRUCTURE
     1 ZUN         1 TEMP              0 ****  ****    0 ROOT
