@<TRIPOS>MOLECULE
ZVS
   53    55     1     0     0
SMALL
bcc


@<TRIPOS>ATOM
      1 FAE         3.1000    4.6540    0.2100 f         1 ZVS     -0.224300
      2 CBF         3.6690    3.4260    0.0290 c3        1 ZVS      0.674200
      3 FAF         4.8790    3.6760   -0.5820 f         1 ZVS     -0.224300
      4 FAG         4.0380    3.0180    1.2920 f         1 ZVS     -0.224300
      5 CBA         2.8080    2.4140   -0.7310 ca        1 ZVS     -0.133300
      6 CAK         1.7460    2.9040   -1.4880 ca        1 ZVS     -0.072000
      7 CAI         0.9130    2.0260   -2.1910 ca        1 ZVS     -0.067000
      8 CAH         1.1350    0.6530   -2.1260 ca        1 ZVS     -0.094000
      9 CAJ         2.1930    0.1520   -1.3630 ca        1 ZVS     -0.062000
     10 CAZ         3.0430    1.0290   -0.6750 ca        1 ZVS     -0.160600
     11 CAW         4.1090    0.3980    0.1260 c         1 ZVS      0.569700
     12 OAC         3.9850   -0.5200    0.9230 o         1 ZVS     -0.405100
     13 NAT         5.5060    0.9230   -0.1000 ny        1 ZVS     -0.684800
     14 CBD         6.5720   -0.1570   -0.0260 c3        1 ZVS      0.157200
     15 CAA         6.5320   -1.0590   -1.2520 c3        1 ZVS     -0.123100
     16 CBC         7.8970    0.5190    0.0850 cc        1 ZVS      0.204800
     17 NBE         8.9000    0.2500    1.0370 na        1 ZVS     -0.271700
     18 CAB         8.9040   -0.7480    2.0590 c3        1 ZVS      0.005600
     19 NAS         8.3500    1.5140   -0.7530 nd        1 ZVS     -0.304000
     20 NAR         9.5470    1.8670   -0.4000 nd        1 ZVS     -0.347000
     21 CBB         9.9520    1.1110    0.6960 cc        1 ZVS      0.458800
     22 SAV        11.4130    1.1830    1.5120 ss        1 ZVS     -0.157400
     23 CAQ        12.2580    2.5510    0.7610 c3        1 ZVS     -0.033300
     24 CAP        13.5700    2.6760    1.5090 c3        1 ZVS      0.135400
     25 OAU        13.3940    3.7440    2.4440 os        1 ZVS     -0.331900
     26 CAY        14.5040    4.0610    3.2130 ca        1 ZVS      0.097100
     27 CAN        14.3090    5.1440    4.0900 ca        1 ZVS     -0.150500
     28 CAO        15.7280    3.3880    3.1580 ca        1 ZVS     -0.150500
     29 CAM        16.7710    3.7950    3.9870 ca        1 ZVS     -0.131000
     30 CAX        16.5850    4.8740    4.8680 ca        1 ZVS      0.104900
     31 FAD        17.5980    5.2700    5.6750 f         1 ZVS     -0.132900
     32 CAL        15.3480    5.5480    4.9160 ca        1 ZVS     -0.131000
     33 HAK         1.5540    3.9920   -1.5280 ha        1 ZVS      0.184000
     34 HAI         0.0760    2.4280   -2.7880 ha        1 ZVS      0.177000
     35 HAH         0.4740   -0.0450   -2.6670 ha        1 ZVS      0.176000
     36 HAJ         2.3540   -0.9370   -1.2950 ha        1 ZVS      0.167000
     37 HAT         5.7100    1.6380    0.6170 hn        1 ZVS      0.477300
     38 HBD         6.3520   -0.7650    0.9050 hx        1 ZVS      0.119700
     39 HAA1        6.7290   -0.4890   -2.1930 hc        1 ZVS      0.080700
     40 HAA2        7.3350   -1.8310   -1.1410 hc        1 ZVS      0.080700
     41 HAA3        5.5470   -1.5810   -1.3290 hc        1 ZVS      0.080700
     42 HAB1        9.6920   -0.4920    2.8220 h1        1 ZVS      0.078367
     43 HAB2        7.9020   -0.7810    2.5630 h1        1 ZVS      0.078367
     44 HAB3        9.1330   -1.7570    1.6190 h1        1 ZVS      0.078367
     45 HAQ1       12.4420    2.3540   -0.3220 h1        1 ZVS      0.108700
     46 HAQ2       11.6630    3.4950    0.8460 h1        1 ZVS      0.108700
     47 HAP1       13.8260    1.7290    2.0610 h1        1 ZVS      0.062200
     48 HAP2       14.4010    2.9300    0.7970 h1        1 ZVS      0.062200
     49 HAN        13.3370    5.6580    4.1120 ha        1 ZVS      0.147000
     50 HAO        15.8890    2.5440    2.4730 ha        1 ZVS      0.147000
     51 HAL        15.2160    6.3930    5.6080 ha        1 ZVS      0.157000
     52 HAM        17.7410    3.2780    3.9560 ha        1 ZVS      0.157000
     53 HAT2        5.5590    1.3860   -1.0180 hn        1 ZVS      0.477300
@<TRIPOS>BOND
     1    1    2 1   
     2    2    3 1   
     3    2    4 1   
     4    2    5 1   
     5    5    6 ar  
     6    5   10 ar  
     7    6    7 ar  
     8    6   33 1   
     9    7    8 ar  
    10    7   34 1   
    11    8    9 ar  
    12    8   35 1   
    13    9   10 ar  
    14    9   36 1   
    15   10   11 1   
    16   11   12 2   
    17   11   13 1   
    18   13   14 1   
    19   13   37 1   
    20   13   53 1   
    21   14   15 1   
    22   14   16 1   
    23   14   38 1   
    24   15   39 1   
    25   15   40 1   
    26   15   41 1   
    27   16   17 1   
    28   16   19 2   
    29   17   18 1   
    30   17   21 1   
    31   18   42 1   
    32   18   43 1   
    33   18   44 1   
    34   19   20 1   
    35   20   21 2   
    36   21   22 1   
    37   22   23 1   
    38   23   24 1   
    39   23   45 1   
    40   23   46 1   
    41   24   25 1   
    42   24   47 1   
    43   24   48 1   
    44   25   26 1   
    45   26   27 ar  
    46   26   28 ar  
    47   27   32 ar  
    48   27   49 1   
    49   28   29 ar  
    50   28   50 1   
    51   29   30 ar  
    52   29   52 1   
    53   30   31 1   
    54   30   32 ar  
    55   32   51 1   
@<TRIPOS>SUBSTRUCTURE
     1 ZVS         1 TEMP              0 ****  ****    0 ROOT
