@<TRIPOS>MOLECULE
ZVS
   53    55     1     0     0
SMALL
bcc


@<TRIPOS>ATOM
      1 FAE         3.1010    4.6650    0.2340 f         1 ZVS     -0.224300
      2 CBF         3.6720    3.4410    0.0320 c3        1 ZVS      0.674200
      3 FAF         4.8840    3.7040   -0.5670 f         1 ZVS     -0.224300
      4 FAG         4.0340    3.0080    1.2890 f         1 ZVS     -0.224300
      5 CBA         2.8160    2.4440   -0.7520 ca        1 ZVS     -0.133300
      6 CAK         1.7570    2.9480   -1.5050 ca        1 ZVS     -0.072000
      7 CAI         0.9280    2.0830   -2.2290 ca        1 ZVS     -0.067000
      8 CAH         1.1510    0.7100   -2.1900 ca        1 ZVS     -0.094000
      9 CAJ         2.2060    0.1950   -1.4320 ca        1 ZVS     -0.062000
     10 CAZ         3.0510    1.0580   -0.7220 ca        1 ZVS     -0.160600
     11 CAW         4.1140    0.4130    0.0720 c         1 ZVS      0.569700
     12 OAC         3.9860   -0.5210    0.8500 o         1 ZVS     -0.405100
     13 NAT         5.5120    0.9420   -0.1360 n4        1 ZVS     -0.684800
     14 CBD         6.5790   -0.1370   -0.0780 c3        1 ZVS      0.157200
     15 CAA         6.5450   -1.0150   -1.3230 c3        1 ZVS     -0.123100
     16 CBC         7.9020    0.5370    0.0530 cc        1 ZVS      0.204800
     17 NBE         8.9000    0.2480    1.0050 na        1 ZVS     -0.271700
     18 CAB         8.9000   -0.7700    2.0050 c3        1 ZVS      0.005600
     19 NAS         8.3580    1.5500   -0.7610 nd        1 ZVS     -0.304000
     20 NAR         9.5540    1.8960   -0.3950 nd        1 ZVS     -0.347000
     21 CBB         9.9540    1.1170    0.6870 cc        1 ZVS      0.458800
     22 SAV        11.4100    1.1730    1.5120 ss        1 ZVS     -0.157400
     23 CAQ        12.2580    2.5570    0.7950 c3        1 ZVS     -0.033300
     24 CAP        13.5660    2.6660    1.5500 c3        1 ZVS      0.135400
     25 OAU        13.3860    3.7130    2.5090 os        1 ZVS     -0.331900
     26 CAY        14.4910    4.0110    3.2910 ca        1 ZVS      0.097100
     27 CAN        14.2910    5.0720    4.1940 ca        1 ZVS     -0.150500
     28 CAO        15.7170    3.3420    3.2250 ca        1 ZVS     -0.150500
     29 CAM        16.7550    3.7300    4.0690 ca        1 ZVS     -0.131000
     30 CAX        16.5630    4.7860    4.9750 ca        1 ZVS      0.104900
     31 FAD        17.5720    5.1630    5.7970 f         1 ZVS     -0.132900
     32 CAL        15.3250    5.4570    5.0340 ca        1 ZVS     -0.131000
     33 HAK         1.5640    4.0370   -1.5240 ha        1 ZVS      0.184000
     34 HAI         0.0950    2.4970   -2.8230 ha        1 ZVS      0.177000
     35 HAH         0.4940    0.0210   -2.7480 ha        1 ZVS      0.176000
     36 HAJ         2.3670   -0.8960   -1.3840 ha        1 ZVS      0.167000
     37 HAT         5.7110    1.6430    0.5960 hn        1 ZVS      0.477300
     38 HBD         6.3540   -0.7650    0.8390 hx        1 ZVS      0.119700
     39 HAA1        5.5610   -1.5360   -1.4150 hc        1 ZVS      0.080700
     40 HAA2        6.7470   -0.4260   -2.2510 hc        1 ZVS      0.080700
     41 HAA3        7.3490   -1.7880   -1.2230 hc        1 ZVS      0.080700
     42 HAB1        9.1320   -1.7700    1.5450 h1        1 ZVS      0.078367
     43 HAB2        7.8950   -0.8150    2.5040 h1        1 ZVS      0.078367
     44 HAB3        9.6840   -0.5310    2.7770 h1        1 ZVS      0.078367
     45 HAQ1       12.4470    2.3830   -0.2920 h1        1 ZVS      0.108700
     46 HAQ2       11.6620    3.4990    0.8970 h1        1 ZVS      0.108700
     47 HAP1       13.8210    1.7070    2.0820 h1        1 ZVS      0.062200
     48 HAP2       14.4000    2.9370    0.8480 h1        1 ZVS      0.062200
     49 HAN        13.3180    5.5840    4.2230 ha        1 ZVS      0.147000
     50 HAO        15.8820    2.5160    2.5200 ha        1 ZVS      0.147000
     51 HAL        15.1890    6.2840    5.7470 ha        1 ZVS      0.157000
     52 HAM        17.7260    3.2150    4.0290 ha        1 ZVS      0.157000
     53 HAT2        5.5690    1.4240   -1.0450 hn        1 ZVS      0.477300
@<TRIPOS>BOND
     1    1    2 1   
     2    2    3 1   
     3    2    4 1   
     4    2    5 1   
     5    5    6 ar  
     6    5   10 ar  
     7    6    7 ar  
     8    6   33 1   
     9    7    8 ar  
    10    7   34 1   
    11    8    9 ar  
    12    8   35 1   
    13    9   10 ar  
    14    9   36 1   
    15   10   11 1   
    16   11   12 2   
    17   11   13 1   
    18   13   14 1   
    19   13   37 1   
    20   13   53 1   
    21   14   15 1   
    22   14   16 1   
    23   14   38 1   
    24   15   39 1   
    25   15   40 1   
    26   15   41 1   
    27   16   17 1   
    28   16   19 2   
    29   17   18 1   
    30   17   21 1   
    31   18   42 1   
    32   18   43 1   
    33   18   44 1   
    34   19   20 1   
    35   20   21 2   
    36   21   22 1   
    37   22   23 1   
    38   23   24 1   
    39   23   45 1   
    40   23   46 1   
    41   24   25 1   
    42   24   47 1   
    43   24   48 1   
    44   25   26 1   
    45   26   27 ar  
    46   26   28 ar  
    47   27   32 ar  
    48   27   49 1   
    49   28   29 ar  
    50   28   50 1   
    51   29   30 ar  
    52   29   52 1   
    53   30   31 1   
    54   30   32 ar  
    55   32   51 1   
@<TRIPOS>SUBSTRUCTURE
     1 ZVS         1 TEMP              0 ****  ****    0 ROOT
