@<TRIPOS>MOLECULE
ZVS
   52    54     1     0     0
SMALL
bcc


@<TRIPOS>ATOM
      1 FAE        -7.6590    0.6920   -0.8540 f         1 ZVS     -0.233300
      2 CBF        -6.3270    0.3910   -0.7000 c3        1 ZVS      0.685200
      3 FAF        -6.3400   -0.8410   -0.0970 f         1 ZVS     -0.233300
      4 FAG        -5.8990    0.1420   -1.9840 f         1 ZVS     -0.233300
      5 CBA        -5.5170    1.4650    0.0260 ca        1 ZVS     -0.139300
      6 CAK        -6.0780    2.7440    0.1240 ca        1 ZVS     -0.092000
      7 CAI        -5.3920    3.7660    0.7760 ca        1 ZVS     -0.116000
      8 CAH        -4.1420    3.5150    1.3420 ca        1 ZVS     -0.104000
      9 CAJ        -3.5800    2.2440    1.2500 ca        1 ZVS     -0.092000
     10 CAZ        -4.2590    1.2140    0.5840 ca        1 ZVS     -0.088600
     11 CAW        -3.5690   -0.1150    0.5510 c         1 ZVS      0.674700
     12 OAC        -3.1570   -0.6490    1.6020 o         1 ZVS     -0.609100
     13 NAT        -3.3920   -0.7060   -0.6800 n         1 ZVS     -0.554900
     14 CBD        -2.6510   -1.9380   -0.8370 c3        1 ZVS      0.098400
     15 CAA        -3.1930   -2.8040   -1.9760 c3        1 ZVS     -0.100100
     16 CBC        -1.1850   -1.6670   -1.0890 cc        1 ZVS      0.318800
     17 NBE        -0.1650   -1.8020   -0.1310 na        1 ZVS     -0.285700
     18 CAB        -0.2800   -2.2290    1.2260 c3        1 ZVS      0.000600
     19 NAS        -0.6200   -1.2230   -2.2560 nd        1 ZVS     -0.336000
     20 NAR         0.6730   -1.0930   -2.0950 nd        1 ZVS     -0.365000
     21 CBB         1.0130   -1.4400   -0.8050 cc        1 ZVS      0.414800
     22 SAV         2.5420   -1.4500   -0.0950 ss        1 ZVS     -0.222400
     23 CAQ         3.5620   -0.6730   -1.3190 c3        1 ZVS     -0.029300
     24 CAP         4.9750   -0.7320   -0.7790 c3        1 ZVS      0.138400
     25 OAU         5.3720    0.6280   -0.5610 os        1 ZVS     -0.325900
     26 CAY         6.6380    0.8110   -0.0370 ca        1 ZVS      0.111100
     27 CAN         6.9820    2.1570    0.1980 ca        1 ZVS     -0.155500
     28 CAO         7.5400   -0.2190    0.2480 ca        1 ZVS     -0.155500
     29 CAM         8.7930    0.0900    0.7720 ca        1 ZVS     -0.131500
     30 CAX         9.1420    1.4290    1.0090 ca        1 ZVS      0.090900
     31 FAD        10.3610    1.7320    1.5190 f         1 ZVS     -0.141900
     32 CAL         8.2290    2.4640    0.7180 ca        1 ZVS     -0.131500
     33 HAK        -7.0720    2.9400   -0.3130 ha        1 ZVS      0.158000
     34 HAI        -5.8410    4.7690    0.8460 ha        1 ZVS      0.147000
     35 HAH        -3.6000    4.3180    1.8650 ha        1 ZVS      0.147000
     36 HAJ        -2.6020    2.0310    1.7100 ha        1 ZVS      0.160000
     37 HAT        -3.6420   -0.2160   -1.5090 hn        1 ZVS      0.332500
     38 HBD        -2.7470   -2.5180    0.1340 h1        1 ZVS      0.087700
     39 HAA1       -2.5660   -3.7240   -2.0550 hc        1 ZVS      0.057033
     40 HAA2       -4.2480   -3.0990   -1.7640 hc        1 ZVS      0.057033
     41 HAA3       -3.1570   -2.2650   -2.9530 hc        1 ZVS      0.057033
     42 HAB1       -0.3120   -3.3520    1.2760 h1        1 ZVS      0.074367
     43 HAB2        0.6080   -1.8610    1.8090 h1        1 ZVS      0.074367
     44 HAB3       -1.2240   -1.8100    1.6760 h1        1 ZVS      0.074367
     45 HAQ1        3.4910   -1.2100   -2.2960 h1        1 ZVS      0.102700
     46 HAQ2        3.2450    0.3860   -1.4940 h1        1 ZVS      0.102700
     47 HAP1        5.0270   -1.2970    0.1930 h1        1 ZVS      0.054700
     48 HAP2        5.6700   -1.2060   -1.5230 h1        1 ZVS      0.054700
     49 HAN         6.2550    2.9480   -0.0370 ha        1 ZVS      0.149000
     50 HAO         7.2810   -1.2720    0.0670 ha        1 ZVS      0.149000
     51 HAL         8.5150    3.5090    0.9070 ha        1 ZVS      0.151000
     52 HAM         9.5130   -0.7100    1.0020 ha        1 ZVS      0.151000
@<TRIPOS>BOND
     1    1    2 1   
     2    2    3 1   
     3    2    4 1   
     4    2    5 1   
     5    5    6 ar  
     6    5   10 ar  
     7    6    7 ar  
     8    6   33 1   
     9    7    8 ar  
    10    7   34 1   
    11    8    9 ar  
    12    8   35 1   
    13    9   10 ar  
    14    9   36 1   
    15   10   11 1   
    16   11   12 2   
    17   11   13 1   
    18   13   14 1   
    19   13   37 1   
    20   14   15 1   
    21   14   16 1   
    22   14   38 1   
    23   15   39 1   
    24   15   40 1   
    25   15   41 1   
    26   16   17 1   
    27   16   19 2   
    28   17   18 1   
    29   17   21 1   
    30   18   42 1   
    31   18   43 1   
    32   18   44 1   
    33   19   20 1   
    34   20   21 2   
    35   21   22 1   
    36   22   23 1   
    37   23   24 1   
    38   23   45 1   
    39   23   46 1   
    40   24   25 1   
    41   24   47 1   
    42   24   48 1   
    43   25   26 1   
    44   26   27 ar  
    45   26   28 ar  
    46   27   32 ar  
    47   27   49 1   
    48   28   29 ar  
    49   28   50 1   
    50   29   30 ar  
    51   29   52 1   
    52   30   31 1   
    53   30   32 ar  
    54   32   51 1   
@<TRIPOS>SUBSTRUCTURE
     1 ZVS         1 TEMP              0 ****  ****    0 ROOT
