@<TRIPOS>MOLECULE
ZVT
   50    52     1     0     0
SMALL
bcc


@<TRIPOS>ATOM
      1 CL          4.5790   -1.6530   -2.0850 cl        1 ZVT     -0.058400
      2 CAX         3.8260   -0.6600   -0.9250 ca        1 ZVT      0.043400
      3 CAH         4.4710   -0.4730    0.3000 ca        1 ZVT     -0.110000
      4 CAF         3.8730    0.3070    1.2920 ca        1 ZVT     -0.051000
      5 CAG         2.6250    0.8910    1.0710 ca        1 ZVT     -0.119000
      6 CAI         1.9730    0.7010   -0.1450 ca        1 ZVT     -0.046000
      7 CAY         2.5740   -0.0630   -1.1600 ca        1 ZVT     -0.207600
      8 CAU         1.7970   -0.2290   -2.3960 c         1 ZVT      0.574700
      9 OAC         0.5950   -0.4340   -2.4930 o         1 ZVT     -0.417100
     10 NAR         2.5790   -0.0800   -3.6780 n4        1 ZVT     -0.684800
     11 CBB         1.7570   -0.2340   -4.9390 c3        1 ZVT      0.152200
     12 CAA         0.9480    1.0220   -5.2420 c3        1 ZVT     -0.125100
     13 CBA         2.6870   -0.5380   -6.0700 cc        1 ZVT      0.219800
     14 NBC         2.4270   -1.4170   -7.1390 na        1 ZVT     -0.273700
     15 CAB         1.2380   -2.1650   -7.3930 c3        1 ZVT      0.006600
     16 NAQ         3.9300    0.0200   -6.2580 nd        1 ZVT     -0.323000
     17 NAP         4.4510   -0.4390   -7.3580 nd        1 ZVT     -0.348000
     18 CAZ         3.5630   -1.3250   -7.9570 cc        1 ZVT      0.457800
     19 SAT         3.7610   -2.1720   -9.3900 ss        1 ZVT     -0.162400
     20 CAO         5.4190   -1.7870   -9.8910 c3        1 ZVT     -0.032300
     21 CAN         5.6500   -2.5730  -11.1650 c3        1 ZVT      0.135400
     22 OAS         6.4130   -3.7230  -10.7890 os        1 ZVT     -0.331900
     23 CAW         6.7650   -4.5770  -11.8230 ca        1 ZVT      0.097100
     24 CAL         7.5350   -5.6840  -11.4220 ca        1 ZVT     -0.150500
     25 CAM         6.4080   -4.3950  -13.1620 ca        1 ZVT     -0.150500
     26 CAK         6.8180   -5.3260  -14.1140 ca        1 ZVT     -0.131000
     27 CAV         7.5850   -6.4360  -13.7210 ca        1 ZVT      0.104900
     28 FAD         7.9840   -7.3420  -14.6450 f         1 ZVT     -0.132900
     29 CAJ         7.9440   -6.6110  -12.3690 ca        1 ZVT     -0.131000
     30 HAH         5.4500   -0.9460    0.4870 ha        1 ZVT      0.181000
     31 HAF         4.3900    0.4530    2.2560 ha        1 ZVT      0.174000
     32 HAG         2.1480    1.4970    1.8590 ha        1 ZVT      0.174000
     33 HAI         0.9770    1.1450   -0.3140 ha        1 ZVT      0.168000
     34 HAR         3.0210    0.8490   -3.6870 hn        1 ZVT      0.476300
     35 HBB         1.0510   -1.1040   -4.7650 hx        1 ZVT      0.116700
     36 HAA1        1.6080    1.9100   -5.3990 hc        1 ZVT      0.081700
     37 HAA2        0.3740    0.8450   -6.1860 hc        1 ZVT      0.081700
     38 HAA3        0.2220    1.2320   -4.4180 hc        1 ZVT      0.081700
     39 HAB1        1.4420   -2.9260   -8.1960 h1        1 ZVT      0.077700
     40 HAB2        0.4140   -1.4800   -7.7360 h1        1 ZVT      0.077700
     41 HAB3        0.9150   -2.6950   -6.4570 h1        1 ZVT      0.077700
     42 HAO1        5.5280   -0.6920  -10.0810 h1        1 ZVT      0.107700
     43 HAO2        6.1610   -2.0780   -9.1060 h1        1 ZVT      0.107700
     44 HAN1        6.2330   -1.9580  -11.9020 h1        1 ZVT      0.062200
     45 HAN2        4.6800   -2.8990  -11.6340 h1        1 ZVT      0.062200
     46 HAL         7.8060   -5.8020  -10.3620 ha        1 ZVT      0.147500
     47 HAM         5.8100   -3.5310  -13.4850 ha        1 ZVT      0.147500
     48 HAJ         8.5470   -7.4830  -12.0750 ha        1 ZVT      0.157000
     49 HAK         6.5470   -5.1980  -15.1720 ha        1 ZVT      0.157000
     50 HAR2        3.3400   -0.7880   -3.6730 hn        1 ZVT      0.476300
@<TRIPOS>BOND
     1    1    2 1   
     2    2    3 ar  
     3    2    7 ar  
     4    3    4 ar  
     5    3   30 1   
     6    4    5 ar  
     7    4   31 1   
     8    5    6 ar  
     9    5   32 1   
    10    6    7 ar  
    11    6   33 1   
    12    7    8 1   
    13    8    9 2   
    14    8   10 1   
    15   10   11 1   
    16   10   34 1   
    17   10   50 1   
    18   11   12 1   
    19   11   13 1   
    20   11   35 1   
    21   12   36 1   
    22   12   37 1   
    23   12   38 1   
    24   13   14 1   
    25   13   16 2   
    26   14   15 1   
    27   14   18 1   
    28   15   39 1   
    29   15   40 1   
    30   15   41 1   
    31   16   17 1   
    32   17   18 2   
    33   18   19 1   
    34   19   20 1   
    35   20   21 1   
    36   20   42 1   
    37   20   43 1   
    38   21   22 1   
    39   21   44 1   
    40   21   45 1   
    41   22   23 1   
    42   23   24 ar  
    43   23   25 ar  
    44   24   29 ar  
    45   24   46 1   
    46   25   26 ar  
    47   25   47 1   
    48   26   27 ar  
    49   26   49 1   
    50   27   28 1   
    51   27   29 ar  
    52   29   48 1   
@<TRIPOS>SUBSTRUCTURE
     1 ZVT         1 TEMP              0 ****  ****    0 ROOT
