@<TRIPOS>MOLECULE
ZVT
   49    45     1     0     0
SMALL
bcc


@<TRIPOS>ATOM
      1 CL         -3.6620    0.6660    7.2260 cl        1 ZVT     -0.002000
      2 CAX        -2.0490    1.3440    7.2280 c2        1 ZVT     -0.036000
      3 CAH        -1.4460    1.7330    8.4440 c2        1 ZVT     -0.131000
      4 CAF        -0.2020    2.3430    8.4360 c1        1 ZVT     -0.101000
      5 CAG         0.4440    2.5710    7.2470 c1        1 ZVT     -0.105000
      6 CAI        -0.1500    2.1870    6.0390 c1        1 ZVT     -0.105000
      7 CAY        -1.3990    1.5730    6.0390 c1        1 ZVT     -0.115000
      8 CAU        -2.0200    1.1210    4.7340 c2        1 ZVT      0.357000
      9 OAC        -3.1520    0.5240    4.7390 o         1 ZVT     -0.379000
     10 NAR        -1.3380    1.3580    3.4900 n         1 ZVT     -0.363000
     11 CBB        -2.0430    1.2170    2.2600 c3        1 ZVT      0.114000
     12 CAA        -2.6790    2.5560    1.8700 c3        1 ZVT     -0.217000
     13 CBA        -1.0820    0.7930    1.1760 c2        1 ZVT     -0.125000
     14 NBC        -1.3360   -0.0850    0.1820 n2        1 ZVT     -0.129000
     15 CAB        -2.4920   -0.8930    0.0540 c2        1 ZVT     -0.097000
     16 NAQ         0.1340    1.3260    0.9520 n2        1 ZVT     -0.074000
     17 NAP         0.6290    0.7810   -0.1740 n2        1 ZVT     -0.103000
     18 CAZ        -0.2800   -0.0910   -0.6490 c1        1 ZVT     -0.263000
     19 SAT        -0.0930   -1.1200   -2.0950 s         1 ZVT      0.287000
     20 CAO         1.3970   -0.6970   -2.9370 c3        1 ZVT     -0.290000
     21 CAN         1.5480   -1.5820   -4.1890 c3        1 ZVT     -0.011000
     22 OAS         2.5840   -1.1050   -4.9680 os        1 ZVT     -0.208000
     23 CAW         2.7620   -1.8100   -6.1630 c2        1 ZVT      0.066000
     24 CAL         3.6320   -2.8840   -6.2070 c2        1 ZVT     -0.181000
     25 CAM         2.0670   -1.4190   -7.3200 c1        1 ZVT     -0.129000
     26 CAK         2.2520   -2.1100   -8.5110 c1        1 ZVT     -0.132000
     27 CAV         3.1240   -3.1870   -8.5600 c1        1 ZVT      0.056000
     28 FAD         3.2370   -3.9190   -9.7030 f         1 ZVT     -0.107000
     29 CAJ         3.8190   -3.5790   -7.4030 c2        1 ZVT     -0.131000
     30 HAH        -1.9090    1.5700    9.3020 ha        1 ZVT      0.153000
     31 HAF         0.2230    2.6170    9.2960 ha        1 ZVT      0.142000
     32 HAG         1.3270    3.0050    7.2430 ha        1 ZVT      0.149000
     33 HAI         0.3060    2.3490    5.2100 ha        1 ZVT      0.149000
     34 HAR        -0.4370    1.7160    3.4930 hn        1 ZVT      0.242000
     35 HBB        -2.7700    0.5150    2.3670 h1        1 ZVT      0.128000
     36 HAA1       -3.6400    2.4540    1.8140 hc        1 ZVT      0.094333
     37 HAA2       -2.3550    2.8180    1.0590 hc        1 ZVT      0.094333
     38 HAA3       -2.4530    3.2560    2.5660 hc        1 ZVT      0.094333
     39 HAB1       -2.7070   -1.2840    0.9040 ha        1 ZVT      0.113667
     40 HAB2       -3.2390   -0.3460   -0.2530 ha        1 ZVT      0.113667
     41 HAB3       -2.3120   -1.6340   -0.6240 ha        1 ZVT      0.113667
     42 HAO1        1.3650    0.2460   -3.2080 h1        1 ZVT      0.142500
     43 HAO2        2.1680   -0.8410   -2.3350 h1        1 ZVT      0.142500
     44 HAN1        0.7040   -1.5600   -4.7130 h1        1 ZVT      0.093000
     45 HAN2        1.7360   -2.4820   -3.9250 h1        1 ZVT      0.093000
     46 HAL         4.1190   -3.1570   -5.3960 ha        1 ZVT      0.141000
     47 HAM         1.4460   -0.6530   -7.2860 ha        1 ZVT      0.157000
     48 HAJ         4.4570   -4.3670   -7.4360 ha        1 ZVT      0.150000
     49 HAK         1.7650   -1.8350   -9.3190 ha        1 ZVT      0.152000
@<TRIPOS>BOND
     1    1    2 1   
     2    2    3 1   
     3    2    7 1   
     4    3    4 1   
     5    3   30 1   
     6    4   31 1   
     7    5    6 1   
     8    5   32 1   
     9    6   33 1   
    10    7    8 1   
    11    8    9 1   
    12    8   10 1   
    13   10   11 1   
    14   10   34 1   
    15   11   12 1   
    16   11   13 1   
    17   11   35 1   
    18   12   36 1   
    19   12   37 1   
    20   12   38 1   
    21   13   14 1   
    22   13   16 1   
    23   14   18 1   
    24   15   39 1   
    25   15   40 1   
    26   15   41 1   
    27   16   17 1   
    28   17   18 1   
    29   19   20 1   
    30   20   21 1   
    31   20   42 1   
    32   20   43 1   
    33   21   22 1   
    34   21   44 1   
    35   21   45 1   
    36   22   23 1   
    37   23   24 1   
    38   23   25 1   
    39   24   29 1   
    40   24   46 1   
    41   25   47 1   
    42   26   27 1   
    43   26   49 1   
    44   27   29 1   
    45   29   48 1   
@<TRIPOS>SUBSTRUCTURE
     1 ZVT         1 TEMP              0 ****  ****    0 ROOT
