@<TRIPOS>MOLECULE
ZVT
   49    51     1     0     0
SMALL
bcc


@<TRIPOS>ATOM
      1 CL          6.8150    0.1680    1.1140 cl        1 ZVT     -0.080400
      2 CAX         6.0240    1.4160    0.2720 ca        1 ZVT      0.042400
      3 CAH         6.6200    2.6830    0.2460 ca        1 ZVT     -0.131000
      4 CAF         6.0080    3.7230   -0.4490 ca        1 ZVT     -0.101000
      5 CAG         4.8080    3.5050   -1.1270 ca        1 ZVT     -0.134000
      6 CAI         4.2170    2.2440   -1.1070 ca        1 ZVT     -0.075000
      7 CAY         4.8140    1.1930   -0.3990 ca        1 ZVT     -0.135600
      8 CAU         4.1260   -0.1320   -0.4340 c         1 ZVT      0.683700
      9 OAC         3.7780   -0.6520   -1.5150 o         1 ZVT     -0.618100
     10 NAR         3.8730   -0.7460    0.7740 n         1 ZVT     -0.553900
     11 CBB         3.1440   -1.9900    0.8650 c3        1 ZVT      0.096400
     12 CAA         3.6730   -2.8980    1.9780 c3        1 ZVT     -0.099100
     13 CBA         1.6700   -1.7460    1.1000 cc        1 ZVT      0.320800
     14 NBC         0.6760   -1.8080    0.1070 na        1 ZVT     -0.285700
     15 CAB         0.8280   -2.1320   -1.2740 c3        1 ZVT     -0.000400
     16 NAQ         1.0720   -1.3950    2.2820 nd        1 ZVT     -0.338000
     17 NAP        -0.2170   -1.2570    2.0970 nd        1 ZVT     -0.365000
     18 CAZ        -0.5210   -1.5030    0.7750 cc        1 ZVT      0.413800
     19 SAT        -2.0310   -1.4620    0.0260 ss        1 ZVT     -0.222400
     20 CAO        -3.0820   -0.7620    1.2700 c3        1 ZVT     -0.029300
     21 CAN        -4.4790   -0.7800    0.6890 c3        1 ZVT      0.139400
     22 OAS        -4.8730    0.5930    0.5630 os        1 ZVT     -0.325900
     23 CAW        -6.1230    0.8150    0.0180 ca        1 ZVT      0.111100
     24 CAL        -6.4610    2.1750   -0.1280 ca        1 ZVT     -0.155500
     25 CAM        -7.0160   -0.1900   -0.3670 ca        1 ZVT     -0.155500
     26 CAK        -8.2540    0.1580   -0.9020 ca        1 ZVT     -0.131500
     27 CAV        -8.5970    1.5120   -1.0500 ca        1 ZVT      0.090900
     28 FAD        -9.8020    1.8520   -1.5710 f         1 ZVT     -0.141900
     29 CAJ        -7.6940    2.5210   -0.6590 ca        1 ZVT     -0.131500
     30 HAH         7.5720    2.8540    0.7720 ha        1 ZVT      0.152000
     31 HAF         6.4770    4.7190   -0.4640 ha        1 ZVT      0.142000
     32 HAG         4.3300    4.3260   -1.6820 ha        1 ZVT      0.144000
     33 HAI         3.2800    2.0570   -1.6540 ha        1 ZVT      0.155000
     34 HAR         4.0670   -0.2680    1.6220 hn        1 ZVT      0.329500
     35 HBB         3.2640   -2.5300   -0.1260 h1        1 ZVT      0.088700
     36 HAA1        3.0490   -3.8230    2.0140 hc        1 ZVT      0.054700
     37 HAA2        4.7320   -3.1810    1.7700 hc        1 ZVT      0.054700
     38 HAA3        3.6210   -2.3970    2.9750 hc        1 ZVT      0.054700
     39 HAB1        0.8330   -3.2470   -1.4110 h1        1 ZVT      0.075033
     40 HAB2       -0.0290   -1.6940   -1.8550 h1        1 ZVT      0.075033
     41 HAB3        1.7970   -1.7060   -1.6590 h1        1 ZVT      0.075033
     42 HAO1       -3.0380   -1.3620    2.2110 h1        1 ZVT      0.102700
     43 HAO2       -2.7670    0.2820    1.5220 h1        1 ZVT      0.102700
     44 HAN1       -4.5040   -1.2710   -0.3240 h1        1 ZVT      0.054200
     45 HAN2       -5.1930   -1.3080    1.3760 h1        1 ZVT      0.054200
     46 HAL        -5.7420    2.9460    0.1840 ha        1 ZVT      0.149000
     47 HAM        -6.7620   -1.2540   -0.2560 ha        1 ZVT      0.149000
     48 HAJ        -7.9750    3.5780   -0.7800 ha        1 ZVT      0.151000
     49 HAK        -8.9660   -0.6220   -1.2100 ha        1 ZVT      0.151000
@<TRIPOS>BOND
     1    1    2 1   
     2    2    3 ar  
     3    2    7 ar  
     4    3    4 ar  
     5    3   30 1   
     6    4    5 ar  
     7    4   31 1   
     8    5    6 ar  
     9    5   32 1   
    10    6    7 ar  
    11    6   33 1   
    12    7    8 1   
    13    8    9 2   
    14    8   10 1   
    15   10   11 1   
    16   10   34 1   
    17   11   12 1   
    18   11   13 1   
    19   11   35 1   
    20   12   36 1   
    21   12   37 1   
    22   12   38 1   
    23   13   14 1   
    24   13   16 2   
    25   14   15 1   
    26   14   18 1   
    27   15   39 1   
    28   15   40 1   
    29   15   41 1   
    30   16   17 1   
    31   17   18 2   
    32   18   19 1   
    33   19   20 1   
    34   20   21 1   
    35   20   42 1   
    36   20   43 1   
    37   21   22 1   
    38   21   44 1   
    39   21   45 1   
    40   22   23 1   
    41   23   24 ar  
    42   23   25 ar  
    43   24   29 ar  
    44   24   46 1   
    45   25   26 ar  
    46   25   47 1   
    47   26   27 ar  
    48   26   49 1   
    49   27   28 1   
    50   27   29 ar  
    51   29   48 1   
@<TRIPOS>SUBSTRUCTURE
     1 ZVT         1 TEMP              0 ****  ****    0 ROOT
