@<TRIPOS>MOLECULE
ZVT
   50    52     1     0     0
SMALL
bcc


@<TRIPOS>ATOM
      1 Cl          4.9450   -1.1310   -1.5000 cl        1 ZVT     -0.064400
      2 CAX         3.8000   -0.2210   -0.6350 ca        1 ZVT      0.046400
      3 CAH         4.1960    0.3650    0.5710 ca        1 ZVT     -0.113000
      4 CAF         3.2760    1.0900    1.3310 ca        1 ZVT     -0.050000
      5 CAG         1.9560    1.2220    0.8990 ca        1 ZVT     -0.121000
      6 CAI         1.5520    0.6350   -0.2970 ca        1 ZVT     -0.046000
      7 CAY         2.4750   -0.0780   -1.0840 ca        1 ZVT     -0.207600
      8 CAU         1.9480   -0.6770   -2.3150 c         1 ZVT      0.578700
      9 OAC         0.8620   -1.2210   -2.4700 o         1 ZVT     -0.421100
     10 NAR         2.8290   -0.5780   -3.5400 ny        1 ZVT     -0.676800
     11 CBB         2.0540   -0.3720   -4.8260 c3        1 ZVT      0.150200
     12 CAA         1.5400    1.0580   -4.9430 c3        1 ZVT     -0.124100
     13 CBA         2.9590   -0.6970   -5.9690 cc        1 ZVT      0.213800
     14 NBC         2.6130   -1.4260   -7.1230 na        1 ZVT     -0.272700
     15 CAB         1.3420   -1.9730   -7.4740 c3        1 ZVT      0.006600
     16 NAQ         4.2740   -0.3080   -6.0790 nd        1 ZVT     -0.317000
     17 NAP         4.7600   -0.7310   -7.2070 nd        1 ZVT     -0.348000
     18 CAZ         3.7760   -1.4200   -7.9070 cc        1 ZVT      0.458800
     19 SAT         3.9010   -2.1480   -9.4110 ss        1 ZVT     -0.159400
     20 CAO         5.6140   -1.9660   -9.8370 c3        1 ZVT     -0.032300
     21 CAN         5.7740   -2.6560  -11.1750 c3        1 ZVT      0.135400
     22 OAS         6.3450   -3.9380  -10.8950 os        1 ZVT     -0.331900
     23 CAW         6.6140   -4.7320  -11.9980 ca        1 ZVT      0.097100
     24 CAL         7.2070   -5.9710  -11.6890 ca        1 ZVT     -0.150500
     25 CAM         6.3350   -4.3780  -13.3220 ca        1 ZVT     -0.150500
     26 CAK         6.6470   -5.2650  -14.3490 ca        1 ZVT     -0.131000
     27 CAV         7.2370   -6.5050  -14.0490 ca        1 ZVT      0.104900
     28 FAD         7.5400   -7.3680  -15.0470 f         1 ZVT     -0.132900
     29 CAJ         7.5170   -6.8540  -12.7120 ca        1 ZVT     -0.131000
     30 HAH         5.2340    0.2480    0.9260 ha        1 ZVT      0.181000
     31 HAF         3.5970    1.5510    2.2810 ha        1 ZVT      0.173000
     32 HAG         1.2260    1.7830    1.5070 ha        1 ZVT      0.173000
     33 HAI         0.5040    0.7200   -0.6300 ha        1 ZVT      0.166000
     34 HAR         3.4910    0.2020   -3.4240 hn        1 ZVT      0.473800
     35 HBB         1.1770   -1.0920   -4.7980 hx        1 ZVT      0.121700
     36 HAA1        2.3780    1.7970   -4.9660 hc        1 ZVT      0.080700
     37 HAA2        0.8470    1.3020   -4.1020 hc        1 ZVT      0.080700
     38 HAA3        0.9750    1.1450   -5.9060 hc        1 ZVT      0.080700
     39 HAB1        0.6490   -1.1570   -7.8180 h1        1 ZVT      0.078367
     40 HAB2        1.4750   -2.7170   -8.3070 h1        1 ZVT      0.078367
     41 HAB3        0.8930   -2.4930   -6.5850 h1        1 ZVT      0.078367
     42 HAO1        6.2780   -2.4340   -9.0670 h1        1 ZVT      0.107700
     43 HAO2        5.8860   -0.8860   -9.9180 h1        1 ZVT      0.107700
     44 HAN1        6.4680   -2.0710  -11.8360 h1        1 ZVT      0.062200
     45 HAN2        4.7850   -2.7890  -11.6960 h1        1 ZVT      0.062200
     46 HAL         7.4190   -6.2240  -10.6400 ha        1 ZVT      0.147000
     47 HAM         5.8760   -3.4120  -13.5720 ha        1 ZVT      0.147000
     48 HAJ         7.9810   -7.8270  -12.4910 ha        1 ZVT      0.157000
     49 HAK         6.4360   -5.0010  -15.3960 ha        1 ZVT      0.157000
     50 HAR2        3.3770   -1.4460   -3.6210 hn        1 ZVT      0.473800
@<TRIPOS>BOND
     1    1    2 1   
     2    2    3 ar  
     3    2    7 ar  
     4    3    4 ar  
     5    3   30 1   
     6    4    5 ar  
     7    4   31 1   
     8    5    6 ar  
     9    5   32 1   
    10    6    7 ar  
    11    6   33 1   
    12    7    8 1   
    13    8    9 2   
    14    8   10 1   
    15   10   11 1   
    16   10   34 1   
    17   10   50 1   
    18   11   12 1   
    19   11   13 1   
    20   11   35 1   
    21   12   36 1   
    22   12   37 1   
    23   12   38 1   
    24   13   14 1   
    25   13   16 2   
    26   14   15 1   
    27   14   18 1   
    28   15   39 1   
    29   15   40 1   
    30   15   41 1   
    31   16   17 1   
    32   17   18 2   
    33   18   19 1   
    34   19   20 1   
    35   20   21 1   
    36   20   42 1   
    37   20   43 1   
    38   21   22 1   
    39   21   44 1   
    40   21   45 1   
    41   22   23 1   
    42   23   24 ar  
    43   23   25 ar  
    44   24   29 ar  
    45   24   46 1   
    46   25   26 ar  
    47   25   47 1   
    48   26   27 ar  
    49   26   49 1   
    50   27   28 1   
    51   27   29 ar  
    52   29   48 1   
@<TRIPOS>SUBSTRUCTURE
     1 ZVT         1 TEMP              0 ****  ****    0 ROOT
