@<TRIPOS>MOLECULE
ZVU
   49    51     1     0     0
SMALL
bcc


@<TRIPOS>ATOM
      1 FAE         2.2140    3.6560    1.2200 f         1 ZVU     -0.224633
      2 CBD         3.0490    2.7280    0.6670 c3        1 ZVU      0.674200
      3 FAF         4.2210    3.4060    0.4110 f         1 ZVU     -0.224633
      4 FAG         3.3930    1.8970    1.7100 f         1 ZVU     -0.224633
      5 CAY         2.4940    1.9990   -0.5580 ca        1 ZVU     -0.133300
      6 CAK         1.4160    2.5790   -1.2260 ca        1 ZVU     -0.072000
      7 CAI         0.8550    1.9500   -2.3430 ca        1 ZVU     -0.067000
      8 CAH         1.3640    0.7320   -2.7860 ca        1 ZVU     -0.094000
      9 CAJ         2.4390    0.1410   -2.1190 ca        1 ZVU     -0.062000
     10 CAX         3.0190    0.7770   -1.0130 ca        1 ZVU     -0.159600
     11 CAU         4.1270    0.0540   -0.3600 c         1 ZVU      0.568700
     12 OAC         4.1400   -1.1190   -0.0180 o         1 ZVU     -0.405100
     13 NAS         5.3910    0.8470   -0.1320 ny        1 ZVU     -0.683800
     14 CBB         6.6560    0.0270   -0.3140 c3        1 ZVU      0.157200
     15 CAA         6.9090   -0.2810   -1.7840 c3        1 ZVU     -0.124100
     16 CBA         7.7900    0.8030    0.2630 cc        1 ZVU      0.201800
     17 NBC         8.7620    0.3170    1.1610 na        1 ZVU     -0.274700
     18 CAB         8.8840   -1.0030    1.6900 c3        1 ZVU      0.006600
     19 NAR         8.0770    2.1210   -0.0160 nd        1 ZVU     -0.304000
     20 NAQ         9.1380    2.4810    0.6390 nd        1 ZVU     -0.353000
     21 CAZ         9.6180    1.4040    1.3800 cc        1 ZVU      0.462800
     22 SAT        10.9630    1.3590    2.3760 ss        1 ZVU     -0.173400
     23 CAP        11.7090    2.9700    2.1810 c3        1 ZVU      0.045000
     24 CAW        12.9070    2.9220    3.0440 ca        1 ZVU     -0.137300
     25 CAN        14.1380    2.5050    2.5190 ca        1 ZVU     -0.076000
     26 CAO        12.8280    3.3200    4.3860 ca        1 ZVU     -0.076000
     27 CAM        13.9540    3.2950    5.2000 ca        1 ZVU     -0.168000
     28 CAV        15.1860    2.8690    4.6670 ca        1 ZVU      0.157900
     29 FAD        16.2850    2.8410    5.4510 f         1 ZVU     -0.123900
     30 CAL        15.2750    2.4740    3.3180 ca        1 ZVU     -0.168000
     31 HAK         0.9960    3.5360   -0.8670 ha        1 ZVU      0.184000
     32 HAI         0.0030    2.4210   -2.8640 ha        1 ZVU      0.177000
     33 HAH         0.9180    0.2250   -3.6590 ha        1 ZVU      0.176000
     34 HAJ         2.8270   -0.8350   -2.4580 ha        1 ZVU      0.167000
     35 HAS         5.3760    1.2210    0.8310 hn        1 ZVU      0.477300
     36 HBB         6.5010   -0.9390    0.2600 hx        1 ZVU      0.119700
     37 HAA1        7.0580    0.6500   -2.3830 hc        1 ZVU      0.080367
     38 HAA2        6.0690   -0.8770   -2.2160 hc        1 ZVU      0.080367
     39 HAA3        7.8470   -0.8890   -1.8520 hc        1 ZVU      0.080367
     40 HAB1        8.7450   -1.7580    0.8700 h1        1 ZVU      0.077367
     41 HAB2        9.9080   -1.1310    2.1400 h1        1 ZVU      0.077367
     42 HAB3        8.1100   -1.1710    2.4880 h1        1 ZVU      0.077367
     43 HAP1       10.9970    3.7710    2.5020 h1        1 ZVU      0.097200
     44 HAP2       11.9730    3.1530    1.1110 h1        1 ZVU      0.097200
     45 HAN        14.2110    2.2030    1.4620 ha        1 ZVU      0.144000
     46 HAO        11.8660    3.6600    4.8010 ha        1 ZVU      0.144000
     47 HAL        16.2440    2.1500    2.9080 ha        1 ZVU      0.161000
     48 HAM        13.8950    3.6080    6.2530 ha        1 ZVU      0.161000
     49 HAS2        5.4170    1.6530   -0.7730 hn        1 ZVU      0.477300
@<TRIPOS>BOND
     1    1    2 1   
     2    2    3 1   
     3    2    4 1   
     4    2    5 1   
     5    5    6 ar  
     6    5   10 ar  
     7    6    7 ar  
     8    6   31 1   
     9    7    8 ar  
    10    7   32 1   
    11    8    9 ar  
    12    8   33 1   
    13    9   10 ar  
    14    9   34 1   
    15   10   11 1   
    16   11   12 2   
    17   11   13 1   
    18   13   14 1   
    19   13   35 1   
    20   13   49 1   
    21   14   15 1   
    22   14   16 1   
    23   14   36 1   
    24   15   37 1   
    25   15   38 1   
    26   15   39 1   
    27   16   17 1   
    28   16   19 2   
    29   17   18 1   
    30   17   21 1   
    31   18   40 1   
    32   18   41 1   
    33   18   42 1   
    34   19   20 1   
    35   20   21 2   
    36   21   22 1   
    37   22   23 1   
    38   23   24 1   
    39   23   43 1   
    40   23   44 1   
    41   24   25 ar  
    42   24   26 ar  
    43   25   30 ar  
    44   25   45 1   
    45   26   27 ar  
    46   26   46 1   
    47   27   28 ar  
    48   27   48 1   
    49   28   29 1   
    50   28   30 ar  
    51   30   47 1   
@<TRIPOS>SUBSTRUCTURE
     1 ZVU         1 TEMP              0 ****  ****    0 ROOT
