@<TRIPOS>MOLECULE
ZVU
   49    51     1     0     0
SMALL
bcc


@<TRIPOS>ATOM
      1 FAE         2.2250    3.6810    1.2360 f         1 ZVU     -0.224633
      2 CBD         3.0540    2.7520    0.6780 c3        1 ZVU      0.674200
      3 FAF         4.2300    3.4250    0.4230 f         1 ZVU     -0.224633
      4 FAG         3.3960    1.9130    1.7160 f         1 ZVU     -0.224633
      5 CAY         2.4940    2.0320   -0.5510 ca        1 ZVU     -0.133300
      6 CAK         1.4190    2.6200   -1.2140 ca        1 ZVU     -0.072000
      7 CAI         0.8530    1.9990   -2.3340 ca        1 ZVU     -0.067000
      8 CAH         1.3550    0.7820   -2.7840 ca        1 ZVU     -0.094000
      9 CAJ         2.4280    0.1810   -2.1210 ca        1 ZVU     -0.062000
     10 CAX         3.0120    0.8090   -1.0120 ca        1 ZVU     -0.159600
     11 CAU         4.1180    0.0770   -0.3640 c         1 ZVU      0.568700
     12 OAC         4.1250   -1.0980   -0.0280 o         1 ZVU     -0.405100
     13 NAS         5.3860    0.8620   -0.1330 n4        1 ZVU     -0.683800
     14 CBB         6.6460    0.0370   -0.3210 c3        1 ZVU      0.157200
     15 CAA         6.8960   -0.2650   -1.7930 c3        1 ZVU     -0.124100
     16 CBA         7.7850    0.8040    0.2580 cc        1 ZVU      0.201800
     17 NBC         8.7570    0.3080    1.1510 na        1 ZVU     -0.274700
     18 CAB         8.8730   -1.0160    1.6730 c3        1 ZVU      0.006600
     19 NAR         8.0780    2.1220   -0.0130 nd        1 ZVU     -0.304000
     20 NAQ         9.1430    2.4730    0.6410 nd        1 ZVU     -0.353000
     21 CAZ         9.6180    1.3900    1.3750 cc        1 ZVU      0.462800
     22 SAT        10.9650    1.3320    2.3680 ss        1 ZVU     -0.173400
     23 CAP        11.7180    2.9410    2.1820 c3        1 ZVU      0.045000
     24 CAW        12.9180    2.8810    3.0410 ca        1 ZVU     -0.137300
     25 CAN        14.1460    2.4620    2.5110 ca        1 ZVU     -0.076000
     26 CAO        12.8440    3.2700    4.3860 ca        1 ZVU     -0.076000
     27 CAM        13.9720    3.2360    5.1970 ca        1 ZVU     -0.168000
     28 CAV        15.2000    2.8070    4.6580 ca        1 ZVU      0.157900
     29 FAD        16.3020    2.7690    5.4400 f         1 ZVU     -0.123900
     30 CAL        15.2850    2.4210    3.3060 ca        1 ZVU     -0.168000
     31 HAK         1.0040    3.5780   -0.8500 ha        1 ZVU      0.184000
     32 HAI         0.0030    2.4780   -2.8510 ha        1 ZVU      0.177000
     33 HAH         0.9050    0.2810   -3.6580 ha        1 ZVU      0.176000
     34 HAJ         2.8110   -0.7950   -2.4650 ha        1 ZVU      0.167000
     35 HAS         5.4150    1.6710   -0.7700 hn        1 ZVU      0.477300
     36 HBB         6.4870   -0.9320    0.2480 hx        1 ZVU      0.119700
     37 HAA1        7.8310   -0.8770   -1.8660 hc        1 ZVU      0.080367
     38 HAA2        7.0490    0.6690   -2.3880 hc        1 ZVU      0.080367
     39 HAA3        6.0520   -0.8540   -2.2270 hc        1 ZVU      0.080367
     40 HAB1        8.0990   -1.1850    2.4700 h1        1 ZVU      0.077367
     41 HAB2        9.8970   -1.1510    2.1210 h1        1 ZVU      0.077367
     42 HAB3        8.7300   -1.7660    0.8490 h1        1 ZVU      0.077367
     43 HAP1       11.9810    3.1290    1.1120 h1        1 ZVU      0.097200
     44 HAP2       11.0110    3.7430    2.5100 h1        1 ZVU      0.097200
     45 HAN        14.2150    2.1670    1.4520 ha        1 ZVU      0.144000
     46 HAO        11.8850    3.6130    4.8060 ha        1 ZVU      0.144000
     47 HAL        16.2510    2.0940    2.8930 ha        1 ZVU      0.161000
     48 HAM        13.9170    3.5420    6.2530 ha        1 ZVU      0.161000
     49 HAS2        5.3740    1.2310    0.8320 hn        1 ZVU      0.477300
@<TRIPOS>BOND
     1    1    2 1   
     2    2    3 1   
     3    2    4 1   
     4    2    5 1   
     5    5    6 ar  
     6    5   10 ar  
     7    6    7 ar  
     8    6   31 1   
     9    7    8 ar  
    10    7   32 1   
    11    8    9 ar  
    12    8   33 1   
    13    9   10 ar  
    14    9   34 1   
    15   10   11 1   
    16   11   12 2   
    17   11   13 1   
    18   13   14 1   
    19   13   35 1   
    20   13   49 1   
    21   14   15 1   
    22   14   16 1   
    23   14   36 1   
    24   15   37 1   
    25   15   38 1   
    26   15   39 1   
    27   16   17 1   
    28   16   19 2   
    29   17   18 1   
    30   17   21 1   
    31   18   40 1   
    32   18   41 1   
    33   18   42 1   
    34   19   20 1   
    35   20   21 2   
    36   21   22 1   
    37   22   23 1   
    38   23   24 1   
    39   23   43 1   
    40   23   44 1   
    41   24   25 ar  
    42   24   26 ar  
    43   25   30 ar  
    44   25   45 1   
    45   26   27 ar  
    46   26   46 1   
    47   27   28 ar  
    48   27   48 1   
    49   28   29 1   
    50   28   30 ar  
    51   30   47 1   
@<TRIPOS>SUBSTRUCTURE
     1 ZVU         1 TEMP              0 ****  ****    0 ROOT
