@<TRIPOS>MOLECULE
ZVU
   48    50     1     0     0
SMALL
bcc


@<TRIPOS>ATOM
      1 FAE        -7.0000   -0.0940   -1.0890 f         1 ZVU     -0.232967
      2 CBD        -5.6440   -0.1690   -0.8770 c3        1 ZVU      0.685200
      3 FAF        -5.4740   -1.4040   -0.3060 f         1 ZVU     -0.232967
      4 FAG        -5.1250   -0.2990   -2.1440 f         1 ZVU     -0.232967
      5 CAY        -5.0640    1.0030   -0.0860 ca        1 ZVU     -0.139300
      6 CAK        -5.8400    2.1630    0.0170 ca        1 ZVU     -0.092000
      7 CAI        -5.3680    3.2660    0.7270 ca        1 ZVU     -0.116000
      8 CAH        -4.1200    3.2130    1.3470 ca        1 ZVU     -0.105000
      9 CAJ        -3.3450    2.0590    1.2510 ca        1 ZVU     -0.092000
     10 CAX        -3.8060    0.9510    0.5270 ca        1 ZVU     -0.087600
     11 CAU        -2.8980   -0.2390    0.4950 c         1 ZVU      0.673700
     12 OAC        -2.4460   -0.7270    1.5520 o         1 ZVU     -0.609100
     13 NAS        -2.5700   -0.7520   -0.7400 n         1 ZVU     -0.553900
     14 CBB        -1.6230   -1.8340   -0.8900 c3        1 ZVU      0.098400
     15 CAA        -1.9570   -2.7420   -2.0760 c3        1 ZVU     -0.100100
     16 CBA        -0.2150   -1.3110   -1.0640 cc        1 ZVU      0.316800
     17 NBC         0.7730   -1.3110   -0.0610 na        1 ZVU     -0.287700
     18 CAB         0.6710   -1.8020    1.2740 c3        1 ZVU      0.001600
     19 NAR         0.3160   -0.7340   -2.1870 nd        1 ZVU     -0.336000
     20 NAQ         1.5590   -0.3920   -1.9570 nd        1 ZVU     -0.371000
     21 CAZ         1.8980   -0.7260   -0.6640 cc        1 ZVU      0.415800
     22 SAT         3.3740   -0.5040    0.1200 ss        1 ZVU     -0.224400
     23 CAP         4.3490    0.3490   -1.1030 c3        1 ZVU      0.034000
     24 CAW         5.6650    0.5910   -0.4740 ca        1 ZVU     -0.107300
     25 CAN         6.6920   -0.3550   -0.6000 ca        1 ZVU     -0.084500
     26 CAO         5.9040    1.7760    0.2330 ca        1 ZVU     -0.084500
     27 CAM         7.1440    2.0190    0.8140 ca        1 ZVU     -0.168500
     28 CAV         8.1680    1.0620    0.6860 ca        1 ZVU      0.135900
     29 FAD         9.3780    1.2900    1.2480 f         1 ZVU     -0.137900
     30 CAL         7.9380   -0.1300   -0.0260 ca        1 ZVU     -0.168500
     31 HAK        -6.8310    2.2020   -0.4640 ha        1 ZVU      0.158000
     32 HAI        -5.9850    4.1740    0.7990 ha        1 ZVU      0.147000
     33 HAH        -3.7470    4.0780    1.9160 ha        1 ZVU      0.147000
     34 HAJ        -2.3660    2.0010    1.7530 ha        1 ZVU      0.160000
     35 HAS        -2.8630   -0.2850   -1.5680 hn        1 ZVU      0.332500
     36 HBB        -1.6610   -2.4540    0.0600 h1        1 ZVU      0.087700
     37 HAA1       -1.9700   -2.1730   -3.0360 hc        1 ZVU      0.056700
     38 HAA2       -1.1800   -3.5400   -2.1460 hc        1 ZVU      0.056700
     39 HAA3       -2.9560   -3.2180   -1.9240 hc        1 ZVU      0.056700
     40 HAB1        0.8080   -2.9170    1.2860 h1        1 ZVU      0.074367
     41 HAB2        1.4700   -1.3280    1.9080 h1        1 ZVU      0.074367
     42 HAB3       -0.3420   -1.5470    1.6960 h1        1 ZVU      0.074367
     43 HAP1        4.4440   -0.2760   -2.0260 h1        1 ZVU      0.092200
     44 HAP2        3.8510    1.3080   -1.3950 h1        1 ZVU      0.092200
     45 HAN         6.5110   -1.2870   -1.1590 ha        1 ZVU      0.144500
     46 HAO         5.1030    2.5260    0.3300 ha        1 ZVU      0.144500
     47 HAL         8.7440   -0.8710   -0.1220 ha        1 ZVU      0.152000
     48 HAM         7.3330    2.9490    1.3690 ha        1 ZVU      0.152000
@<TRIPOS>BOND
     1    1    2 1   
     2    2    3 1   
     3    2    4 1   
     4    2    5 1   
     5    5    6 ar  
     6    5   10 ar  
     7    6    7 ar  
     8    6   31 1   
     9    7    8 ar  
    10    7   32 1   
    11    8    9 ar  
    12    8   33 1   
    13    9   10 ar  
    14    9   34 1   
    15   10   11 1   
    16   11   12 2   
    17   11   13 1   
    18   13   14 1   
    19   13   35 1   
    20   14   15 1   
    21   14   16 1   
    22   14   36 1   
    23   15   37 1   
    24   15   38 1   
    25   15   39 1   
    26   16   17 1   
    27   16   19 2   
    28   17   18 1   
    29   17   21 1   
    30   18   40 1   
    31   18   41 1   
    32   18   42 1   
    33   19   20 1   
    34   20   21 2   
    35   21   22 1   
    36   22   23 1   
    37   23   24 1   
    38   23   43 1   
    39   23   44 1   
    40   24   25 ar  
    41   24   26 ar  
    42   25   30 ar  
    43   25   45 1   
    44   26   27 ar  
    45   26   46 1   
    46   27   28 ar  
    47   27   48 1   
    48   28   29 1   
    49   28   30 ar  
    50   30   47 1   
@<TRIPOS>SUBSTRUCTURE
     1 ZVU         1 TEMP              0 ****  ****    0 ROOT
