@<TRIPOS>MOLECULE
ZVV
   56    58     1     0     0
SMALL
bcc


@<TRIPOS>ATOM
      1 FAE         3.4280    4.8780   -0.4370 f         1 ZVV     -0.224300
      2 CBF         3.9050    3.5990   -0.4030 c3        1 ZVV      0.674200
      3 FAF         5.1240    3.6530   -1.0440 f         1 ZVV     -0.224300
      4 FAG         4.2550    3.3880    0.9130 f         1 ZVV     -0.224300
      5 CBA         2.9670    2.5380   -0.9800 ca        1 ZVV     -0.133300
      6 CAO         1.9360    2.9660   -1.8150 ca        1 ZVV     -0.072000
      7 CAK         1.0360    2.0430   -2.3590 ca        1 ZVV     -0.067000
      8 CAJ         1.1590    0.6890   -2.0580 ca        1 ZVV     -0.094000
      9 CAN         2.1850    0.2510   -1.2170 ca        1 ZVV     -0.062000
     10 CAZ         3.1020    1.1690   -0.6870 ca        1 ZVV     -0.159600
     11 CAW         4.1280    0.6100    0.2140 c         1 ZVV      0.569700
     12 OAD         3.9450   -0.1460    1.1570 o         1 ZVV     -0.405100
     13 NAT         5.5560    0.9840   -0.0950 n4        1 ZVV     -0.684800
     14 CBD         6.5430   -0.1420    0.1640 c3        1 ZVV      0.158200
     15 CAB         6.4220   -1.2350   -0.8910 c3        1 ZVV     -0.123100
     16 CBC         7.9130    0.4430    0.1590 cc        1 ZVV      0.202800
     17 NBE         8.9040    0.2720    1.1470 na        1 ZVV     -0.272700
     18 CAC         8.8450   -0.5310    2.3260 c3        1 ZVV      0.006600
     19 NAS         8.4290    1.2420   -0.8380 nd        1 ZVV     -0.304000
     20 NAR         9.6520    1.5630   -0.5480 nd        1 ZVV     -0.348000
     21 CBB        10.0120    0.9810    0.6640 cc        1 ZVV      0.459800
     22 SAV        11.4810    1.0870    1.4600 ss        1 ZVV     -0.156400
     23 CAQ        12.4210    2.2330    0.4840 c3        1 ZVV     -0.032300
     24 CAP        13.7480    2.3760    1.2000 c3        1 ZVV      0.135400
     25 OAU        13.6760    3.6020    1.9320 os        1 ZVV     -0.333900
     26 CAY        14.8270    3.9620    2.6190 ca        1 ZVV      0.107100
     27 CAX        14.7540    5.2130    3.2730 ca        1 ZVV     -0.091300
     28 CAA        13.5250    6.0310    3.1870 c3        1 ZVV     -0.043800
     29 CAM        15.9800    3.1760    2.6860 ca        1 ZVV     -0.197000
     30 CAI        17.0780    3.6370    3.4150 ca        1 ZVV     -0.098000
     31 CAH        17.0230    4.8660    4.0670 ca        1 ZVV     -0.147000
     32 CAL        15.8680    5.6450    3.9950 ca        1 ZVV     -0.099000
     33 HAO         1.8220    4.0420   -2.0410 ha        1 ZVV      0.184000
     34 HAK         0.2250    2.3960   -3.0190 ha        1 ZVV      0.177000
     35 HAJ         0.4450   -0.0420   -2.4740 ha        1 ZVV      0.176000
     36 HAN         2.2680   -0.8190   -0.9620 ha        1 ZVV      0.167000
     37 HAT         5.8190    1.7940    0.4910 hn        1 ZVV      0.477300
     38 HBD         6.2890   -0.5660    1.1850 hx        1 ZVV      0.119700
     39 HAB1        6.6500   -0.8490   -1.9150 hc        1 ZVV      0.080700
     40 HAB2        7.1680   -2.0330   -0.6490 hc        1 ZVV      0.080700
     41 HAB3        5.4010   -1.6880   -0.8780 hc        1 ZVV      0.080700
     42 HAC1        8.9960   -1.6150    2.0690 h1        1 ZVV      0.078033
     43 HAC2        9.6580   -0.2060    3.0350 h1        1 ZVV      0.078033
     44 HAC3        7.8480   -0.4020    2.8260 h1        1 ZVV      0.078033
     45 HAQ1       12.5730    1.8390   -0.5490 h1        1 ZVV      0.107700
     46 HAQ2       11.9040    3.2230    0.4060 h1        1 ZVV      0.107700
     47 HAP1       14.5880    2.4280    0.4560 h1        1 ZVV      0.061700
     48 HAP2       13.9300    1.5220    1.9100 h1        1 ZVV      0.061700
     49 HAM        16.0420    2.2050    2.1770 ha        1 ZVV      0.132000
     50 HAA1       13.6400    6.9970    3.7360 hc        1 ZVV      0.046700
     51 HAA2       12.6600    5.4710    3.6240 hc        1 ZVV      0.046700
     52 HAA3       13.2850    6.2510    2.1170 hc        1 ZVV      0.046700
     53 HAL        15.8310    6.6170    4.5110 ha        1 ZVV      0.141000
     54 HAI        17.9880    3.0220    3.4700 ha        1 ZVV      0.138000
     55 HAH        17.8900    5.2250    4.6400 ha        1 ZVV      0.141000
     56 HAT2        5.6330    1.2800   -1.0780 hn        1 ZVV      0.477300
@<TRIPOS>BOND
     1    1    2 1   
     2    2    3 1   
     3    2    4 1   
     4    2    5 1   
     5    5    6 ar  
     6    5   10 ar  
     7    6    7 ar  
     8    6   33 1   
     9    7    8 ar  
    10    7   34 1   
    11    8    9 ar  
    12    8   35 1   
    13    9   10 ar  
    14    9   36 1   
    15   10   11 1   
    16   11   12 2   
    17   11   13 1   
    18   13   14 1   
    19   13   37 1   
    20   13   56 1   
    21   14   15 1   
    22   14   16 1   
    23   14   38 1   
    24   15   39 1   
    25   15   40 1   
    26   15   41 1   
    27   16   17 1   
    28   16   19 2   
    29   17   18 1   
    30   17   21 1   
    31   18   42 1   
    32   18   43 1   
    33   18   44 1   
    34   19   20 1   
    35   20   21 2   
    36   21   22 1   
    37   22   23 1   
    38   23   24 1   
    39   23   45 1   
    40   23   46 1   
    41   24   25 1   
    42   24   47 1   
    43   24   48 1   
    44   25   26 1   
    45   26   27 ar  
    46   26   29 ar  
    47   27   28 1   
    48   27   32 ar  
    49   28   50 1   
    50   28   51 1   
    51   28   52 1   
    52   29   30 ar  
    53   29   49 1   
    54   30   31 ar  
    55   30   54 1   
    56   31   32 ar  
    57   31   55 1   
    58   32   53 1   
@<TRIPOS>SUBSTRUCTURE
     1 ZVV         1 TEMP              0 ****  ****    0 ROOT
