@<TRIPOS>MOLECULE
ZVV
   55    57     1     0     0
SMALL
bcc


@<TRIPOS>ATOM
      1 FAE        -7.3200    0.8390   -0.9420 f         1 ZVV     -0.233300
      2 CBF        -5.9990    0.4990   -0.7730 c3        1 ZVV      0.685200
      3 FAF        -6.0560   -0.7430   -0.1930 f         1 ZVV     -0.233300
      4 FAG        -5.5590    0.2620   -2.0550 f         1 ZVV     -0.233300
      5 CBA        -5.1720    1.5380   -0.0160 ca        1 ZVV     -0.139300
      6 CAO        -5.6990    2.8290    0.0980 ca        1 ZVV     -0.092000
      7 CAK        -4.9950    3.8200    0.7790 ca        1 ZVV     -0.116000
      8 CAJ        -3.7620    3.5250    1.3590 ca        1 ZVV     -0.105000
      9 CAN        -3.2340    2.2400    1.2510 ca        1 ZVV     -0.092000
     10 CAZ        -3.9290    1.2420    0.5560 ca        1 ZVV     -0.088600
     11 CAW        -3.2760   -0.1050    0.5090 c         1 ZVV      0.673700
     12 OAD        -2.8960   -0.6690    1.5560 o         1 ZVV     -0.609100
     13 NAT        -3.0960   -0.6780   -0.7300 n         1 ZVV     -0.553900
     14 CBD        -2.3820   -1.9240   -0.8990 c3        1 ZVV      0.098400
     15 CAB        -2.9280   -2.7560   -2.0620 c3        1 ZVV     -0.099100
     16 CBC        -0.9070   -1.6850   -1.1260 cc        1 ZVV      0.317800
     17 NBE         0.0960   -1.8630   -0.1550 na        1 ZVV     -0.286700
     18 CAC        -0.0500   -2.3120    1.1910 c3        1 ZVV      0.000600
     19 NAS        -0.3140   -1.2330   -2.2750 nd        1 ZVV     -0.336000
     20 NAR         0.9790   -1.1370   -2.0930 nd        1 ZVV     -0.366000
     21 CBB         1.2920   -1.5160   -0.8050 cc        1 ZVV      0.415800
     22 SAV         2.8090   -1.5770   -0.0730 ss        1 ZVV     -0.222400
     23 CAQ         3.8700   -0.8130   -1.2710 c3        1 ZVV     -0.028300
     24 CAP         5.2710   -0.9180   -0.7070 c3        1 ZVV      0.138400
     25 OAU         5.7010    0.4270   -0.4630 os        1 ZVV     -0.327900
     26 CAY         6.9630    0.5680    0.0870 ca        1 ZVV      0.119100
     27 CAX         7.3460    1.9030    0.3530 ca        1 ZVV     -0.095300
     28 CAA         6.4210    3.0170    0.0460 c3        1 ZVV     -0.043800
     29 CAM         7.8240   -0.4980    0.3680 ca        1 ZVV     -0.200000
     30 CAI         9.0790   -0.2350    0.9190 ca        1 ZVV     -0.101000
     31 CAH         9.4700    1.0740    1.1870 ca        1 ZVV     -0.158000
     32 CAL         8.6060    2.1330    0.9040 ca        1 ZVV     -0.103000
     33 HAO        -6.6800    3.0600   -0.3500 ha        1 ZVV      0.158000
     34 HAK        -5.4180    4.8330    0.8600 ha        1 ZVV      0.147000
     35 HAJ        -3.2060    4.3030    1.9040 ha        1 ZVV      0.147000
     36 HAN        -2.2680    1.9920    1.7210 ha        1 ZVV      0.160000
     37 HAT        -3.3170   -0.1650   -1.5530 hn        1 ZVV      0.332500
     38 HBD        -2.5070   -2.5200    0.0590 h1        1 ZVV      0.087700
     39 HAB1       -2.3230   -3.6890   -2.1500 hc        1 ZVV      0.056700
     40 HAB2       -3.9940   -3.0290   -1.8700 hc        1 ZVV      0.056700
     41 HAB3       -2.8650   -2.2000   -3.0280 hc        1 ZVV      0.056700
     42 HAC1       -0.1100   -3.4340    1.2190 h1        1 ZVV      0.074367
     43 HAC2        0.8380   -1.9760    1.7930 h1        1 ZVV      0.074367
     44 HAC3       -0.9890   -1.8770    1.6360 h1        1 ZVV      0.074367
     45 HAQ1        3.8000   -1.3370   -2.2550 h1        1 ZVV      0.101700
     46 HAQ2        3.5840    0.2560   -1.4370 h1        1 ZVV      0.101700
     47 HAP1        5.2900   -1.4990    0.2570 h1        1 ZVV      0.053700
     48 HAP2        5.9650   -1.4000   -1.4460 h1        1 ZVV      0.053700
     49 HAM         7.5320   -1.5360    0.1610 ha        1 ZVV      0.135000
     50 HAA1        5.4550    2.8730    0.5920 hc        1 ZVV      0.047033
     51 HAA2        6.8590    4.0020    0.3380 hc        1 ZVV      0.047033
     52 HAA3        6.1940    3.0340   -1.0500 hc        1 ZVV      0.047033
     53 HAL         8.9210    3.1660    1.1170 ha        1 ZVV      0.134000
     54 HAI         9.7580   -1.0710    1.1410 ha        1 ZVV      0.132000
     55 HAH        10.4590    1.2760    1.6220 ha        1 ZVV      0.133000
@<TRIPOS>BOND
     1    1    2 1   
     2    2    3 1   
     3    2    4 1   
     4    2    5 1   
     5    5    6 ar  
     6    5   10 ar  
     7    6    7 ar  
     8    6   33 1   
     9    7    8 ar  
    10    7   34 1   
    11    8    9 ar  
    12    8   35 1   
    13    9   10 ar  
    14    9   36 1   
    15   10   11 1   
    16   11   12 2   
    17   11   13 1   
    18   13   14 1   
    19   13   37 1   
    20   14   15 1   
    21   14   16 1   
    22   14   38 1   
    23   15   39 1   
    24   15   40 1   
    25   15   41 1   
    26   16   17 1   
    27   16   19 2   
    28   17   18 1   
    29   17   21 1   
    30   18   42 1   
    31   18   43 1   
    32   18   44 1   
    33   19   20 1   
    34   20   21 2   
    35   21   22 1   
    36   22   23 1   
    37   23   24 1   
    38   23   45 1   
    39   23   46 1   
    40   24   25 1   
    41   24   47 1   
    42   24   48 1   
    43   25   26 1   
    44   26   27 ar  
    45   26   29 ar  
    46   27   28 1   
    47   27   32 ar  
    48   28   50 1   
    49   28   51 1   
    50   28   52 1   
    51   29   30 ar  
    52   29   49 1   
    53   30   31 ar  
    54   30   54 1   
    55   31   32 ar  
    56   31   55 1   
    57   32   53 1   
@<TRIPOS>SUBSTRUCTURE
     1 ZVV         1 TEMP              0 ****  ****    0 ROOT
