@<TRIPOS>MOLECULE
ZVV
   56    58     1     0     0
SMALL
bcc


@<TRIPOS>ATOM
      1 FAE         1.7900    2.5640    1.8070 f         1 ZVV     -0.224300
      2 CBF         2.7720    2.0000    1.0440 c3        1 ZVV      0.674200
      3 FAF         3.7690    2.9490    0.9820 f         1 ZVV     -0.224300
      4 FAG         3.3230    1.0230    1.8440 f         1 ZVV     -0.224300
      5 CBA         2.3240    1.5040   -0.3330 ca        1 ZVV     -0.133300
      6 CAO         1.1230    1.9960   -0.8420 ca        1 ZVV     -0.072000
      7 CAK         0.6540    1.5660   -2.0880 ca        1 ZVV     -0.067000
      8 CAJ         1.3810    0.6330   -2.8220 ca        1 ZVV     -0.094000
      9 CAN         2.5820    0.1300   -2.3170 ca        1 ZVV     -0.062000
     10 CAZ         3.0670    0.5720   -1.0790 ca        1 ZVV     -0.160600
     11 CAW         4.3260   -0.0440   -0.6200 c         1 ZVV      0.569700
     12 OAD         4.5930   -1.2370   -0.5880 o         1 ZVV     -0.404100
     13 NAT         5.4110    0.9100   -0.1840 ny        1 ZVV     -0.683800
     14 CBD         6.8070    0.4430   -0.5570 c3        1 ZVV      0.156200
     15 CAB         7.0530    0.5710   -2.0550 c3        1 ZVV     -0.124100
     16 CBC         7.7850    1.2700    0.2070 cc        1 ZVV      0.204800
     17 NBE         8.8920    0.7900    0.9360 na        1 ZVV     -0.272700
     18 CAC         9.3240   -0.5610    1.0950 c3        1 ZVV      0.005600
     19 NAS         7.7710    2.6440    0.2920 nd        1 ZVV     -0.306000
     20 NAR         8.7700    3.0440    1.0180 nd        1 ZVV     -0.347000
     21 CBB         9.5090    1.9430    1.4410 cc        1 ZVV      0.459800
     22 SAV        10.8930    1.9330    2.3830 ss        1 ZVV     -0.157400
     23 CAQ        11.3350    3.6460    2.5200 c3        1 ZVV     -0.032300
     24 CAP        12.6190    3.6660    3.3250 c3        1 ZVV      0.135400
     25 OAU        13.6790    3.8360    2.3800 os        1 ZVV     -0.332900
     26 CAY        14.9530    3.9500    2.9180 ca        1 ZVV      0.107100
     27 CAX        15.9720    4.1970    1.9700 ca        1 ZVV     -0.091300
     28 CAA        15.6410    4.3250    0.5340 c3        1 ZVV     -0.043800
     29 CAM        15.2450    3.8280    4.2800 ca        1 ZVV     -0.197000
     30 CAI        16.5680    3.9520    4.7070 ca        1 ZVV     -0.098000
     31 CAH        17.5840    4.1940    3.7860 ca        1 ZVV     -0.147000
     32 CAL        17.2840    4.3150    2.4290 ca        1 ZVV     -0.099000
     33 HAO         0.5330    2.7230   -0.2540 ha        1 ZVV      0.184000
     34 HAK        -0.2970    1.9660   -2.4800 ha        1 ZVV      0.177000
     35 HAJ         1.0100    0.2810   -3.8000 ha        1 ZVV      0.176000
     36 HAN         3.1450   -0.6270   -2.8900 ha        1 ZVV      0.167000
     37 HAT         5.2440    1.8390   -0.6000 hn        1 ZVV      0.477300
     38 HBD         6.8760   -0.6460   -0.2480 hx        1 ZVV      0.119700
     39 HAB1        6.3320   -0.0580   -2.6320 hc        1 ZVV      0.080700
     40 HAB2        8.0910    0.2080   -2.2660 hc        1 ZVV      0.080700
     41 HAB3        6.9830    1.6330   -2.3970 hc        1 ZVV      0.080700
     42 HAC1        9.2000   -1.1170    0.1280 h1        1 ZVV      0.078033
     43 HAC2       10.4100   -0.5710    1.3910 h1        1 ZVV      0.078033
     44 HAC3        8.7210   -1.0670    1.8980 h1        1 ZVV      0.078033
     45 HAQ1       11.4910    4.1090    1.5140 h1        1 ZVV      0.107700
     46 HAQ2       10.5340    4.2190    3.0460 h1        1 ZVV      0.107700
     47 HAP1       12.6130    4.5260    4.0480 h1        1 ZVV      0.061700
     48 HAP2       12.7680    2.7040    3.8910 h1        1 ZVV      0.061700
     49 HAM        14.4560    3.6380    5.0200 ha        1 ZVV      0.132000
     50 HAA1       16.5510    4.5470   -0.0740 hc        1 ZVV      0.046700
     51 HAA2       15.1820    3.3750    0.1610 hc        1 ZVV      0.046700
     52 HAA3       14.8970    5.1470    0.3840 hc        1 ZVV      0.046700
     53 HAL        18.0920    4.5080    1.7060 ha        1 ZVV      0.141000
     54 HAI        16.8030    3.8580    5.7770 ha        1 ZVV      0.138000
     55 HAH        18.6250    4.2920    4.1280 ha        1 ZVV      0.141000
     56 HAT2        5.3620    1.0190    0.8420 hn        1 ZVV      0.477300
@<TRIPOS>BOND
     1    1    2 1   
     2    2    3 1   
     3    2    4 1   
     4    2    5 1   
     5    5    6 ar  
     6    5   10 ar  
     7    6    7 ar  
     8    6   33 1   
     9    7    8 ar  
    10    7   34 1   
    11    8    9 ar  
    12    8   35 1   
    13    9   10 ar  
    14    9   36 1   
    15   10   11 1   
    16   11   12 2   
    17   11   13 1   
    18   13   14 1   
    19   13   37 1   
    20   13   56 1   
    21   14   15 1   
    22   14   16 1   
    23   14   38 1   
    24   15   39 1   
    25   15   40 1   
    26   15   41 1   
    27   16   17 1   
    28   16   19 2   
    29   17   18 1   
    30   17   21 1   
    31   18   42 1   
    32   18   43 1   
    33   18   44 1   
    34   19   20 1   
    35   20   21 2   
    36   21   22 1   
    37   22   23 1   
    38   23   24 1   
    39   23   45 1   
    40   23   46 1   
    41   24   25 1   
    42   24   47 1   
    43   24   48 1   
    44   25   26 1   
    45   26   27 ar  
    46   26   29 ar  
    47   27   28 1   
    48   27   32 ar  
    49   28   50 1   
    50   28   51 1   
    51   28   52 1   
    52   29   30 ar  
    53   29   49 1   
    54   30   31 ar  
    55   30   54 1   
    56   31   32 ar  
    57   31   55 1   
    58   32   53 1   
@<TRIPOS>SUBSTRUCTURE
     1 ZVV         1 TEMP              0 ****  ****    0 ROOT
