@<TRIPOS>MOLECULE
ZVW
   63    66     1     0     0
SMALL
bcc


@<TRIPOS>ATOM
      1 F7          0.1810    1.0090   -1.1760 f         1 ZVW     -0.132900
      2 C2          1.5210    0.8520   -1.0560 ca        1 ZVW      0.104900
      3 C1          2.3260    1.9540   -0.7000 ca        1 ZVW     -0.131000
      4 C6          3.6980    1.7940   -0.5760 ca        1 ZVW     -0.150500
      5 C3          2.1030   -0.4060   -1.2870 ca        1 ZVW     -0.131000
      6 C4          3.4810   -0.5660   -1.1650 ca        1 ZVW     -0.150500
      7 C5          4.2730    0.5310   -0.8120 ca        1 ZVW      0.097100
      8 O8          5.6520    0.4970   -0.6720 os        1 ZVW     -0.332900
      9 C9          6.2580   -0.7920   -0.8070 c3        1 ZVW      0.135400
     10 C10         7.7320   -0.5950   -0.5220 c3        1 ZVW     -0.030300
     11 S11         8.5180   -0.5320   -2.1120 ss        1 ZVW     -0.169400
     12 C12        10.1370   -0.2810   -1.7570 cc        1 ZVW      0.457800
     13 N13        10.7250   -0.1610   -0.5020 nd        1 ZVW     -0.348000
     14 N14        12.0040    0.0160   -0.6360 nd        1 ZVW     -0.308000
     15 N16        11.1480   -0.1550   -2.7200 na        1 ZVW     -0.273700
     16 C17        10.9980   -0.2460   -4.1520 c3        1 ZVW      0.079600
     17 C18        11.3560    1.0040   -4.8970 ca        1 ZVW     -0.169300
     18 C19        12.3970    0.9810   -5.8310 ca        1 ZVW     -0.092000
     19 C20        12.7040    2.1140   -6.5760 ca        1 ZVW     -0.164500
     20 C21        11.9590    3.2950   -6.3800 ca        1 ZVW      0.156900
     21 F24        12.2550    4.4020   -7.0940 f         1 ZVW     -0.117900
     22 C22        10.9080    3.3210   -5.4430 ca        1 ZVW     -0.164500
     23 C23        10.6120    2.1750   -4.7130 ca        1 ZVW     -0.092000
     24 C15        12.3280    0.0310   -1.9740 cc        1 ZVW      0.216800
     25 C25        13.7060    0.1970   -2.5220 c3        1 ZVW      0.153200
     26 C26        14.5600   -1.0230   -2.2030 c3        1 ZVW     -0.123100
     27 N27        14.2930    1.4600   -1.9170 ny        1 ZVW     -0.681800
     28 C28        15.6010    1.8720   -2.5440 c         1 ZVW      0.568700
     29 O29        15.7550    1.6220   -3.7300 o         1 ZVW     -0.404100
     30 C30        16.5830    2.4990   -1.6370 ca        1 ZVW     -0.159600
     31 C35        16.3110    3.6080   -0.8170 ca        1 ZVW     -0.133300
     32 C36        14.9350    4.2760   -0.7650 c3        1 ZVW      0.674200
     33 F38        14.9220    5.5430   -0.2570 f         1 ZVW     -0.224633
     34 F37        14.3100    4.3790   -1.9880 f         1 ZVW     -0.224633
     35 F39        14.0210    3.5770   -0.0060 f         1 ZVW     -0.224633
     36 C31        17.8760    1.9580   -1.6670 ca        1 ZVW     -0.062000
     37 C32        18.8830    2.5010   -0.8650 ca        1 ZVW     -0.094000
     38 C33        18.6080    3.5900   -0.0440 ca        1 ZVW     -0.068000
     39 C34        17.3250    4.1470   -0.0260 ca        1 ZVW     -0.072000
     40 H1          1.8570    2.9330   -0.5190 ha        1 ZVW      0.157000
     41 H3          1.4650   -1.2590   -1.5620 ha        1 ZVW      0.157000
     42 H6          4.3420    2.6400   -0.2970 ha        1 ZVW      0.147000
     43 H4          3.9220   -1.5560   -1.3470 ha        1 ZVW      0.147000
     44 H91C        6.0840   -1.1830   -1.8480 h1        1 ZVW      0.062200
     45 H92C        5.8080   -1.5020   -0.0610 h1        1 ZVW      0.062200
     46 H101        8.1320   -1.4450    0.0820 h1        1 ZVW      0.108700
     47 H102        7.9020    0.3500    0.0540 h1        1 ZVW      0.108700
     48 H171       11.6350   -1.1060   -4.5130 h1        1 ZVW      0.090700
     49 H172        9.9140   -0.5000   -4.3630 h1        1 ZVW      0.090700
     50 H19        12.9680    0.0540   -6.0040 ha        1 ZVW      0.147500
     51 H23         9.7760    2.1920   -3.9940 ha        1 ZVW      0.147500
     52 H20        13.5120    2.0980   -7.3230 ha        1 ZVW      0.167500
     53 H22        10.3210    4.2430   -5.3080 ha        1 ZVW      0.167500
     54 H25        13.6690    0.3640   -3.6460 hx        1 ZVW      0.127700
     55 H261       14.0730   -1.9170   -2.6680 hc        1 ZVW      0.079700
     56 H262       14.6320   -1.2030   -1.1020 hc        1 ZVW      0.079700
     57 H263       15.5850   -0.9120   -2.6340 hc        1 ZVW      0.079700
     58 H27        14.4240    1.3220   -0.9050 hn        1 ZVW      0.476800
     59 H31        18.1010    1.1080   -2.3330 ha        1 ZVW      0.167000
     60 H34        17.1160    5.0240    0.6130 ha        1 ZVW      0.183000
     61 H32        19.8960    2.0650   -0.8940 ha        1 ZVW      0.176000
     62 H33        19.4010    4.0260    0.5890 ha        1 ZVW      0.177000
     63 H272       13.6110    2.2270   -2.0400 hn        1 ZVW      0.476800
@<TRIPOS>BOND
     1    1    2 1   
     2    2    3 ar  
     3    2    5 ar  
     4    3    4 ar  
     5    3   40 1   
     6    4    7 ar  
     7    4   42 1   
     8    5    6 ar  
     9    5   41 1   
    10    6    7 ar  
    11    6   43 1   
    12    7    8 1   
    13    8    9 1   
    14    9   10 1   
    15    9   44 1   
    16    9   45 1   
    17   10   11 1   
    18   10   46 1   
    19   10   47 1   
    20   11   12 1   
    21   12   13 2   
    22   12   15 1   
    23   13   14 1   
    24   14   24 2   
    25   15   16 1   
    26   15   24 1   
    27   16   17 1   
    28   16   48 1   
    29   16   49 1   
    30   17   18 ar  
    31   17   23 ar  
    32   18   19 ar  
    33   18   50 1   
    34   19   20 ar  
    35   19   52 1   
    36   20   21 1   
    37   20   22 ar  
    38   22   23 ar  
    39   22   53 1   
    40   23   51 1   
    41   24   25 1   
    42   25   26 1   
    43   25   27 1   
    44   25   54 1   
    45   26   55 1   
    46   26   56 1   
    47   26   57 1   
    48   27   28 1   
    49   27   58 1   
    50   27   63 1   
    51   28   29 2   
    52   28   30 1   
    53   30   31 ar  
    54   30   36 ar  
    55   31   32 1   
    56   31   39 ar  
    57   32   33 1   
    58   32   34 1   
    59   32   35 1   
    60   36   37 ar  
    61   36   59 1   
    62   37   38 ar  
    63   37   61 1   
    64   38   39 ar  
    65   38   62 1   
    66   39   60 1   
@<TRIPOS>SUBSTRUCTURE
     1 ZVW         1 TEMP              0 ****  ****    0 ROOT
