@<TRIPOS>MOLECULE
ZVW
   62    65     1     0     0
SMALL
bcc


@<TRIPOS>ATOM
      1 F7        -10.9920   -0.1690   -1.2100 f         1 ZVW     -0.140900
      2 C2         -9.7070    0.1630   -0.9350 ca        1 ZVW      0.091900
      3 C1         -8.9340    0.8310   -1.9050 ca        1 ZVW     -0.131500
      4 C6         -7.6190    1.1710   -1.6260 ca        1 ZVW     -0.155000
      5 C3         -9.1520   -0.1590    0.3140 ca        1 ZVW     -0.131500
      6 C4         -7.8310    0.1820    0.5960 ca        1 ZVW     -0.155000
      7 C5         -7.0680    0.8440   -0.3710 ca        1 ZVW      0.110100
      8 O8         -5.7530    1.2380   -0.2050 os        1 ZVW     -0.324900
      9 C9         -5.1430    0.8730    1.0400 c3        1 ZVW      0.138400
     10 C10        -3.7150    1.3710    0.9660 c3        1 ZVW     -0.031300
     11 S11        -2.6910   -0.0760    1.0000 ss        1 ZVW     -0.225400
     12 C12        -1.1380    0.5540    1.1870 cc        1 ZVW      0.420800
     13 N13        -0.7380    1.8670    1.0820 nd        1 ZVW     -0.359000
     14 N14         0.5480    1.9530    1.3210 nd        1 ZVW     -0.342000
     15 N16        -0.0080   -0.2190    1.5150 na        1 ZVW     -0.294700
     16 C17         0.0320   -1.6480    1.6700 c3        1 ZVW      0.088600
     17 C18         0.0690   -2.4240    0.3860 ca        1 ZVW     -0.149300
     18 C19         1.2920   -2.7850   -0.1870 ca        1 ZVW     -0.079000
     19 C20         1.3260   -3.5470   -1.3510 ca        1 ZVW     -0.169000
     20 C21         0.1180   -3.9460   -1.9540 ca        1 ZVW      0.138900
     21 F24         0.1420   -4.6900   -3.0850 f         1 ZVW     -0.137900
     22 C22        -1.1160   -3.5720   -1.3880 ca        1 ZVW     -0.169000
     23 C23        -1.1290   -2.8120   -0.2240 ca        1 ZVW     -0.079000
     24 C15         1.0500    0.7060    1.5840 cc        1 ZVW      0.329800
     25 C25         2.4880    0.3840    1.9320 c3        1 ZVW      0.096400
     26 C26         2.7300    0.8300    3.3770 c3        1 ZVW     -0.105100
     27 N27         3.4030    1.0010    1.0010 n         1 ZVW     -0.550900
     28 C28         4.0630    0.2730    0.0350 c         1 ZVW      0.676700
     29 O29         3.9850   -0.9720   -0.0210 o         1 ZVW     -0.608100
     30 C30         4.8750    1.0390   -0.9630 ca        1 ZVW     -0.087600
     31 C35         5.8990    1.9310   -0.6260 ca        1 ZVW     -0.139300
     32 C36         6.2870    2.2280    0.8220 c3        1 ZVW      0.685200
     33 F38         7.5220    2.8140    0.9710 f         1 ZVW     -0.233300
     34 F37         5.4350    3.0990    1.4620 f         1 ZVW     -0.233300
     35 F39         6.3460    1.1350    1.6500 f         1 ZVW     -0.233300
     36 C31         4.5800    0.8030   -2.3120 ca        1 ZVW     -0.091000
     37 C32         5.2880    1.4630   -3.3150 ca        1 ZVW     -0.104000
     38 C33         6.3020    2.3570   -2.9760 ca        1 ZVW     -0.116000
     39 C34         6.6100    2.5870   -1.6370 ca        1 ZVW     -0.092000
     40 H1         -9.3810    1.0790   -2.8800 ha        1 ZVW      0.151500
     41 H3         -9.7640   -0.6800    1.0650 ha        1 ZVW      0.151500
     42 H6         -6.9980    1.6920   -2.3690 ha        1 ZVW      0.149000
     43 H4         -7.4100   -0.0740    1.5780 ha        1 ZVW      0.149000
     44 H91C       -5.6970    1.3680    1.8820 h1        1 ZVW      0.053200
     45 H92C       -5.1910   -0.2440    1.1670 h1        1 ZVW      0.053200
     46 H101       -3.5440    1.9550    0.0260 h1        1 ZVW      0.103700
     47 H102       -3.4860    2.0440    1.8270 h1        1 ZVW      0.103700
     48 H171        0.9410   -1.9050    2.2890 h1        1 ZVW      0.076200
     49 H172       -0.8900   -1.9490    2.2550 h1        1 ZVW      0.076200
     50 H19         2.2430   -2.4570    0.2700 ha        1 ZVW      0.155500
     51 H23        -2.0930   -2.5020    0.2130 ha        1 ZVW      0.155500
     52 H20         2.2860   -3.8350   -1.8040 ha        1 ZVW      0.154500
     53 H22        -2.0540   -3.8800   -1.8720 ha        1 ZVW      0.154500
     54 H25         2.6430   -0.7390    1.8680 h1        1 ZVW      0.088700
     55 H261        2.5910    1.9320    3.4890 hc        1 ZVW      0.055033
     56 H262        2.0010    0.3080    4.0420 hc        1 ZVW      0.055033
     57 H263        3.7670    0.5630    3.6940 hc        1 ZVW      0.055033
     58 H27         3.4230    1.9960    0.9750 hn        1 ZVW      0.337500
     59 H31         3.7870    0.0820   -2.5700 ha        1 ZVW      0.160000
     60 H34         7.4190    3.2870   -1.3700 ha        1 ZVW      0.158000
     61 H32         5.0460    1.2730   -4.3720 ha        1 ZVW      0.148000
     62 H33         6.8650    2.8820   -3.7640 ha        1 ZVW      0.147000
@<TRIPOS>BOND
     1    1    2 1   
     2    2    3 ar  
     3    2    5 ar  
     4    3    4 ar  
     5    3   40 1   
     6    4    7 ar  
     7    4   42 1   
     8    5    6 ar  
     9    5   41 1   
    10    6    7 ar  
    11    6   43 1   
    12    7    8 1   
    13    8    9 1   
    14    9   10 1   
    15    9   44 1   
    16    9   45 1   
    17   10   11 1   
    18   10   46 1   
    19   10   47 1   
    20   11   12 1   
    21   12   13 2   
    22   12   15 1   
    23   13   14 1   
    24   14   24 2   
    25   15   16 1   
    26   15   24 1   
    27   16   17 1   
    28   16   48 1   
    29   16   49 1   
    30   17   18 ar  
    31   17   23 ar  
    32   18   19 ar  
    33   18   50 1   
    34   19   20 ar  
    35   19   52 1   
    36   20   21 1   
    37   20   22 ar  
    38   22   23 ar  
    39   22   53 1   
    40   23   51 1   
    41   24   25 1   
    42   25   26 1   
    43   25   27 1   
    44   25   54 1   
    45   26   55 1   
    46   26   56 1   
    47   26   57 1   
    48   27   28 1   
    49   27   58 1   
    50   28   29 2   
    51   28   30 1   
    52   30   31 ar  
    53   30   36 ar  
    54   31   32 1   
    55   31   39 ar  
    56   32   33 1   
    57   32   34 1   
    58   32   35 1   
    59   36   37 ar  
    60   36   59 1   
    61   37   38 ar  
    62   37   61 1   
    63   38   39 ar  
    64   38   62 1   
    65   39   60 1   
@<TRIPOS>SUBSTRUCTURE
     1 ZVW         1 TEMP              0 ****  ****    0 ROOT
