@<TRIPOS>MOLECULE
ZVW
   63    66     1     0     0
SMALL
bcc


@<TRIPOS>ATOM
      1 F7          0.1760    0.9990   -1.2520 f         1 ZVW     -0.132900
      2 C2          1.5150    0.8530   -1.1130 ca        1 ZVW      0.104900
      3 C1          2.3110    1.9720   -0.7970 ca        1 ZVW     -0.131000
      4 C6          3.6830    1.8250   -0.6540 ca        1 ZVW     -0.150500
      5 C3          2.1040   -0.4110   -1.2830 ca        1 ZVW     -0.131000
      6 C4          3.4820   -0.5600   -1.1400 ca        1 ZVW     -0.150500
      7 C5          4.2650    0.5550   -0.8280 ca        1 ZVW      0.097100
      8 O8          5.6430    0.5330   -0.6740 os        1 ZVW     -0.332900
      9 C9          6.2560   -0.7570   -0.7530 c3        1 ZVW      0.135400
     10 C10         7.7280   -0.5410   -0.4670 c3        1 ZVW     -0.030300
     11 S11         8.5230   -0.5350   -2.0550 ss        1 ZVW     -0.169400
     12 C12        10.1390   -0.2630   -1.7000 cc        1 ZVW      0.457800
     13 N13        10.7180   -0.0930   -0.4460 nd        1 ZVW     -0.348000
     14 N14        11.9980    0.0850   -0.5790 nd        1 ZVW     -0.308000
     15 N16        11.1550   -0.1700   -2.6610 na        1 ZVW     -0.273700
     16 C17        11.0140   -0.3140   -4.0880 c3        1 ZVW      0.079600
     17 C18        11.3720    0.9080   -4.8780 ca        1 ZVW     -0.169300
     18 C19        12.4190    0.8540   -5.8050 ca        1 ZVW     -0.092000
     19 C20        12.7250    1.9600   -6.5890 ca        1 ZVW     -0.164500
     20 C21        11.9740    3.1440   -6.4430 ca        1 ZVW      0.156900
     21 F24        12.2700    4.2250   -7.1960 f         1 ZVW     -0.117900
     22 C22        10.9170    3.2010   -5.5140 ca        1 ZVW     -0.164500
     23 C23        10.6220    2.0820   -4.7430 ca        1 ZVW     -0.092000
     24 C15        12.3300    0.0500   -1.9150 cc        1 ZVW      0.216800
     25 C25        13.7100    0.2010   -2.4600 c3        1 ZVW      0.153200
     26 C26        14.5670   -1.0020   -2.0910 c3        1 ZVW     -0.123100
     27 N27        14.2880    1.4890   -1.9010 n4        1 ZVW     -0.681800
     28 C28        15.5990    1.8820   -2.5340 c         1 ZVW      0.568700
     29 O29        15.7610    1.5890   -3.7090 o         1 ZVW     -0.404100
     30 C30        16.5730    2.5460   -1.6450 ca        1 ZVW     -0.159600
     31 C35        16.2920    3.6840   -0.8690 ca        1 ZVW     -0.133300
     32 C36        14.9140    4.3480   -0.8490 c3        1 ZVW      0.674200
     33 F38        14.8930    5.6330   -0.3890 f         1 ZVW     -0.224633
     34 F37        14.2950    4.4020   -2.0790 f         1 ZVW     -0.224633
     35 F39        13.9980    3.6740   -0.0710 f         1 ZVW     -0.224633
     36 C31        17.8680    2.0100   -1.6480 ca        1 ZVW     -0.062000
     37 C32        18.8690    2.5850   -0.8610 ca        1 ZVW     -0.094000
     38 C33        18.5850    3.7040   -0.0830 ca        1 ZVW     -0.068000
     39 C34        17.2990    4.2560   -0.0920 ca        1 ZVW     -0.072000
     40 H1          1.8370    2.9560   -0.6640 ha        1 ZVW      0.157000
     41 H3          1.4720   -1.2790   -1.5270 ha        1 ZVW      0.157000
     42 H6          4.3210    2.6850   -0.4050 ha        1 ZVW      0.147000
     43 H4          3.9280   -1.5550   -1.2750 ha        1 ZVW      0.147000
     44 H91C        5.8060   -1.4390    0.0170 h1        1 ZVW      0.062200
     45 H92C        6.0910   -1.1900   -1.7790 h1        1 ZVW      0.062200
     46 H101        7.8890    0.4260    0.0720 h1        1 ZVW      0.108700
     47 H102        8.1290   -1.3650    0.1710 h1        1 ZVW      0.108700
     48 H171        9.9330   -0.5810   -4.2970 h1        1 ZVW      0.090700
     49 H172       11.6580   -1.1850   -4.4130 h1        1 ZVW      0.090700
     50 H19        12.9950   -0.0750   -5.9380 ha        1 ZVW      0.147500
     51 H23         9.7810    2.1210   -4.0310 ha        1 ZVW      0.147500
     52 H20        13.5380    1.9190   -7.3310 ha        1 ZVW      0.167500
     53 H22        10.3250    4.1250   -5.4170 ha        1 ZVW      0.167500
     54 H25        13.6800    0.3260   -3.5900 hx        1 ZVW      0.127700
     55 H261       14.6330   -1.1410   -0.9840 hc        1 ZVW      0.079700
     56 H262       15.5940   -0.9030   -2.5200 hc        1 ZVW      0.079700
     57 H263       14.0870   -1.9150   -2.5250 hc        1 ZVW      0.079700
     58 H27        13.6050    2.2470   -2.0560 hn        1 ZVW      0.476800
     59 H31        18.1000    1.1370   -2.2810 ha        1 ZVW      0.167000
     60 H34        17.0840    5.1550    0.5130 ha        1 ZVW      0.183000
     61 H32        19.8840    2.1530   -0.8680 ha        1 ZVW      0.176000
     62 H33        19.3720    4.1660    0.5380 ha        1 ZVW      0.177000
     63 H272       14.4140    1.3890   -0.8830 hn        1 ZVW      0.476800
@<TRIPOS>BOND
     1    1    2 1   
     2    2    3 ar  
     3    2    5 ar  
     4    3    4 ar  
     5    3   40 1   
     6    4    7 ar  
     7    4   42 1   
     8    5    6 ar  
     9    5   41 1   
    10    6    7 ar  
    11    6   43 1   
    12    7    8 1   
    13    8    9 1   
    14    9   10 1   
    15    9   44 1   
    16    9   45 1   
    17   10   11 1   
    18   10   46 1   
    19   10   47 1   
    20   11   12 1   
    21   12   13 2   
    22   12   15 1   
    23   13   14 1   
    24   14   24 2   
    25   15   16 1   
    26   15   24 1   
    27   16   17 1   
    28   16   48 1   
    29   16   49 1   
    30   17   18 ar  
    31   17   23 ar  
    32   18   19 ar  
    33   18   50 1   
    34   19   20 ar  
    35   19   52 1   
    36   20   21 1   
    37   20   22 ar  
    38   22   23 ar  
    39   22   53 1   
    40   23   51 1   
    41   24   25 1   
    42   25   26 1   
    43   25   27 1   
    44   25   54 1   
    45   26   55 1   
    46   26   56 1   
    47   26   57 1   
    48   27   28 1   
    49   27   58 1   
    50   27   63 1   
    51   28   29 2   
    52   28   30 1   
    53   30   31 ar  
    54   30   36 ar  
    55   31   32 1   
    56   31   39 ar  
    57   32   33 1   
    58   32   34 1   
    59   32   35 1   
    60   36   37 ar  
    61   36   59 1   
    62   37   38 ar  
    63   37   61 1   
    64   38   39 ar  
    65   38   62 1   
    66   39   60 1   
@<TRIPOS>SUBSTRUCTURE
     1 ZVW         1 TEMP              0 ****  ****    0 ROOT
