@<TRIPOS>MOLECULE
ZVX
   50    52     1     0     0
SMALL
bcc


@<TRIPOS>ATOM
      1 F9          0.0930    0.5960   -0.8010 f         1 ZVX     -0.132900
      2 C6          1.4370    0.4570   -0.7110 ca        1 ZVX      0.104900
      3 C7          2.2260    1.5440   -0.2830 ca        1 ZVX     -0.131000
      4 C8          3.6030    1.4030   -0.1910 ca        1 ZVX     -0.150500
      5 C5          2.0390   -0.7680   -1.0430 ca        1 ZVX     -0.131000
      6 C4          3.4210   -0.9100   -0.9510 ca        1 ZVX     -0.150500
      7 C3          4.1970    0.1730   -0.5270 ca        1 ZVX      0.097100
      8 O2          5.5780    0.1540   -0.4010 os        1 ZVX     -0.331900
      9 C1          6.2130   -1.0910   -0.7070 c3        1 ZVX      0.135400
     10 C10         7.6930   -0.8790   -0.4620 c3        1 ZVX     -0.032300
     11 S11         8.4070   -0.6230   -2.0660 ss        1 ZVX     -0.159400
     12 C12        10.0280   -0.3430   -1.7490 cc        1 ZVX      0.458800
     13 N13        10.6840   -0.4110   -0.5240 nd        1 ZVX     -0.347000
     14 N14        11.9430   -0.1350   -0.6900 nd        1 ZVX     -0.318000
     15 N16        10.9690    0.0240   -2.7220 na        1 ZVX     -0.272700
     16 C17        10.7490    0.1530   -4.1270 c3        1 ZVX      0.006600
     17 C15        12.1840    0.1370   -2.0180 cc        1 ZVX      0.213800
     18 C18        13.5170    0.4650   -2.6050 c3        1 ZVX      0.154200
     19 C19        14.3390   -0.8020   -2.8070 c3        1 ZVX     -0.125100
     20 N20        14.2140    1.4330   -1.6700 ny        1 ZVX     -0.674800
     21 C21        15.3930    2.1470   -2.2930 c         1 ZVX      0.580700
     22 O28        15.4210    2.2080   -3.5140 o         1 ZVX     -0.405100
     23 C22        16.3790    2.6760   -1.3490 ca        1 ZVX     -0.296600
     24 C27        16.0280    3.3300   -0.1400 ca        1 ZVX      0.212900
     25 F30        14.7240    3.4390    0.2110 f         1 ZVX     -0.113900
     26 C23        17.7550    2.5960   -1.6930 ca        1 ZVX      0.212900
     27 F29        18.1240    1.9760   -2.8300 f         1 ZVX     -0.113900
     28 C24        18.7360    3.1460   -0.8470 ca        1 ZVX     -0.167500
     29 C25        18.3570    3.7830    0.3290 ca        1 ZVX     -0.012000
     30 C26        17.0120    3.8810    0.6910 ca        1 ZVX     -0.167500
     31 H7          1.7420    2.4970   -0.0230 ha        1 ZVX      0.157000
     32 H5          1.4130   -1.6110   -1.3740 ha        1 ZVX      0.157000
     33 H8          4.2350    2.2380    0.1430 ha        1 ZVX      0.147500
     34 H4          3.8770   -1.8750   -1.2120 ha        1 ZVX      0.147500
     35 H11C        5.8160   -1.8940   -0.0290 h1        1 ZVX      0.062200
     36 H12C        6.0040   -1.3690   -1.7780 h1        1 ZVX      0.062200
     37 H101        8.1400   -1.7760    0.0300 h1        1 ZVX      0.107700
     38 H102        7.8610    0.0030    0.2050 h1        1 ZVX      0.107700
     39 H171        9.6470    0.2760   -4.3200 h1        1 ZVX      0.078033
     40 H172       11.1170   -0.7650   -4.6640 h1        1 ZVX      0.078033
     41 H173       11.2940    1.0540   -4.5160 h1        1 ZVX      0.078033
     42 H18        13.3930    1.0000   -3.5980 hx        1 ZVX      0.120700
     43 H191       14.4950   -1.3520   -1.8470 hc        1 ZVX      0.082367
     44 H192       13.7750   -1.4730   -3.5030 hc        1 ZVX      0.082367
     45 H193       15.3280   -0.5630   -3.2700 hc        1 ZVX      0.082367
     46 H20        13.5360    2.1420   -1.3520 hn        1 ZVX      0.474300
     47 H26        16.7130    4.3930    1.6210 ha        1 ZVX      0.189000
     48 H24        19.7980    3.0690   -1.1350 ha        1 ZVX      0.189000
     49 H25        19.1290    4.2210    0.9880 ha        1 ZVX      0.181000
     50 H202       14.5350    0.9200   -0.8380 hn        1 ZVX      0.474300
@<TRIPOS>BOND
     1    1    2 1   
     2    2    3 ar  
     3    2    5 ar  
     4    3    4 ar  
     5    3   31 1   
     6    4    7 ar  
     7    4   33 1   
     8    5    6 ar  
     9    5   32 1   
    10    6    7 ar  
    11    6   34 1   
    12    7    8 1   
    13    8    9 1   
    14    9   10 1   
    15    9   35 1   
    16    9   36 1   
    17   10   11 1   
    18   10   37 1   
    19   10   38 1   
    20   11   12 1   
    21   12   13 2   
    22   12   15 1   
    23   13   14 1   
    24   14   17 2   
    25   15   16 1   
    26   15   17 1   
    27   16   39 1   
    28   16   40 1   
    29   16   41 1   
    30   17   18 1   
    31   18   19 1   
    32   18   20 1   
    33   18   42 1   
    34   19   43 1   
    35   19   44 1   
    36   19   45 1   
    37   20   21 1   
    38   20   46 1   
    39   20   50 1   
    40   21   22 2   
    41   21   23 1   
    42   23   24 ar  
    43   23   26 ar  
    44   24   25 1   
    45   24   30 ar  
    46   26   27 1   
    47   26   28 ar  
    48   28   29 ar  
    49   28   48 1   
    50   29   30 ar  
    51   29   49 1   
    52   30   47 1   
@<TRIPOS>SUBSTRUCTURE
     1 ZVX         1 TEMP              0 ****  ****    0 ROOT
