@<TRIPOS>MOLECULE
ZVX
   49    51     1     0     0
SMALL
bcc


@<TRIPOS>ATOM
      1 F9         -9.6550    1.9950   -1.5310 f         1 ZVX     -0.141900
      2 C6         -8.4590    1.6050   -1.0270 ca        1 ZVX      0.090900
      3 C7         -7.5530    2.5730   -0.5450 ca        1 ZVX     -0.131500
      4 C8         -6.3290    2.1760   -0.0300 ca        1 ZVX     -0.155500
      5 C5         -8.1260    0.2410   -0.9860 ca        1 ZVX     -0.131500
      6 C4         -6.8970   -0.1580   -0.4670 ca        1 ZVX     -0.155500
      7 C3         -6.0020    0.8060    0.0090 ca        1 ZVX      0.111100
      8 O2         -4.7600    0.5310    0.5480 os        1 ZVX     -0.325900
      9 C1         -4.3750   -0.8500    0.5630 c3        1 ZVX      0.139400
     10 C10        -2.9830   -0.8880    1.1590 c3        1 ZVX     -0.030300
     11 S11        -1.9320   -1.5340   -0.1140 ss        1 ZVX     -0.220400
     12 C12        -0.4310   -1.6490    0.6470 cc        1 ZVX      0.414800
     13 N13        -0.1380   -1.4840    1.9840 nd        1 ZVX     -0.366000
     14 N14         1.1460   -1.6590    2.1750 nd        1 ZVX     -0.337000
     15 N16         0.7660   -1.9410   -0.0250 na        1 ZVX     -0.284700
     16 C17         0.9260   -2.1890   -1.4210 c3        1 ZVX     -0.000400
     17 C15         1.7500   -1.9550    0.9810 cc        1 ZVX      0.319800
     18 C18         3.2210   -2.2160    0.7470 c3        1 ZVX      0.097400
     19 C19         3.7390   -3.1420    1.8500 c3        1 ZVX     -0.099100
     20 N20         3.9620   -0.9780    0.6700 n         1 ZVX     -0.555900
     21 C21         4.2750   -0.3820   -0.5320 c         1 ZVX      0.689700
     22 O28         3.9890   -0.9190   -1.6220 o         1 ZVX     -0.605100
     23 C22         4.9760    0.9340   -0.4760 ca        1 ZVX     -0.219600
     24 C27         4.5180    1.9940   -1.2900 ca        1 ZVX      0.191900
     25 F30         3.4270    1.8310   -2.0700 f         1 ZVX     -0.120900
     26 C23         6.1100    1.1530    0.3340 ca        1 ZVX      0.191900
     27 F29         6.5840    0.1680    1.1320 f         1 ZVX     -0.120900
     28 C24         6.7730    2.3940    0.3230 ca        1 ZVX     -0.189000
     29 C25         6.3010    3.4200   -0.4890 ca        1 ZVX     -0.060000
     30 C26         5.1820    3.2360   -1.2920 ca        1 ZVX     -0.189000
     31 H7         -7.8260    3.6380   -0.5830 ha        1 ZVX      0.151000
     32 H5         -8.8390   -0.5060   -1.3630 ha        1 ZVX      0.151000
     33 H8         -5.6090    2.9140    0.3510 ha        1 ZVX      0.149000
     34 H4         -6.6500   -1.2290   -0.4400 ha        1 ZVX      0.149000
     35 H11C       -5.0990   -1.4290    1.1960 h1        1 ZVX      0.054200
     36 H12C       -4.3910   -1.2540   -0.4880 h1        1 ZVX      0.054200
     37 H101       -2.6540    0.1350    1.4710 h1        1 ZVX      0.102700
     38 H102       -2.9590   -1.5390    2.0650 h1        1 ZVX      0.102700
     39 H171        1.9210   -1.7900   -1.7660 h1        1 ZVX      0.075367
     40 H172        0.8780   -3.2930   -1.6250 h1        1 ZVX      0.075367
     41 H173        0.1020   -1.6750   -1.9860 h1        1 ZVX      0.075367
     42 H18         3.3360   -2.7480   -0.2500 h1        1 ZVX      0.089700
     43 H191        3.6930   -2.6520    2.8520 hc        1 ZVX      0.055033
     44 H192        3.1040   -4.0600    1.8750 hc        1 ZVX      0.055033
     45 H193        4.7940   -3.4360    1.6380 hc        1 ZVX      0.055033
     46 H20         4.1530   -0.5050    1.5220 hn        1 ZVX      0.328500
     47 H26         4.8060    4.0460   -1.9350 ha        1 ZVX      0.160500
     48 H24         7.6590    2.5380    0.9590 ha        1 ZVX      0.160500
     49 H25         6.8220    4.3910   -0.4960 ha        1 ZVX      0.149000
@<TRIPOS>BOND
     1    1    2 1   
     2    2    3 ar  
     3    2    5 ar  
     4    3    4 ar  
     5    3   31 1   
     6    4    7 ar  
     7    4   33 1   
     8    5    6 ar  
     9    5   32 1   
    10    6    7 ar  
    11    6   34 1   
    12    7    8 1   
    13    8    9 1   
    14    9   10 1   
    15    9   35 1   
    16    9   36 1   
    17   10   11 1   
    18   10   37 1   
    19   10   38 1   
    20   11   12 1   
    21   12   13 2   
    22   12   15 1   
    23   13   14 1   
    24   14   17 2   
    25   15   16 1   
    26   15   17 1   
    27   16   39 1   
    28   16   40 1   
    29   16   41 1   
    30   17   18 1   
    31   18   19 1   
    32   18   20 1   
    33   18   42 1   
    34   19   43 1   
    35   19   44 1   
    36   19   45 1   
    37   20   21 1   
    38   20   46 1   
    39   21   22 2   
    40   21   23 1   
    41   23   24 ar  
    42   23   26 ar  
    43   24   25 1   
    44   24   30 ar  
    45   26   27 1   
    46   26   28 ar  
    47   28   29 ar  
    48   28   48 1   
    49   29   30 ar  
    50   29   49 1   
    51   30   47 1   
@<TRIPOS>SUBSTRUCTURE
     1 ZVX         1 TEMP              0 ****  ****    0 ROOT
