@<TRIPOS>MOLECULE
ZVX
   50    52     1     0     0
SMALL
bcc


@<TRIPOS>ATOM
      1 F9          0.0960    0.5950   -0.7480 f         1 ZVX     -0.132900
      2 C6          1.4410    0.4540   -0.6660 ca        1 ZVX      0.104900
      3 C7          2.2330    1.5360   -0.2300 ca        1 ZVX     -0.131000
      4 C8          3.6100    1.3920   -0.1460 ca        1 ZVX     -0.150500
      5 C5          2.0400   -0.7680   -1.0140 ca        1 ZVX     -0.131000
      6 C4          3.4230   -0.9120   -0.9310 ca        1 ZVX     -0.150500
      7 C3          4.2020    0.1650   -0.4990 ca        1 ZVX      0.097100
      8 O2          5.5830    0.1430   -0.3800 os        1 ZVX     -0.331900
      9 C1          6.2150   -1.0980   -0.7040 c3        1 ZVX      0.135400
     10 C10         7.6970   -0.8900   -0.4640 c3        1 ZVX     -0.032300
     11 S11         8.4020   -0.6150   -2.0690 ss        1 ZVX     -0.159400
     12 C12        10.0250   -0.3400   -1.7570 cc        1 ZVX      0.458800
     13 N13        10.6880   -0.4220   -0.5380 nd        1 ZVX     -0.347000
     14 N14        11.9450   -0.1450   -0.7070 nd        1 ZVX     -0.318000
     15 N16        10.9610    0.0390   -2.7320 na        1 ZVX     -0.272700
     16 C17        10.7330    0.1840   -4.1340 c3        1 ZVX      0.006600
     17 C15        12.1790    0.1420   -2.0330 cc        1 ZVX      0.213800
     18 C18        13.5090    0.4770   -2.6240 c3        1 ZVX      0.154200
     19 C19        14.3300   -0.7870   -2.8460 c3        1 ZVX     -0.125100
     20 N20        14.2120    1.4340   -1.6820 n4        1 ZVX     -0.674800
     21 C21        15.3870    2.1550   -2.3030 c         1 ZVX      0.580700
     22 O28        15.4080    2.2320   -3.5230 o         1 ZVX     -0.405100
     23 C22        16.3810    2.6700   -1.3580 ca        1 ZVX     -0.296600
     24 C27        16.0380    3.3090   -0.1390 ca        1 ZVX      0.212900
     25 F30        14.7370    3.4140    0.2220 f         1 ZVX     -0.113900
     26 C23        17.7540    2.5940   -1.7130 ca        1 ZVX      0.212900
     27 F29        18.1150    1.9880   -2.8600 f         1 ZVX     -0.113900
     28 C24        18.7410    3.1320   -0.8660 ca        1 ZVX     -0.167500
     29 C25        18.3710    3.7530    0.3210 ca        1 ZVX     -0.012000
     30 C26        17.0290    3.8480    0.6930 ca        1 ZVX     -0.167500
     31 H7          1.7510    2.4860    0.0430 ha        1 ZVX      0.157000
     32 H5          1.4120   -1.6070   -1.3510 ha        1 ZVX      0.157000
     33 H8          4.2450    2.2240    0.1940 ha        1 ZVX      0.147500
     34 H4          3.8760   -1.8750   -1.2040 ha        1 ZVX      0.147500
     35 H11C        6.0000   -1.3630   -1.7760 h1        1 ZVX      0.062200
     36 H12C        5.8220   -1.9080   -0.0330 h1        1 ZVX      0.062200
     37 H101        7.8690   -0.0160    0.2120 h1        1 ZVX      0.107700
     38 H102        8.1460   -1.7930    0.0140 h1        1 ZVX      0.107700
     39 H171       11.2760    1.0900   -4.5150 h1        1 ZVX      0.078033
     40 H172        9.6300    0.3090   -4.3190 h1        1 ZVX      0.078033
     41 H173       11.0980   -0.7270   -4.6830 h1        1 ZVX      0.078033
     42 H18        13.3800    1.0240   -3.6090 hx        1 ZVX      0.120700
     43 H191       14.4910   -1.3490   -1.8930 hc        1 ZVX      0.082367
     44 H192       15.3160   -0.5440   -3.3110 hc        1 ZVX      0.082367
     45 H193       13.7610   -1.4500   -3.5460 hc        1 ZVX      0.082367
     46 H20        13.5360    2.1390   -1.3510 hn        1 ZVX      0.474300
     47 H26        16.7370    4.3470    1.6320 ha        1 ZVX      0.189000
     48 H24        19.8020    3.0580   -1.1630 ha        1 ZVX      0.189000
     49 H25        19.1480    4.1810    0.9800 ha        1 ZVX      0.181000
     50 H202       14.5370    0.9110   -0.8580 hn        1 ZVX      0.474300
@<TRIPOS>BOND
     1    1    2 1   
     2    2    3 ar  
     3    2    5 ar  
     4    3    4 ar  
     5    3   31 1   
     6    4    7 ar  
     7    4   33 1   
     8    5    6 ar  
     9    5   32 1   
    10    6    7 ar  
    11    6   34 1   
    12    7    8 1   
    13    8    9 1   
    14    9   10 1   
    15    9   35 1   
    16    9   36 1   
    17   10   11 1   
    18   10   37 1   
    19   10   38 1   
    20   11   12 1   
    21   12   13 2   
    22   12   15 1   
    23   13   14 1   
    24   14   17 2   
    25   15   16 1   
    26   15   17 1   
    27   16   39 1   
    28   16   40 1   
    29   16   41 1   
    30   17   18 1   
    31   18   19 1   
    32   18   20 1   
    33   18   42 1   
    34   19   43 1   
    35   19   44 1   
    36   19   45 1   
    37   20   21 1   
    38   20   46 1   
    39   20   50 1   
    40   21   22 2   
    41   21   23 1   
    42   23   24 ar  
    43   23   26 ar  
    44   24   25 1   
    45   24   30 ar  
    46   26   27 1   
    47   26   28 ar  
    48   28   29 ar  
    49   28   48 1   
    50   29   30 ar  
    51   29   49 1   
    52   30   47 1   
@<TRIPOS>SUBSTRUCTURE
     1 ZVX         1 TEMP              0 ****  ****    0 ROOT
