@<TRIPOS>MOLECULE
ZVX
   49    45     1     0     0
SMALL
bcc


@<TRIPOS>ATOM
      1 F9         -9.5740   -3.8940    1.9120 f         1 ZVX     -0.107000
      2 C6         -8.3490   -3.3570    1.8670 c2        1 ZVX      0.056000
      3 C7         -7.2360   -4.1770    1.7290 c2        1 ZVX     -0.130000
      4 C8         -5.9450   -3.6240    1.7710 c1        1 ZVX     -0.181000
      5 C5         -8.1860   -1.9780    2.0470 c1        1 ZVX     -0.133000
      6 C4         -6.8970   -1.4210    2.0890 c1        1 ZVX     -0.130000
      7 C3         -5.7820   -2.2370    1.9520 c1        1 ZVX      0.066000
      8 O2         -4.5070   -1.6950    2.0580 os        1 ZVX     -0.209000
      9 C1         -3.8950   -1.4140    0.7960 c3        1 ZVX     -0.011000
     10 C10        -2.4700   -0.9470    1.0130 c3        1 ZVX     -0.291000
     11 S11        -1.6520   -0.7550   -0.5680 ss        1 ZVX      0.289000
     12 C12         0.1550   -0.6750   -0.2980 c2        1 ZVX     -0.264000
     13 N13         0.7730   -0.6000    0.9030 n2        1 ZVX     -0.103000
     14 N14         2.1030   -0.5480    0.6870 n2        1 ZVX     -0.074000
     15 N16         1.0900   -0.6690   -1.2400 n2        1 ZVX     -0.127000
     16 C17         0.8670   -0.7990   -2.6600 c2        1 ZVX     -0.099000
     17 C15         2.3090   -0.5900   -0.6250 c1        1 ZVX     -0.126000
     18 C18         3.6550   -0.4180   -1.3250 c2        1 ZVX      0.115000
     19 C19         4.4240   -1.7060   -1.2610 c3        1 ZVX     -0.217000
     20 N20         4.4100    0.6350   -0.6720 n         1 ZVX     -0.365000
     21 C21         4.8330    1.8160   -1.4370 c2        1 ZVX      0.363000
     22 O28         5.4310    1.6760   -2.4650 o         1 ZVX     -0.366000
     23 C22         4.7310    3.1860   -0.8130 c2        1 ZVX     -0.199000
     24 C27         3.4970    3.7870   -0.6530 c2        1 ZVX      0.170000
     25 F30         2.3520    3.1280   -1.0460 f         1 ZVX     -0.078000
     26 C23         5.8960    3.8780   -0.4580 c1        1 ZVX      0.144000
     27 F29         7.0880    3.3810   -0.7940 f         1 ZVX     -0.094000
     28 C24         5.8090    5.1800    0.0600 c2        1 ZVX     -0.188000
     29 C25         4.5770    5.7810    0.2200 c1        1 ZVX     -0.060000
     30 C26         3.4140    5.0950   -0.1330 c1        1 ZVX     -0.190000
     31 H7         -7.3540   -5.1660    1.6000 ha        1 ZVX      0.150000
     32 H5         -8.9840   -1.3920    2.1450 ha        1 ZVX      0.152000
     33 H8         -5.1410   -4.2160    1.6720 ha        1 ZVX      0.142000
     34 H4         -6.7850   -0.4460    2.2150 ha        1 ZVX      0.156000
     35 H11C       -4.4130   -0.6960    0.3280 h1        1 ZVX      0.093500
     36 H12C       -3.8920   -2.2400    0.2380 h1        1 ZVX      0.093500
     37 H101       -1.9850   -1.6140    1.5520 h1        1 ZVX      0.142000
     38 H102       -2.4750   -0.1170    1.4670 h1        1 ZVX      0.142000
     39 H171       -0.0880   -0.7980   -2.8410 ha        1 ZVX      0.114667
     40 H172        1.2990   -0.0280   -3.1370 ha        1 ZVX      0.114667
     41 H173        1.2570   -1.6380   -2.9750 ha        1 ZVX      0.114667
     42 H18         3.5030   -0.1760   -2.2690 h4        1 ZVX      0.129000
     43 H191        5.1740   -1.6870   -1.9480 hc        1 ZVX      0.094333
     44 H192        4.8130   -1.8170   -0.3460 hc        1 ZVX      0.094333
     45 H193        3.8270   -2.4500   -1.4540 hc        1 ZVX      0.094333
     46 H20         4.6240    0.5630    0.2250 hn        1 ZVX      0.242000
     47 H26         2.5780    5.5040   -0.0240 ha        1 ZVX      0.161000
     48 H24         6.6010    5.6500    0.3010 ha        1 ZVX      0.160000
     49 H25         4.5160    6.7220    0.5950 ha        1 ZVX      0.149000
@<TRIPOS>BOND
     1    1    2 1   
     2    2    3 1   
     3    2    5 1   
     4    3    4 1   
     5    3   31 1   
     6    4   33 1   
     7    5   32 1   
     8    6    7 1   
     9    6   34 1   
    10    7    8 1   
    11    8    9 1   
    12    9   10 1   
    13    9   35 1   
    14    9   36 1   
    15   10   11 1   
    16   10   37 1   
    17   10   38 1   
    18   11   12 1   
    19   12   13 1   
    20   12   15 1   
    21   13   14 1   
    22   14   17 1   
    23   15   17 1   
    24   16   39 1   
    25   16   40 1   
    26   16   41 1   
    27   18   19 1   
    28   18   20 1   
    29   18   42 1   
    30   19   43 1   
    31   19   44 1   
    32   19   45 1   
    33   20   21 1   
    34   20   46 1   
    35   21   22 1   
    36   21   23 1   
    37   23   24 1   
    38   23   26 1   
    39   24   25 1   
    40   24   30 1   
    41   26   28 1   
    42   28   29 1   
    43   28   48 1   
    44   29   49 1   
    45   30   47 1   
@<TRIPOS>SUBSTRUCTURE
     1 ZVX         1 TEMP              0 ****  ****    0 ROOT
