@<TRIPOS>MOLECULE
ZVY
   55    58     1     0     0
SMALL
bcc


@<TRIPOS>ATOM
      1 NAA         9.4970    1.2080  -10.3770 n1        1 ZVY     -0.395800
      2 OAB         1.8630   -1.7540    0.6930 o         1 ZVY     -0.816300
      3 OAC         1.4510    0.4270    1.0250 o         1 ZVY     -0.816300
      4 CAE        11.7610   -7.8630   -2.5790 ca        1 ZVY     -0.290300
      5 CAF        10.8130   -7.4970   -1.6220 ca        1 ZVY     -0.074000
      6 CAG        12.0750   -6.9260   -3.5750 ca        1 ZVY      0.421200
      7 CAH        10.2210   -6.2420   -1.6850 ca        1 ZVY     -0.268300
      8 CAI         7.4250   -0.3200   -7.9990 ca        1 ZVY     -0.094000
      9 CAJ         8.2640    1.7930   -7.1500 ca        1 ZVY     -0.094000
     10 CAK         3.8490    0.2010   -3.4600 ca        1 ZVY     -0.220000
     11 CAL         6.7240   -0.5140   -6.8120 ca        1 ZVY     -0.129500
     12 CAM         7.5640    1.5900   -5.9650 ca        1 ZVY     -0.129500
     13 CAN         4.6300    0.3660   -4.5960 ca        1 ZVY     -0.078000
     14 CAO         5.8690   -0.2500   -2.1800 ca        1 ZVY     -0.186000
     15 CAP         8.0650   -2.5410   -2.4580 c3        1 ZVY      0.159300
     16 CAQ        10.0620   -1.6520   -3.4700 c3        1 ZVY      0.159300
     17 CAR         8.5870   -3.9750   -2.6710 c3        1 ZVY      0.187800
     18 CAS        10.6000   -3.0810   -3.6860 c3        1 ZVY      0.187800
     19 CAT         2.3830   -0.2150   -1.0900 c3        1 ZVY     -0.014600
     20 NAV        11.5210   -5.7090   -3.6770 nb        1 ZVY     -0.720000
     21 OAW         3.8140   -0.3000   -1.0530 os        1 ZVY     -0.281900
     22 CAX         1.8730   -0.5450    0.3470 c         1 ZVY      0.927600
     23 CAY         8.1980    0.8370   -8.1740 ca        1 ZVY     -0.044000
     24 CAZ         4.4660   -0.1100   -2.2360 ca        1 ZVY      0.174100
     25 CBA         6.7880    0.4360   -5.7820 cp        1 ZVY      0.034000
     26 CBB         6.6410   -0.0810   -3.3250 ca        1 ZVY     -0.032300
     27 CBC        10.5910   -5.3440   -2.7350 ca        1 ZVY      0.630200
     28 CBD         6.0240    0.2360   -4.5490 cp        1 ZVY     -0.123000
     29 NBE         8.6070   -1.5940   -3.4210 n3        1 ZVY     -0.722600
     30 NBF        10.0430   -4.0320   -2.7340 nh        1 ZVY     -0.734300
     31 HAF        10.5360   -8.1950   -0.8180 ha        1 ZVY      0.133000
     32 HAG        12.8200   -7.1630   -4.3580 h4        1 ZVY      0.013100
     33 HAH         9.4900   -5.9420   -0.9210 ha        1 ZVY      0.151000
     34 HAI         7.3740   -1.0740   -8.7990 ha        1 ZVY      0.136500
     35 HAJ         8.8680    2.7020   -7.2860 ha        1 ZVY      0.136500
     36 HAK         2.7570    0.3120   -3.5190 ha        1 ZVY      0.148000
     37 HAL         6.1210   -1.4240   -6.6710 ha        1 ZVY      0.146500
     38 HAM         7.6120    2.3430   -5.1630 ha        1 ZVY      0.146500
     39 HAN         4.1450    0.6080   -5.5540 ha        1 ZVY      0.123000
     40 HAO         6.3370   -0.4980   -1.2150 ha        1 ZVY      0.150000
     41 HAP         8.2840   -2.2290   -1.3950 h1        1 ZVY      0.044950
     42 HAPA        6.9450   -2.5620   -2.5870 h1        1 ZVY      0.044950
     43 HAQ        10.5310   -1.2250   -2.5350 h1        1 ZVY      0.044950
     44 HAQA       10.4050   -1.0300   -4.3430 h1        1 ZVY      0.044950
     45 HAR         8.2290   -4.5940   -1.8030 h1        1 ZVY      0.049700
     46 HARA        8.1290   -4.3940   -3.6130 h1        1 ZVY      0.049700
     47 HAS        11.7160   -3.0480   -3.5450 h1        1 ZVY      0.049700
     48 HASA       10.3870   -3.3910   -4.7500 h1        1 ZVY      0.049700
     49 HAT         2.0840    0.8220   -1.3850 h1        1 ZVY      0.023700
     50 HATA        1.9830   -0.9650   -1.8180 h1        1 ZVY      0.023700
     51 CAU         8.1330   -0.2300   -3.2110 c3        1 ZVY      0.211100
     52 HAE        12.2470   -8.8450   -2.5580 ha        1 ZVY      0.137000
     53 HAU         8.6270    0.4170   -3.9930 h1        1 ZVY      0.038200
     54 HAUA        8.4510    0.1630   -2.1970 h1        1 ZVY      0.038200
     55 CAD         8.9120    1.0400   -9.3850 cg        1 ZVY      0.249800
@<TRIPOS>BOND
     1    1   55 3   
     2    2   22 1   
     3    3   22 1   
     4    4    5 ar  
     5    4    6 ar  
     6    4   52 1   
     7    5    7 ar  
     8    5   31 1   
     9    6   20 ar  
    10    6   32 1   
    11    7   27 ar  
    12    7   33 1   
    13    8   11 ar  
    14    8   23 ar  
    15    8   34 1   
    16    9   12 ar  
    17    9   23 ar  
    18    9   35 1   
    19   10   13 ar  
    20   10   24 ar  
    21   10   36 1   
    22   11   25 ar  
    23   11   37 1   
    24   12   25 ar  
    25   12   38 1   
    26   13   28 ar  
    27   13   39 1   
    28   14   24 ar  
    29   14   26 ar  
    30   14   40 1   
    31   15   17 1   
    32   15   29 1   
    33   15   41 1   
    34   15   42 1   
    35   16   18 1   
    36   16   29 1   
    37   16   43 1   
    38   16   44 1   
    39   17   30 1   
    40   17   45 1   
    41   17   46 1   
    42   18   30 1   
    43   18   47 1   
    44   18   48 1   
    45   19   21 1   
    46   19   22 1   
    47   19   49 1   
    48   19   50 1   
    49   20   27 ar  
    50   21   24 1   
    51   23   55 1   
    52   25   28 1   
    53   26   28 ar  
    54   26   51 1   
    55   27   30 1   
    56   29   51 1   
    57   51   53 1   
    58   51   54 1   
@<TRIPOS>SUBSTRUCTURE
     1 ZVY         1 TEMP              0 ****  ****    0 ROOT
