@<TRIPOS>MOLECULE
ZVY
   55    58     1     0     0
SMALL
bcc


@<TRIPOS>ATOM
      1 NAA         2.9630    7.0480   -0.4130 n1        1 ZVY     -0.395800
      2 OAB        -7.4120   -2.2870    0.3400 o         1 ZVY     -0.816300
      3 OAC        -5.9820   -3.4050   -0.9800 o         1 ZVY     -0.816300
      4 CAE         6.0270   -4.7270   -0.8550 ca        1 ZVY     -0.290300
      5 CAF         4.7420   -5.2380   -0.6740 ca        1 ZVY     -0.074000
      6 CAG         6.2290   -3.3630   -0.5920 ca        1 ZVY      0.421200
      7 CAH         3.7200   -4.3970   -0.2500 ca        1 ZVY     -0.268300
      8 CAI         1.0860    4.2410   -1.3500 ca        1 ZVY     -0.094000
      9 CAJ         0.5220    4.9130    0.9120 ca        1 ZVY     -0.094000
     10 CAK        -3.7210    1.0490   -0.7370 ca        1 ZVY     -0.220000
     11 CAL         0.1680    3.1980   -1.2650 ca        1 ZVY     -0.129500
     12 CAM        -0.3910    3.8660    0.9920 ca        1 ZVY     -0.129500
     13 CAN        -2.7430    2.0350   -0.7680 ca        1 ZVY     -0.078000
     14 CAO        -2.3320   -0.2310    0.7990 ca        1 ZVY     -0.186000
     15 CAP         0.5870   -1.4610    0.4630 c3        1 ZVY      0.159300
     16 CAQ         2.1920   -0.1170    1.6550 c3        1 ZVY      0.159300
     17 CAR         1.7310   -2.2010   -0.2580 c3        1 ZVY      0.187800
     18 CAS         3.3480   -0.8510    0.9440 c3        1 ZVY      0.187800
     19 CAT        -5.5950   -1.0510   -0.6220 c3        1 ZVY     -0.014600
     20 NAV         5.2700   -2.5160   -0.1910 nb        1 ZVY     -0.720000
     21 OAW        -4.4000   -1.1350    0.1660 os        1 ZVY     -0.281900
     22 CAX        -6.3870   -2.3740   -0.3850 c         1 ZVY      0.927600
     23 CAY         1.2660    5.1050   -0.2610 ca        1 ZVY     -0.044000
     24 CAZ        -3.5220   -0.0980    0.0520 ca        1 ZVY      0.174100
     25 CBA        -0.5770    2.9970   -0.0940 cp        1 ZVY      0.034000
     26 CBB        -1.3590    0.7650    0.7600 ca        1 ZVY     -0.032300
     27 CBC         4.0040   -3.0160   -0.0080 ca        1 ZVY      0.630200
     28 CBD        -1.5610    1.9150   -0.0240 cp        1 ZVY     -0.123000
     29 NBE         0.9590   -0.1170    0.8800 n3        1 ZVY     -0.722600
     30 NBF         2.9700   -2.1890    0.5110 nh        1 ZVY     -0.734300
     31 HAF         4.5340   -6.3020   -0.8620 ha        1 ZVY      0.133000
     32 HAG         7.2280   -2.9060   -0.7180 h4        1 ZVY      0.013100
     33 HAH         2.7110   -4.8000   -0.0850 ha        1 ZVY      0.151000
     34 HAI         1.6710    4.3860   -2.2700 ha        1 ZVY      0.136500
     35 HAJ         0.6600    5.5910    1.7680 ha        1 ZVY      0.136500
     36 HAK        -4.6420    1.1670   -1.3240 ha        1 ZVY      0.148000
     37 HAL         0.0290    2.5150   -2.1170 ha        1 ZVY      0.146500
     38 HAM        -0.9780    3.7190    1.9110 ha        1 ZVY      0.146500
     39 HAN        -2.8990    2.9310   -1.3870 ha        1 ZVY      0.123000
     40 HAO        -2.1890   -1.1360    1.4070 ha        1 ZVY      0.150000
     41 HAP        -0.2730   -1.3730   -0.2610 h1        1 ZVY      0.044950
     42 HAPA        0.2410   -2.0890    1.3350 h1        1 ZVY      0.044950
     43 HAQ         2.0460   -0.5740    2.6770 h1        1 ZVY      0.044950
     44 HAQA        2.5130    0.9530    1.7970 h1        1 ZVY      0.044950
     45 HAR         1.3990   -3.2640   -0.4090 h1        1 ZVY      0.049700
     46 HARA        1.8850   -1.7330   -1.2730 h1        1 ZVY      0.049700
     47 HAS         3.6980   -0.2210    0.0770 h1        1 ZVY      0.049700
     48 HASA        4.1950   -0.9400    1.6800 h1        1 ZVY      0.049700
     49 HAT        -6.1950   -0.1680   -0.2880 h1        1 ZVY      0.023700
     50 HATA       -5.3240   -0.9580   -1.7040 h1        1 ZVY      0.023700
     51 CAU        -0.1140    0.5800    1.5820 c3        1 ZVY      0.211100
     52 HAE         6.8550   -5.3630   -1.1880 ha        1 ZVY      0.137000
     53 HAU         0.2860    1.5950    1.8740 h1        1 ZVY      0.038200
     54 HAUA       -0.3970    0.0410    2.5370 h1        1 ZVY      0.038200
     55 CAD         2.1990    6.1730   -0.3450 cg        1 ZVY      0.249800
@<TRIPOS>BOND
     1    1   55 3   
     2    2   22 1   
     3    3   22 1   
     4    4    5 ar  
     5    4    6 ar  
     6    4   52 1   
     7    5    7 ar  
     8    5   31 1   
     9    6   20 ar  
    10    6   32 1   
    11    7   27 ar  
    12    7   33 1   
    13    8   11 ar  
    14    8   23 ar  
    15    8   34 1   
    16    9   12 ar  
    17    9   23 ar  
    18    9   35 1   
    19   10   13 ar  
    20   10   24 ar  
    21   10   36 1   
    22   11   25 ar  
    23   11   37 1   
    24   12   25 ar  
    25   12   38 1   
    26   13   28 ar  
    27   13   39 1   
    28   14   24 ar  
    29   14   26 ar  
    30   14   40 1   
    31   15   17 1   
    32   15   29 1   
    33   15   41 1   
    34   15   42 1   
    35   16   18 1   
    36   16   29 1   
    37   16   43 1   
    38   16   44 1   
    39   17   30 1   
    40   17   45 1   
    41   17   46 1   
    42   18   30 1   
    43   18   47 1   
    44   18   48 1   
    45   19   21 1   
    46   19   22 1   
    47   19   49 1   
    48   19   50 1   
    49   20   27 ar  
    50   21   24 1   
    51   23   55 1   
    52   25   28 1   
    53   26   28 ar  
    54   26   51 1   
    55   27   30 1   
    56   29   51 1   
    57   51   53 1   
    58   51   54 1   
@<TRIPOS>SUBSTRUCTURE
     1 ZVY         1 TEMP              0 ****  ****    0 ROOT
