@<TRIPOS>MOLECULE
ZVY
   55    58     1     0     0
SMALL
bcc


@<TRIPOS>ATOM
      1 NAA         9.4590    1.1900  -10.3910 n1        1 ZVY     -0.395800
      2 OAB         1.4510    0.4240    1.0390 o         1 ZVY     -0.816300
      3 OAC         1.9020   -1.7540    0.7370 o         1 ZVY     -0.816300
      4 CAE        11.8970   -7.7330   -2.4690 ca        1 ZVY     -0.290300
      5 CAF        10.9450   -7.3700   -1.5150 ca        1 ZVY     -0.075000
      6 CAG        12.1930   -6.8050   -3.4800 ca        1 ZVY      0.421200
      7 CAH        10.3310   -6.1260   -1.5950 ca        1 ZVY     -0.268300
      8 CAI         7.4190   -0.3420   -7.9870 ca        1 ZVY     -0.094000
      9 CAJ         8.2230    1.7960   -7.1690 ca        1 ZVY     -0.094000
     10 CAK         3.8440    0.1780   -3.4470 ca        1 ZVY     -0.220000
     11 CAL         6.7240   -0.5320   -6.7960 ca        1 ZVY     -0.129500
     12 CAM         7.5290    1.5980   -5.9790 ca        1 ZVY     -0.129500
     13 CAN         4.6190    0.3420   -4.5870 ca        1 ZVY     -0.078000
     14 CAO         5.8750   -0.2200   -2.1660 ca        1 ZVY     -0.186000
     15 CAP         8.1090   -2.4750   -2.4170 c3        1 ZVY      0.159300
     16 CAQ        10.0880   -1.5660   -3.4460 c3        1 ZVY      0.159300
     17 CAR         8.6560   -3.9030   -2.6100 c3        1 ZVY      0.187800
     18 CAS        10.6510   -2.9890   -3.6430 c3        1 ZVY      0.187800
     19 CAT         2.3910   -0.2310   -1.0680 c3        1 ZVY     -0.014600
     20 NAV        11.6170   -5.6000   -3.5980 nb        1 ZVY     -0.720000
     21 OAW         3.8230   -0.2890   -1.0340 os        1 ZVY     -0.281900
     22 CAX         1.8890   -0.5500    0.3740 c         1 ZVY      0.927600
     23 CAY         8.1720    0.8260   -8.1800 ca        1 ZVY     -0.044000
     24 CAZ         4.4690   -0.1050   -2.2200 ca        1 ZVY      0.174100
     25 CBA         6.7740    0.4330   -5.7790 cp        1 ZVY      0.034000
     26 CBB         6.6410   -0.0530   -3.3160 ca        1 ZVY     -0.032300
     27 CBC        10.6830   -5.2370   -2.6590 ca        1 ZVY      0.630200
     28 CBD         6.0170    0.2370   -4.5420 cp        1 ZVY     -0.123000
     29 NBE         8.6330   -1.5330   -3.3950 n3        1 ZVY     -0.722600
     30 NBF        10.1120   -3.9350   -2.6750 nh        1 ZVY     -0.734300
     31 HAF        10.6820   -8.0610   -0.7000 ha        1 ZVY      0.133000
     32 HAG        12.9390   -7.0410   -4.2610 h4        1 ZVY      0.013100
     33 HAH         9.5970   -5.8280   -0.8340 ha        1 ZVY      0.151000
     34 HAI         7.3800   -1.1070   -8.7770 ha        1 ZVY      0.136500
     35 HAJ         8.8110    2.7140   -7.3180 ha        1 ZVY      0.136500
     36 HAK         2.7500    0.2700   -3.5050 ha        1 ZVY      0.148000
     37 HAL         6.1370   -1.4500   -6.6410 ha        1 ZVY      0.146500
     38 HAM         7.5660    2.3630   -5.1880 ha        1 ZVY      0.146500
     39 HAN         4.1280    0.5620   -5.5480 ha        1 ZVY      0.123000
     40 HAO         6.3480   -0.4470   -1.1990 ha        1 ZVY      0.150000
     41 HAP         6.9890   -2.5180   -2.5420 h1        1 ZVY      0.044950
     42 HAPA        8.3250   -2.1440   -1.3590 h1        1 ZVY      0.044950
     43 HAQ        10.5520   -1.1180   -2.5180 h1        1 ZVY      0.044950
     44 HAQA       10.4190   -0.9510   -4.3290 h1        1 ZVY      0.044950
     45 HAR         8.3100   -4.5150   -1.7320 h1        1 ZVY      0.049700
     46 HARA        8.2030   -4.3430   -3.5450 h1        1 ZVY      0.049700
     47 HAS        10.4410   -3.3180   -4.7010 h1        1 ZVY      0.049700
     48 HASA       11.7660   -2.9340   -3.5050 h1        1 ZVY      0.049700
     49 HAT         2.0730    0.7970   -1.3770 h1        1 ZVY      0.023700
     50 HATA        2.0030   -0.9970   -1.7850 h1        1 ZVY      0.023700
     51 CAU         8.1360   -0.1740   -3.2020 c3        1 ZVY      0.211100
     52 HAE        12.4000   -8.7060   -2.4350 ha        1 ZVY      0.137000
     53 HAU         8.6170    0.4700   -3.9950 h1        1 ZVY      0.038200
     54 HAUA        8.4490    0.2380   -2.1950 h1        1 ZVY      0.038200
     55 CAD         8.8790    1.0260   -9.3950 cg        1 ZVY      0.249800
@<TRIPOS>BOND
     1    1   55 3   
     2    2   22 1   
     3    3   22 1   
     4    4    5 ar  
     5    4    6 ar  
     6    4   52 1   
     7    5    7 ar  
     8    5   31 1   
     9    6   20 ar  
    10    6   32 1   
    11    7   27 ar  
    12    7   33 1   
    13    8   11 ar  
    14    8   23 ar  
    15    8   34 1   
    16    9   12 ar  
    17    9   23 ar  
    18    9   35 1   
    19   10   13 ar  
    20   10   24 ar  
    21   10   36 1   
    22   11   25 ar  
    23   11   37 1   
    24   12   25 ar  
    25   12   38 1   
    26   13   28 ar  
    27   13   39 1   
    28   14   24 ar  
    29   14   26 ar  
    30   14   40 1   
    31   15   17 1   
    32   15   29 1   
    33   15   41 1   
    34   15   42 1   
    35   16   18 1   
    36   16   29 1   
    37   16   43 1   
    38   16   44 1   
    39   17   30 1   
    40   17   45 1   
    41   17   46 1   
    42   18   30 1   
    43   18   47 1   
    44   18   48 1   
    45   19   21 1   
    46   19   22 1   
    47   19   49 1   
    48   19   50 1   
    49   20   27 ar  
    50   21   24 1   
    51   23   55 1   
    52   25   28 1   
    53   26   28 ar  
    54   26   51 1   
    55   27   30 1   
    56   29   51 1   
    57   51   53 1   
    58   51   54 1   
@<TRIPOS>SUBSTRUCTURE
     1 ZVY         1 TEMP              0 ****  ****    0 ROOT
