@<TRIPOS>MOLECULE
ZVZ
   61    64     1     0     0
SMALL
bcc


@<TRIPOS>ATOM
      1 OAC         0.0000    0.0000    0.0000 o         1 ZVZ     -0.369100
      2 CAY         1.2130    0.0000    0.0000 c         1 ZVZ      0.311100
      3 NAW         1.8870    0.0000    1.1660 ny        1 ZVZ      0.172200
      4 CAA         1.1550   -0.0000    2.4360 c3        1 ZVZ      0.015100
      5 CAT         1.9660   -0.0060   -1.3050 c3        1 ZVZ      0.149400
      6 OAX         1.0370   -0.0120   -2.3910 os        1 ZVZ     -0.273900
      7 CBA         1.5550   -0.0170   -3.6460 ca        1 ZVZ      0.106100
      8 CAK         2.9330   -0.0180   -3.8270 ca        1 ZVZ     -0.211000
      9 CAN         3.4620   -0.0250   -5.1000 ca        1 ZVZ     -0.041000
     10 CAO         0.7090   -0.0290   -4.7460 ca        1 ZVZ     -0.110000
     11 CBC         1.2320   -0.0360   -6.0220 ca        1 ZVZ     -0.022300
     12 CBE         2.6140   -0.0310   -6.2070 cp        1 ZVZ     -0.022000
     13 CBB         3.1800   -0.0370   -7.5770 cp        1 ZVZ     -0.018000
     14 CAM         4.0630    0.9700   -7.9710 ca        1 ZVZ     -0.092000
     15 CAJ         4.5890    0.9640   -9.2430 ca        1 ZVZ     -0.066500
     16 CAZ         4.2390   -0.0500  -10.1390 ca        1 ZVZ      0.043000
     17 CAD         4.7860   -0.0570  -11.4630 cg        1 ZVZ      0.214800
     18 NAB         5.2070   -0.0490  -12.5180 n1        1 ZVZ     -0.355800
     19 CAI         3.3550   -1.0580   -9.7430 ca        1 ZVZ     -0.066500
     20 CAL         2.8350   -1.0530   -8.4690 ca        1 ZVZ     -0.092000
     21 CAU         0.3120   -0.0490   -7.2150 c3        1 ZVZ      0.185100
     22 NBF         0.3080    1.2780   -7.8460 n3        1 ZVZ     -0.541600
     23 CAP        -0.2600    1.2150   -9.1990 c3        1 ZVZ      0.149300
     24 CAR        -0.1730    2.5980   -9.8500 c3        1 ZVZ      0.148800
     25 NBG        -0.8970    3.5730   -9.0220 nh        1 ZVZ     -0.476300
     26 CAS        -0.3280    3.6350   -7.6680 c3        1 ZVZ      0.148800
     27 CAQ        -0.4160    2.2520   -7.0180 c3        1 ZVZ      0.149300
     28 CBD        -0.9000    4.8290   -9.6190 ca        1 ZVZ      0.509200
     29 NAV        -0.2950    5.0030  -10.7840 nb        1 ZVZ     -0.625000
     30 CAG        -0.2760    6.1780  -11.3850 ca        1 ZVZ      0.437200
     31 CAE        -0.8870    7.2750  -10.8130 ca        1 ZVZ     -0.250300
     32 CAF        -1.5320    7.1350   -9.5920 ca        1 ZVZ     -0.057000
     33 CAH        -1.5420    5.8890   -8.9890 ca        1 ZVZ     -0.260300
     34 HAW         2.4720    0.8110    1.2140 hn        1 ZVZ      0.254300
     35 HAT1        2.4820   -0.9510   -1.4200 h1        1 ZVZ      0.040700
     36 HAT2        2.6870    0.8020   -1.3100 h1        1 ZVZ      0.040700
     37 HAA1        1.8590    0.0050    3.2590 hx        1 ZVZ      0.082033
     38 HAA2        0.5360   -0.8870    2.4960 hx        1 ZVZ      0.082033
     39 HAA3        0.5280    0.8820    2.4920 hx        1 ZVZ      0.082033
     40 HAK         3.5920   -0.0360   -2.9680 ha        1 ZVZ      0.098000
     41 HAO        -0.3630   -0.0900   -4.6030 ha        1 ZVZ      0.127000
     42 HAN         4.5360   -0.0480   -5.2390 ha        1 ZVZ      0.117000
     43 HAU1       -0.6920   -0.3000   -6.8940 h1        1 ZVZ      0.028200
     44 HAU2        0.6570   -0.7860   -7.9300 h1        1 ZVZ      0.028200
     45 HAM         4.3340    1.7550   -7.2770 ha        1 ZVZ      0.113000
     46 HAL         2.2050   -1.8710   -8.1400 ha        1 ZVZ      0.113000
     47 HAJ         5.2870    1.7360   -9.5440 ha        1 ZVZ      0.118000
     48 HAI         3.1020   -1.8560  -10.4300 ha        1 ZVZ      0.118000
     49 HAP1        0.3330    0.5340   -9.7970 h1        1 ZVZ      0.014950
     50 HAP2       -1.2760    0.8440   -9.1360 h1        1 ZVZ      0.014950
     51 HAQ1        0.0900    2.3450   -6.0640 h1        1 ZVZ      0.014950
     52 HAQ2       -1.4240    1.8930   -6.8540 h1        1 ZVZ      0.014950
     53 HAR1       -0.6960    2.5730  -10.7980 h1        1 ZVZ      0.029950
     54 HAR2        0.8690    2.8380  -10.0230 h1        1 ZVZ      0.029950
     55 HAS1        0.6670    4.0590   -7.7250 h1        1 ZVZ      0.029950
     56 HAS2       -0.9530    4.2720   -7.0540 h1        1 ZVZ      0.029950
     57 HAH        -2.3470    5.9320   -8.2650 ha        1 ZVZ      0.129000
     58 HAG         0.2290    6.2900  -12.3360 h4        1 ZVZ     -0.017900
     59 HAE        -0.8930    8.2250  -11.3350 ha        1 ZVZ      0.117000
     60 HAF        -2.0580    7.9770   -9.1570 ha        1 ZVZ      0.109000
     61 HAW2        2.5150   -0.7790    1.1890 hn        1 ZVZ      0.254300
@<TRIPOS>BOND
     1    1    2 2   
     2    2    3 1   
     3    2    5 1   
     4    3    4 1   
     5    3   34 1   
     6    3   61 1   
     7    4   37 1   
     8    4   38 1   
     9    4   39 1   
    10    5    6 1   
    11    5   35 1   
    12    5   36 1   
    13    6    7 1   
    14    7    8 ar  
    15    7   10 ar  
    16    8    9 ar  
    17    8   40 1   
    18    9   12 ar  
    19    9   42 1   
    20   10   11 ar  
    21   10   41 1   
    22   11   12 ar  
    23   11   21 1   
    24   12   13 1   
    25   13   14 ar  
    26   13   20 ar  
    27   14   15 ar  
    28   14   45 1   
    29   15   16 ar  
    30   15   47 1   
    31   16   17 1   
    32   16   19 ar  
    33   17   18 3   
    34   19   20 ar  
    35   19   48 1   
    36   20   46 1   
    37   21   22 1   
    38   21   43 1   
    39   21   44 1   
    40   22   23 1   
    41   22   27 1   
    42   23   24 1   
    43   23   49 1   
    44   23   50 1   
    45   24   25 1   
    46   24   53 1   
    47   24   54 1   
    48   25   26 1   
    49   25   28 1   
    50   26   27 1   
    51   26   55 1   
    52   26   56 1   
    53   27   51 1   
    54   27   52 1   
    55   28   29 ar  
    56   28   33 ar  
    57   29   30 ar  
    58   30   31 ar  
    59   30   58 1   
    60   31   32 ar  
    61   31   59 1   
    62   32   33 ar  
    63   32   60 1   
    64   33   57 1   
@<TRIPOS>SUBSTRUCTURE
     1 ZVZ         1 TEMP              0 ****  ****    0 ROOT
