@<TRIPOS>MOLECULE
ZVZ
   60    63     1     0     0
SMALL
bcc


@<TRIPOS>ATOM
      1 OAC         7.2550    1.4650   -2.1420 o         1 ZVZ     -0.605100
      2 CAY         6.5550    1.2160   -1.1400 c         1 ZVZ      0.656100
      3 NAW         6.7360    1.8520    0.0650 n         1 ZVZ     -0.552900
      4 CAA         7.6320    2.9540    0.2220 c3        1 ZVZ      0.074300
      5 CAT         5.5210    0.0940   -1.2380 c3        1 ZVZ      0.052400
      6 OAX         4.4460    0.3690   -0.3380 os        1 ZVZ     -0.340900
      7 CBA         3.4000   -0.5370   -0.3630 ca        1 ZVZ      0.129100
      8 CAK         3.3770   -1.7080   -1.1290 ca        1 ZVZ     -0.198000
      9 CAN         2.2640   -2.5410   -1.0530 ca        1 ZVZ     -0.081000
     10 CAO         2.3180   -0.2020    0.4680 ca        1 ZVZ     -0.157000
     11 CBC         1.2100   -1.0470    0.5380 ca        1 ZVZ     -0.028300
     12 CBE         1.1800   -2.2280   -0.2240 cp        1 ZVZ     -0.064000
     13 CBB         0.0410   -3.1510   -0.1760 cp        1 ZVZ     -0.008000
     14 CAM        -0.9070   -3.1550   -1.2080 ca        1 ZVZ     -0.121000
     15 CAJ        -1.9780   -4.0450   -1.1770 ca        1 ZVZ     -0.093500
     16 CAZ        -2.1070   -4.9460   -0.1120 ca        1 ZVZ     -0.019000
     17 CAD        -3.1960   -5.8590   -0.0790 cg        1 ZVZ      0.233800
     18 NAB        -4.0870   -6.6070   -0.0520 n1        1 ZVZ     -0.363800
     19 CAI        -1.1610   -4.9470    0.9230 ca        1 ZVZ     -0.093500
     20 CAL        -0.0950   -4.0520    0.8890 ca        1 ZVZ     -0.121000
     21 CAU         0.0780   -0.6790    1.4580 c3        1 ZVZ      0.209100
     22 NBF        -0.9640    0.1060    0.8070 n3        1 ZVZ     -0.724600
     23 CAP        -2.1790    0.1610    1.6100 c3        1 ZVZ      0.161800
     24 CAR        -3.2930    1.0040    0.9560 c3        1 ZVZ      0.184300
     25 NBG        -2.8240    2.3300    0.5770 nh        1 ZVZ     -0.732300
     26 CAS        -1.6200    2.2740   -0.2450 c3        1 ZVZ      0.184300
     27 CAQ        -0.5090    1.4320    0.4140 c3        1 ZVZ      0.161800
     28 CBD        -3.8110    3.2460    0.1020 ca        1 ZVZ      0.614200
     29 NAV        -5.0860    2.8210   -0.1680 nb        1 ZVZ     -0.711000
     30 CAG        -5.9930    3.7420   -0.5260 ca        1 ZVZ      0.421200
     31 CAE        -5.7200    5.1140   -0.6590 ca        1 ZVZ     -0.275300
     32 CAF        -4.4220    5.5480   -0.3910 ca        1 ZVZ     -0.077000
     33 CAH        -3.4540    4.6250   -0.0080 ca        1 ZVZ     -0.262300
     34 HAW         6.0640    1.7000    0.7810 hn        1 ZVZ      0.321500
     35 HAT1        5.1410    0.0510   -2.2930 h1        1 ZVZ      0.074700
     36 HAT2        6.0150   -0.8750   -0.9600 h1        1 ZVZ      0.074700
     37 HAA1        8.3670    2.9780   -0.6280 h1        1 ZVZ      0.046700
     38 HAA2        7.0720    3.9290    0.2410 h1        1 ZVZ      0.046700
     39 HAA3        8.1900    2.8410    1.1900 h1        1 ZVZ      0.046700
     40 HAK         4.2150   -1.9780   -1.7860 ha        1 ZVZ      0.144000
     41 HAO         2.3530    0.7270    1.0560 ha        1 ZVZ      0.150000
     42 HAN         2.2380   -3.4630   -1.6540 ha        1 ZVZ      0.143000
     43 HAU1       -0.3980   -1.6320    1.8360 h1        1 ZVZ      0.045200
     44 HAU2        0.5080   -0.1370    2.3540 h1        1 ZVZ      0.045200
     45 HAM        -0.8110   -2.4420   -2.0410 ha        1 ZVZ      0.146000
     46 HAL         0.6470   -4.0540    1.7010 ha        1 ZVZ      0.146000
     47 HAJ        -2.7220   -4.0400   -1.9880 ha        1 ZVZ      0.146000
     48 HAI        -1.2610   -5.6540    1.7600 ha        1 ZVZ      0.146000
     49 HAP1       -2.5710   -0.8890    1.7170 h1        1 ZVZ      0.041200
     50 HAP2       -1.9770    0.5640    2.6460 h1        1 ZVZ      0.041200
     51 HAQ1       -0.0890    2.0080    1.2900 h1        1 ZVZ      0.041200
     52 HAQ2        0.3160    1.3020   -0.3420 h1        1 ZVZ      0.041200
     53 HAR1       -3.7020    0.4370    0.0710 h1        1 ZVZ      0.052450
     54 HAR2       -4.1190    1.1230    1.7120 h1        1 ZVZ      0.052450
     55 HAS1       -1.8420    1.8480   -1.2660 h1        1 ZVZ      0.052450
     56 HAS2       -1.2220    3.3170   -0.3800 h1        1 ZVZ      0.052450
     57 HAH        -2.4350    4.9600    0.2250 ha        1 ZVZ      0.146000
     58 HAG        -7.0060    3.3450   -0.7260 h4        1 ZVZ      0.021100
     59 HAE        -6.5080    5.8140   -0.9620 ha        1 ZVZ      0.144000
     60 HAF        -4.1620    6.6130   -0.4760 ha        1 ZVZ      0.137000
@<TRIPOS>BOND
     1    1    2 2   
     2    2    3 1   
     3    2    5 1   
     4    3    4 1   
     5    3   34 1   
     6    4   37 1   
     7    4   38 1   
     8    4   39 1   
     9    5    6 1   
    10    5   35 1   
    11    5   36 1   
    12    6    7 1   
    13    7    8 ar  
    14    7   10 ar  
    15    8    9 ar  
    16    8   40 1   
    17    9   12 ar  
    18    9   42 1   
    19   10   11 ar  
    20   10   41 1   
    21   11   12 ar  
    22   11   21 1   
    23   12   13 1   
    24   13   14 ar  
    25   13   20 ar  
    26   14   15 ar  
    27   14   45 1   
    28   15   16 ar  
    29   15   47 1   
    30   16   17 1   
    31   16   19 ar  
    32   17   18 3   
    33   19   20 ar  
    34   19   48 1   
    35   20   46 1   
    36   21   22 1   
    37   21   43 1   
    38   21   44 1   
    39   22   23 1   
    40   22   27 1   
    41   23   24 1   
    42   23   49 1   
    43   23   50 1   
    44   24   25 1   
    45   24   53 1   
    46   24   54 1   
    47   25   26 1   
    48   25   28 1   
    49   26   27 1   
    50   26   55 1   
    51   26   56 1   
    52   27   51 1   
    53   27   52 1   
    54   28   29 ar  
    55   28   33 ar  
    56   29   30 ar  
    57   30   31 ar  
    58   30   58 1   
    59   31   32 ar  
    60   31   59 1   
    61   32   33 ar  
    62   32   60 1   
    63   33   57 1   
@<TRIPOS>SUBSTRUCTURE
     1 ZVZ         1 TEMP              0 ****  ****    0 ROOT
