@<TRIPOS>MOLECULE
ZVZ
   61    64     1     0     0
SMALL
bcc


@<TRIPOS>ATOM
      1 OAC         2.9210    3.7770   -2.4140 o         1 ZVZ     -0.403100
      2 CAY         2.4450    2.6650   -2.5740 c         1 ZVZ      0.498100
      3 NAW         1.1910    2.5590   -3.4060 n4        1 ZVZ     -0.669800
      4 CAA         0.4300    3.8240   -3.5020 c3        1 ZVZ      0.079100
      5 CAT         3.0060    1.3750   -1.9920 c3        1 ZVZ      0.063400
      6 OAX         2.3110    0.2170   -2.4050 os        1 ZVZ     -0.318900
      7 CBA         2.6470   -0.2110   -3.6970 ca        1 ZVZ      0.023100
      8 CAK         3.9210   -0.6970   -4.0070 ca        1 ZVZ     -0.132000
      9 CAN         4.1650   -1.1350   -5.3060 ca        1 ZVZ     -0.090000
     10 CAO         1.6270   -0.1910   -4.6500 ca        1 ZVZ     -0.159000
     11 CBC         1.9050   -0.5520   -5.9730 ca        1 ZVZ     -0.046300
     12 CBE         3.1750   -1.0550   -6.3030 cp        1 ZVZ     -0.010000
     13 CBB         3.5130   -1.5120   -7.6520 cp        1 ZVZ     -0.054000
     14 CAM         4.6470   -1.0020   -8.3000 ca        1 ZVZ     -0.119500
     15 CAJ         4.9910   -1.4470   -9.5730 ca        1 ZVZ     -0.089000
     16 CAZ         4.2060   -2.4200  -10.2090 ca        1 ZVZ      0.012000
     17 CAD         4.5550   -2.8770  -11.5090 cg        1 ZVZ      0.212800
     18 NAB         4.8410   -3.2500  -12.5730 n1        1 ZVZ     -0.320800
     19 CAI         3.0780   -2.9420   -9.5620 ca        1 ZVZ     -0.089000
     20 CAL         2.7340   -2.4870   -8.2910 ca        1 ZVZ     -0.119500
     21 CAU         0.8210   -0.3220   -6.9940 c3        1 ZVZ      0.200100
     22 NBF         0.2600    1.0200   -6.8560 n3        1 ZVZ     -0.771600
     23 CAP         1.0240    2.0310   -7.5770 c3        1 ZVZ      0.156800
     24 CAR         0.4860    3.4510   -7.3070 c3        1 ZVZ      0.175300
     25 NBG        -0.9430    3.5590   -7.5640 nh        1 ZVZ     -0.715300
     26 CAS        -1.7280    2.5070   -6.9270 c3        1 ZVZ      0.175300
     27 CAQ        -1.1570    1.0970   -7.1850 c3        1 ZVZ      0.156800
     28 CBD        -1.4660    4.8800   -7.2810 ca        1 ZVZ      0.559200
     29 NAV        -1.3560    5.4240   -6.0300 nb        1 ZVZ     -0.741000
     30 CAG        -1.8590    6.6520   -5.8410 ca        1 ZVZ      0.405200
     31 CAE        -2.4910    7.4090   -6.8460 ca        1 ZVZ     -0.230300
     32 CAF        -2.6010    6.8500   -8.1170 ca        1 ZVZ     -0.084000
     33 CAH        -2.0870    5.5730   -8.3510 ca        1 ZVZ     -0.198300
     34 HAW         0.6030    1.8210   -2.9940 hn        1 ZVZ      0.475800
     35 HAT1        2.8690    1.4100   -0.8720 h1        1 ZVZ      0.132700
     36 HAT2        4.1000    1.3350   -2.2550 h1        1 ZVZ      0.132700
     37 HAA1        0.1060    4.1440   -2.4760 hx        1 ZVZ      0.116700
     38 HAA2       -0.4690    3.6650   -4.1620 hx        1 ZVZ      0.116700
     39 HAA3        1.0820    4.6230   -3.9490 hx        1 ZVZ      0.116700
     40 HAK         4.7070   -0.7480   -3.2390 ha        1 ZVZ      0.159000
     41 HAO         0.5950    0.0610   -4.3620 ha        1 ZVZ      0.143000
     42 HAN         5.1540   -1.5500   -5.5640 ha        1 ZVZ      0.165000
     43 HAU1        0.0100   -1.0870   -6.8190 h1        1 ZVZ      0.069200
     44 HAU2        1.2330   -0.4970   -8.0310 h1        1 ZVZ      0.069200
     45 HAM         5.2700   -0.2440   -7.8010 ha        1 ZVZ      0.143000
     46 HAL         1.8520   -2.9050   -7.7810 ha        1 ZVZ      0.143000
     47 HAJ         5.8810   -1.0400  -10.0790 ha        1 ZVZ      0.158500
     48 HAI         2.4660   -3.7140  -10.0560 ha        1 ZVZ      0.158500
     49 HAP1        1.0230    1.8450   -8.6900 h1        1 ZVZ      0.051950
     50 HAP2        2.0910    1.9860   -7.2230 h1        1 ZVZ      0.051950
     51 HAQ1       -1.7160    0.3750   -6.5270 h1        1 ZVZ      0.051950
     52 HAQ2       -1.3530    0.8140   -8.2600 h1        1 ZVZ      0.051950
     53 HAR1        0.7580    3.7330   -6.2460 h1        1 ZVZ      0.039950
     54 HAR2        1.0120    4.1650   -8.0000 h1        1 ZVZ      0.039950
     55 HAS1       -1.8160    2.6580   -5.8110 h1        1 ZVZ      0.039950
     56 HAS2       -2.7650    2.5480   -7.3640 h1        1 ZVZ      0.039950
     57 HAH        -2.1610    5.1120   -9.3480 ha        1 ZVZ      0.166000
     58 HAG        -1.7530    7.0600   -4.8180 h4        1 ZVZ      0.021100
     59 HAE        -2.8840    8.4100   -6.6240 ha        1 ZVZ      0.159000
     60 HAF        -3.0870    7.4060   -8.9340 ha        1 ZVZ      0.156000
     61 HAW2        1.4530    2.2400   -4.3560 hn        1 ZVZ      0.475800
@<TRIPOS>BOND
     1    1    2 2   
     2    2    3 1   
     3    2    5 1   
     4    3    4 1   
     5    3   34 1   
     6    3   61 1   
     7    4   37 1   
     8    4   38 1   
     9    4   39 1   
    10    5    6 1   
    11    5   35 1   
    12    5   36 1   
    13    6    7 1   
    14    7    8 ar  
    15    7   10 ar  
    16    8    9 ar  
    17    8   40 1   
    18    9   12 ar  
    19    9   42 1   
    20   10   11 ar  
    21   10   41 1   
    22   11   12 ar  
    23   11   21 1   
    24   12   13 1   
    25   13   14 ar  
    26   13   20 ar  
    27   14   15 ar  
    28   14   45 1   
    29   15   16 ar  
    30   15   47 1   
    31   16   17 1   
    32   16   19 ar  
    33   17   18 3   
    34   19   20 ar  
    35   19   48 1   
    36   20   46 1   
    37   21   22 1   
    38   21   43 1   
    39   21   44 1   
    40   22   23 1   
    41   22   27 1   
    42   23   24 1   
    43   23   49 1   
    44   23   50 1   
    45   24   25 1   
    46   24   53 1   
    47   24   54 1   
    48   25   26 1   
    49   25   28 1   
    50   26   27 1   
    51   26   55 1   
    52   26   56 1   
    53   27   51 1   
    54   27   52 1   
    55   28   29 ar  
    56   28   33 ar  
    57   29   30 ar  
    58   30   31 ar  
    59   30   58 1   
    60   31   32 ar  
    61   31   59 1   
    62   32   33 ar  
    63   32   60 1   
    64   33   57 1   
@<TRIPOS>SUBSTRUCTURE
     1 ZVZ         1 TEMP              0 ****  ****    0 ROOT
