@<TRIPOS>MOLECULE
ZW3
   32    34     1     0     0
SMALL
bcc


@<TRIPOS>ATOM
      1 C1          0.6950    1.1860   -1.0150 c3        1 ZW3     -0.182100
      2 C2          1.0420    0.0090   -0.1780 c         1 ZW3      0.573100
      3 O3          0.7480   -0.2440    0.9770 o         1 ZW3     -0.404100
      4 N4          1.8840   -1.0750   -0.8660 n4        1 ZW3     -0.517600
      5 C5          3.2930   -0.7430   -0.8330 cc        1 ZW3      0.037600
      6 C6          4.2700   -1.3550   -0.0000 cd        1 ZW3     -0.133100
      7 N7          5.4610   -0.7240   -0.3220 na        1 ZW3      0.031700
      8 C8          6.7420   -0.9000    0.1660 cc        1 ZW3     -0.066300
      9 C9          7.7790   -0.1280   -0.3280 cd        1 ZW3     -0.054800
     10 C10         9.1400   -0.2640    0.1410 cf        1 ZW3     -0.031200
     11 C11         9.5640   -0.9260    1.2320 cc        1 ZW3     -0.093600
     12 S12         8.6830   -1.7960    2.3980 ss        1 ZW3     -0.162200
     13 C13        10.1400   -2.2250    3.3570 c         1 ZW3      0.738100
     14 O14        10.1460   -2.8940    4.3880 o         1 ZW3     -0.508500
     15 N15        11.2690   -1.6810    2.7430 n         1 ZW3     -0.601500
     16 C16        11.0280   -0.9500    1.5680 c         1 ZW3      0.703700
     17 O17        11.9220   -0.4080    0.9130 o         1 ZW3     -0.540500
     18 C18         7.5160    0.8490   -1.3530 cd        1 ZW3     -0.073000
     19 C19         6.2610    1.0450   -1.8490 cc        1 ZW3     -0.096000
     20 C20         5.1760    0.2510   -1.3370 cd        1 ZW3      0.015700
     21 N21         3.8510    0.2480   -1.6560 nc        1 ZW3     -0.270600
     22 H11C        1.6190    1.7510   -1.3080 hc        1 ZW3      0.120033
     23 H12C        0.1510    0.8750   -1.9430 hc        1 ZW3      0.120033
     24 H13C        0.0320    1.8630   -0.4130 hc        1 ZW3      0.120033
     25 H4          1.5830   -1.1700   -1.8450 hn        1 ZW3      0.468300
     26 H6          4.1920   -2.1430    0.7520 h4        1 ZW3      0.217000
     27 H8          6.8630   -1.6900    0.9340 h4        1 ZW3      0.197000
     28 H10         9.9060    0.2540   -0.4780 ha        1 ZW3      0.182000
     29 H18         8.3640    1.4460   -1.7320 ha        1 ZW3      0.177000
     30 H15        12.1870   -1.7940    3.1140 hn        1 ZW3      0.373500
     31 H19         6.0340    1.7860   -2.6310 ha        1 ZW3      0.189000
     32 H42         1.7570   -1.9720   -0.3790 hn        1 ZW3      0.468300
@<TRIPOS>BOND
     1    1    2 1   
     2    1   22 1   
     3    1   23 1   
     4    1   24 1   
     5    2    3 2   
     6    2    4 1   
     7    4    5 1   
     8    4   25 1   
     9    4   32 1   
    10    5    6 2   
    11    5   21 1   
    12    6    7 1   
    13    6   26 1   
    14    7    8 1   
    15    7   20 1   
    16    8    9 2   
    17    8   27 1   
    18    9   10 1   
    19    9   18 1   
    20   10   11 2   
    21   10   28 1   
    22   11   12 1   
    23   11   16 1   
    24   12   13 1   
    25   13   14 2   
    26   13   15 1   
    27   15   16 1   
    28   15   30 1   
    29   16   17 2   
    30   18   19 2   
    31   18   29 1   
    32   19   20 1   
    33   19   31 1   
    34   20   21 2   
@<TRIPOS>SUBSTRUCTURE
     1 ZW3         1 TEMP              0 ****  ****    0 ROOT
