@<TRIPOS>MOLECULE
ZW3
   31    33     1     0     0
SMALL
bcc


@<TRIPOS>ATOM
      1 C1          6.6950    1.8710    0.1450 c3        1 ZW3     -0.174100
      2 C2          5.2270    1.5180    0.1610 c         1 ZW3      0.667100
      3 O3          4.3470    2.3810    0.3330 o         1 ZW3     -0.591100
      4 N4          4.9170    0.1750   -0.0270 n         1 ZW3     -0.455100
      5 C5          3.6200   -0.3320   -0.0420 cc        1 ZW3      0.198200
      6 C6          2.4160    0.4080    0.1230 cd        1 ZW3     -0.227100
      7 N7          1.3820   -0.5240    0.0320 na        1 ZW3      0.010700
      8 C8          0.0250   -0.3820    0.1150 cc        1 ZW3     -0.007300
      9 C9         -0.8050   -1.4890   -0.0110 cd        1 ZW3     -0.145800
     10 C10        -2.2410   -1.4030    0.0680 cf        1 ZW3      0.038800
     11 C11        -3.0050   -0.2980    0.1630 cc        1 ZW3     -0.156600
     12 S12        -2.5480    1.3480    0.2150 ss        1 ZW3     -0.130200
     13 C13        -4.2230    1.9330    0.3260 c         1 ZW3      0.718100
     14 O14        -4.5890    3.1090    0.3980 o         1 ZW3     -0.547500
     15 N15        -5.1020    0.8450    0.3220 n         1 ZW3     -0.611500
     16 C16        -4.4910   -0.4190    0.2330 c         1 ZW3      0.710700
     17 O17        -5.1420   -1.4710    0.2170 o         1 ZW3     -0.575500
     18 C18        -0.2200   -2.7850   -0.2270 cd        1 ZW3     -0.095000
     19 C19         1.1310   -2.9530   -0.3150 cc        1 ZW3     -0.106000
     20 C20         1.9920   -1.8110   -0.1870 cd        1 ZW3     -0.002300
     21 N21         3.3440   -1.7090   -0.2340 nc        1 ZW3     -0.310600
     22 H11C        6.7960    2.9720    0.3070 hc        1 ZW3      0.072033
     23 H12C        7.2370    1.3330    0.9600 hc        1 ZW3      0.072033
     24 H13C        7.1520    1.6040   -0.8380 hc        1 ZW3      0.072033
     25 H4          5.6580   -0.4760   -0.1590 hn        1 ZW3      0.335500
     26 H6          2.2600    1.4750    0.2890 h4        1 ZW3      0.222000
     27 H8         -0.3410    0.6480    0.2940 h4        1 ZW3      0.179000
     28 H10        -2.7710   -2.3810    0.0410 ha        1 ZW3      0.165000
     29 H18        -0.8950   -3.6510   -0.3220 ha        1 ZW3      0.149000
     30 H15        -6.0880    0.9520    0.3750 hn        1 ZW3      0.357500
     31 H19         1.5990   -3.9340   -0.4810 ha        1 ZW3      0.169000
@<TRIPOS>BOND
     1    1    2 1   
     2    1   22 1   
     3    1   23 1   
     4    1   24 1   
     5    2    3 2   
     6    2    4 1   
     7    4    5 1   
     8    4   25 1   
     9    5    6 2   
    10    5   21 1   
    11    6    7 1   
    12    6   26 1   
    13    7    8 1   
    14    7   20 1   
    15    8    9 2   
    16    8   27 1   
    17    9   10 1   
    18    9   18 1   
    19   10   11 2   
    20   10   28 1   
    21   11   12 1   
    22   11   16 1   
    23   12   13 1   
    24   13   14 2   
    25   13   15 1   
    26   15   16 1   
    27   15   30 1   
    28   16   17 2   
    29   18   19 2   
    30   18   29 1   
    31   19   20 1   
    32   19   31 1   
    33   20   21 2   
@<TRIPOS>SUBSTRUCTURE
     1 ZW3         1 TEMP              0 ****  ****    0 ROOT
