@<TRIPOS>MOLECULE
ZW3
   31    33     1     0     0
SMALL
bcc


@<TRIPOS>ATOM
      1 C1         -0.1990   -0.0680   -0.3200 c3        1 ZW3     -0.174100
      2 C2          1.2870   -0.1880   -0.0860 c         1 ZW3      0.667100
      3 O3          1.7510   -0.5740    1.0020 o         1 ZW3     -0.591100
      4 N4          2.1070    0.1590   -1.1550 ns        1 ZW3     -0.455100
      5 C5          3.4980    0.1110   -1.1210 cc        1 ZW3      0.198200
      6 C6          4.3070   -0.2920   -0.0210 cd        1 ZW3     -0.227100
      7 N7          5.6270   -0.1750   -0.4600 na        1 ZW3      0.010700
      8 C8          6.8150   -0.4250    0.1690 cc        1 ZW3     -0.007300
      9 C9          8.0170   -0.2240   -0.4980 cd        1 ZW3     -0.145800
     10 C10         9.3000   -0.4690    0.1120 cf        1 ZW3      0.038800
     11 C11         9.5590   -1.0130    1.3160 cc        1 ZW3     -0.156600
     12 S12         8.4820   -1.5950    2.5090 ss        1 ZW3     -0.130200
     13 C13         9.7840   -2.0760    3.6200 c         1 ZW3      0.718100
     14 O14         9.6500   -2.5950    4.7310 o         1 ZW3     -0.547500
     15 N15        11.0250   -1.7760    3.0480 ns        1 ZW3     -0.611500
     16 C16        10.9690   -1.1860    1.7720 c         1 ZW3      0.710700
     17 O17        11.9860   -0.8670    1.1440 o         1 ZW3     -0.575500
     18 C18         7.9970    0.2520   -1.8540 cd        1 ZW3     -0.095000
     19 C19         6.8250    0.5070   -2.5040 cc        1 ZW3     -0.106000
     20 C20         5.5800    0.2990   -1.8190 cd        1 ZW3     -0.003300
     21 N21         4.3000    0.4750   -2.2310 nc        1 ZW3     -0.310600
     22 H11C       -0.5190   -0.7360   -1.1560 hc        1 ZW3      0.072033
     23 H12C       -0.4750    0.9860   -0.5670 hc        1 ZW3      0.072033
     24 H13C       -0.7310   -0.3740    0.6140 hc        1 ZW3      0.072033
     25 H4          1.6860    0.4630   -2.0050 hn        1 ZW3      0.335500
     26 H6          4.0250   -0.6310    0.9760 h4        1 ZW3      0.222000
     27 H8          6.7410   -0.7760    1.2170 h4        1 ZW3      0.179000
     28 H10        10.1760   -0.1700   -0.5060 ha        1 ZW3      0.165000
     29 H18         8.9610    0.4070   -2.3650 ha        1 ZW3      0.149000
     30 H15        11.8860   -1.9660    3.5040 hn        1 ZW3      0.357500
     31 H19         6.7870    0.8690   -3.5420 ha        1 ZW3      0.169000
@<TRIPOS>BOND
     1    1    2 1   
     2    1   22 1   
     3    1   23 1   
     4    1   24 1   
     5    2    3 2   
     6    2    4 1   
     7    4    5 1   
     8    4   25 1   
     9    5    6 2   
    10    5   21 1   
    11    6    7 1   
    12    6   26 1   
    13    7    8 1   
    14    7   20 1   
    15    8    9 2   
    16    8   27 1   
    17    9   10 1   
    18    9   18 1   
    19   10   11 2   
    20   10   28 1   
    21   11   12 1   
    22   11   16 1   
    23   12   13 1   
    24   13   14 2   
    25   13   15 1   
    26   15   16 1   
    27   15   30 1   
    28   16   17 2   
    29   18   19 2   
    30   18   29 1   
    31   19   20 1   
    32   19   31 1   
    33   20   21 2   
@<TRIPOS>SUBSTRUCTURE
     1 ZW3         1 TEMP              0 ****  ****    0 ROOT
