@<TRIPOS>MOLECULE
ZWI
   53    52     1     0     0
SMALL
bcc


@<TRIPOS>ATOM
      1 O3          3.3940    0.9620    2.1770 o         1 ZWI     -0.744533
      2 S1          4.6800    0.4150    1.8760 s6        1 ZWI      1.434800
      3 O1          5.7400    0.8520    2.6710 o         1 ZWI     -0.744533
      4 O2          4.5710   -0.9810    1.6500 o         1 ZWI     -0.744533
      5 C1          5.0050    1.0750    0.2410 c3        1 ZWI     -0.306600
      6 C2          4.1240    0.4860   -0.8250 c3        1 ZWI     -0.039400
      7 C3          2.6750    0.9440   -0.6460 c3        1 ZWI      0.099800
      8 N1          1.6290   -0.1490   -0.5730 n4        1 ZWI     -0.587800
      9 C14         1.6090   -0.9090   -1.8500 c3        1 ZWI      0.071100
     10 C15         1.9040   -1.0790    0.5620 c3        1 ZWI      0.071100
     11 C4          0.3050    0.5360   -0.3470 c3        1 ZWI      0.110800
     12 C5         -0.9230   -0.3580   -0.4400 c3        1 ZWI     -0.099400
     13 C6         -2.1580    0.4620   -0.1190 c3        1 ZWI     -0.080400
     14 C7         -3.4080   -0.3880   -0.2180 c3        1 ZWI     -0.078400
     15 C8         -4.6440    0.4250    0.1030 c3        1 ZWI     -0.079400
     16 C10        -5.8950   -0.4210    0.0040 c3        1 ZWI     -0.078400
     17 C9         -7.1320    0.3900    0.3240 c3        1 ZWI     -0.079400
     18 C11        -8.3840   -0.4550    0.2250 c3        1 ZWI     -0.079400
     19 C12        -9.6220    0.3550    0.5450 c3        1 ZWI     -0.080400
     20 C13       -10.8710   -0.4830    0.4480 c3        1 ZWI     -0.093100
     21 H11         4.9000    2.1850    0.2690 h1        1 ZWI      0.086200
     22 H12         6.0720    0.8610   -0.0160 h1        1 ZWI      0.086200
     23 H22         4.4660    0.8150   -1.8420 hc        1 ZWI      0.053200
     24 H21         4.2310   -0.6320   -0.7890 hc        1 ZWI      0.053200
     25 H31         2.5830    1.5330    0.3210 hx        1 ZWI      0.107700
     26 H32         2.3850    1.6030   -1.5110 hx        1 ZWI      0.107700
     27 H141        2.6450   -1.2800   -2.0750 hx        1 ZWI      0.103867
     28 H142        0.9180   -1.7870   -1.7570 hx        1 ZWI      0.103867
     29 H143        1.2630   -0.2400   -2.6790 hx        1 ZWI      0.103867
     30 H152        2.8980   -1.5930    0.4220 hx        1 ZWI      0.103867
     31 H151        1.9720   -0.4840    1.5220 hx        1 ZWI      0.103867
     32 H153        1.0860   -1.8400    0.6220 hx        1 ZWI      0.103867
     33 H41         0.3550    1.0040    0.6800 hx        1 ZWI      0.097200
     34 H42         0.2140    1.3590   -1.1120 hx        1 ZWI      0.097200
     35 H52        -1.0200   -0.7880   -1.4720 hc        1 ZWI      0.058200
     36 H51        -0.8510   -1.2140    0.2810 hc        1 ZWI      0.058200
     37 H62        -2.0720    0.8850    0.9170 hc        1 ZWI      0.051700
     38 H61        -2.2340    1.3270   -0.8280 hc        1 ZWI      0.051700
     39 H71        -3.4950   -0.8130   -1.2520 hc        1 ZWI      0.043700
     40 H72        -3.3320   -1.2530    0.4920 hc        1 ZWI      0.043700
     41 H82        -4.5580    0.8490    1.1380 hc        1 ZWI      0.043700
     42 H81        -4.7190    1.2920   -0.6050 hc        1 ZWI      0.043700
     43 H101       -5.9820   -0.8470   -1.0310 hc        1 ZWI      0.041200
     44 H102       -5.8200   -1.2880    0.7130 hc        1 ZWI      0.041200
     45 H91        -7.0460    0.8150    1.3590 hc        1 ZWI      0.040700
     46 H92        -7.2070    1.2570   -0.3840 hc        1 ZWI      0.040700
     47 H112       -8.4700   -0.8800   -0.8090 hc        1 ZWI      0.040200
     48 H111       -8.3090   -1.3220    0.9340 hc        1 ZWI      0.040200
     49 H121       -9.5330    0.7800    1.5800 hc        1 ZWI      0.039200
     50 H122       -9.6940    1.2220   -0.1630 hc        1 ZWI      0.039200
     51 H132      -11.7710    0.1330    0.6880 hc        1 ZWI      0.033700
     52 H133      -10.9900   -0.8950   -0.5830 hc        1 ZWI      0.033700
     53 H131      -10.8280   -1.3390    1.1650 hc        1 ZWI      0.033700
@<TRIPOS>BOND
     1    1    2 1   
     2    2    3 1   
     3    2    4 1   
     4    2    5 1   
     5    5    6 1   
     6    5   21 1   
     7    5   22 1   
     8    6    7 1   
     9    6   23 1   
    10    6   24 1   
    11    7    8 1   
    12    7   25 1   
    13    7   26 1   
    14    8    9 1   
    15    8   10 1   
    16    8   11 1   
    17    9   27 1   
    18    9   28 1   
    19    9   29 1   
    20   10   30 1   
    21   10   31 1   
    22   10   32 1   
    23   11   12 1   
    24   11   33 1   
    25   11   34 1   
    26   12   13 1   
    27   12   35 1   
    28   12   36 1   
    29   13   14 1   
    30   13   37 1   
    31   13   38 1   
    32   14   15 1   
    33   14   39 1   
    34   14   40 1   
    35   15   16 1   
    36   15   41 1   
    37   15   42 1   
    38   16   17 1   
    39   16   43 1   
    40   16   44 1   
    41   17   18 1   
    42   17   45 1   
    43   17   46 1   
    44   18   19 1   
    45   18   47 1   
    46   18   48 1   
    47   19   20 1   
    48   19   49 1   
    49   19   50 1   
    50   20   51 1   
    51   20   52 1   
    52   20   53 1   
@<TRIPOS>SUBSTRUCTURE
     1 ZWI         1 TEMP              0 ****  ****    0 ROOT
