@<TRIPOS>MOLECULE
ZWI
   53    52     1     0     0
SMALL
bcc


@<TRIPOS>ATOM
      1 O3          0.4520    3.5550   -1.5440 o         1 ZWI     -0.744533
      2 S1          0.2810    2.3480   -0.7990 s6        1 ZWI      1.434800
      3 O1         -0.0500    2.4930    0.5480 o         1 ZWI     -0.744533
      4 O2         -0.4740    1.4150   -1.5560 o         1 ZWI     -0.744533
      5 C1          1.9330    1.6500   -0.8130 c3        1 ZWI     -0.306600
      6 C2          2.3610    1.1610   -2.1680 c3        1 ZWI     -0.039400
      7 C3          2.5680    2.3320   -3.1290 c3        1 ZWI      0.099800
      8 N1          1.8140    2.2660   -4.4420 n4        1 ZWI     -0.587800
      9 C14         2.2640    1.0830   -5.2180 c3        1 ZWI      0.071100
     10 C15         0.3410    2.1870   -4.2110 c3        1 ZWI      0.071100
     11 C4          2.1340    3.5380   -5.1860 c3        1 ZWI      0.110800
     12 C5          1.6400    3.6010   -6.6250 c3        1 ZWI     -0.099400
     13 C6          1.9770    4.9610   -7.2050 c3        1 ZWI     -0.080400
     14 C7          1.5180    5.0590   -8.6450 c3        1 ZWI     -0.078400
     15 C8          1.8500    6.4150   -9.2300 c3        1 ZWI     -0.079400
     16 C10         1.3930    6.5170  -10.6690 c3        1 ZWI     -0.078400
     17 C9          1.7250    7.8720  -11.2550 c3        1 ZWI     -0.079400
     18 C11         1.2670    7.9740  -12.6940 c3        1 ZWI     -0.079400
     19 C12         1.5990    9.3300  -13.2820 c3        1 ZWI     -0.080400
     20 C13         1.1450    9.4370  -14.7150 c3        1 ZWI     -0.093100
     21 H11         1.9550    0.7920   -0.0970 h1        1 ZWI      0.086200
     22 H12         2.6520    2.4090   -0.4250 h1        1 ZWI      0.086200
     23 H22         1.5890    0.4310   -2.5360 hc        1 ZWI      0.053200
     24 H21         3.3300    0.6000   -2.0940 hc        1 ZWI      0.053200
     25 H31         3.6590    2.4060   -3.3940 hx        1 ZWI      0.107700
     26 H32         2.2390    3.2960   -2.6250 hx        1 ZWI      0.107700
     27 H141        1.6300    0.9690   -6.1360 hx        1 ZWI      0.103867
     28 H142        2.1600    0.1630   -4.5830 hx        1 ZWI      0.103867
     29 H143        3.3380    1.2140   -5.5140 hx        1 ZWI      0.103867
     30 H152       -0.1870    2.1950   -5.1960 hx        1 ZWI      0.103867
     31 H151        0.0170    3.0630   -3.5710 hx        1 ZWI      0.103867
     32 H153        0.0800    1.2490   -3.6410 hx        1 ZWI      0.103867
     33 H41         3.2550    3.6620   -5.1810 hx        1 ZWI      0.097200
     34 H42         1.6760    4.3830   -4.5930 hx        1 ZWI      0.097200
     35 H52         2.1280    2.8020   -7.2430 hc        1 ZWI      0.058200
     36 H51         0.5310    3.4430   -6.6750 hc        1 ZWI      0.058200
     37 H62         1.4830    5.7650   -6.5970 hc        1 ZWI      0.051700
     38 H61         3.0840    5.1340   -7.1510 hc        1 ZWI      0.051700
     39 H71         2.0090    4.2560   -9.2540 hc        1 ZWI      0.043700
     40 H72         0.4100    4.8880   -8.7000 hc        1 ZWI      0.043700
     41 H82         2.9580    6.5890   -9.1740 hc        1 ZWI      0.043700
     42 H81         1.3580    7.2190   -8.6210 hc        1 ZWI      0.043700
     43 H101        0.2850    6.3440  -10.7250 hc        1 ZWI      0.041200
     44 H102        1.8840    5.7130  -11.2780 hc        1 ZWI      0.041200
     45 H91         1.2330    8.6760  -10.6460 hc        1 ZWI      0.040700
     46 H92         2.8320    8.0450  -11.1990 hc        1 ZWI      0.040700
     47 H112        0.1600    7.8020  -12.7500 hc        1 ZWI      0.040200
     48 H111        1.7580    7.1710  -13.3040 hc        1 ZWI      0.040200
     49 H121        1.1080   10.1320  -12.6700 hc        1 ZWI      0.039200
     50 H122        2.7060    9.5020  -13.2240 hc        1 ZWI      0.039200
     51 H132        1.6420    8.6600  -15.3450 hc        1 ZWI      0.033700
     52 H133        0.0400    9.2930  -14.7900 hc        1 ZWI      0.033700
     53 H131        1.3990   10.4420  -15.1280 hc        1 ZWI      0.033700
@<TRIPOS>BOND
     1    1    2 1   
     2    2    3 1   
     3    2    4 1   
     4    2    5 1   
     5    5    6 1   
     6    5   21 1   
     7    5   22 1   
     8    6    7 1   
     9    6   23 1   
    10    6   24 1   
    11    7    8 1   
    12    7   25 1   
    13    7   26 1   
    14    8    9 1   
    15    8   10 1   
    16    8   11 1   
    17    9   27 1   
    18    9   28 1   
    19    9   29 1   
    20   10   30 1   
    21   10   31 1   
    22   10   32 1   
    23   11   12 1   
    24   11   33 1   
    25   11   34 1   
    26   12   13 1   
    27   12   35 1   
    28   12   36 1   
    29   13   14 1   
    30   13   37 1   
    31   13   38 1   
    32   14   15 1   
    33   14   39 1   
    34   14   40 1   
    35   15   16 1   
    36   15   41 1   
    37   15   42 1   
    38   16   17 1   
    39   16   43 1   
    40   16   44 1   
    41   17   18 1   
    42   17   45 1   
    43   17   46 1   
    44   18   19 1   
    45   18   47 1   
    46   18   48 1   
    47   19   20 1   
    48   19   49 1   
    49   19   50 1   
    50   20   51 1   
    51   20   52 1   
    52   20   53 1   
@<TRIPOS>SUBSTRUCTURE
     1 ZWI         1 TEMP              0 ****  ****    0 ROOT
