@<TRIPOS>MOLECULE
ZWI
   53    52     1     0     0
SMALL
bcc


@<TRIPOS>ATOM
      1 O3          0.5220    3.6170   -1.5180 o         1 ZWI     -0.744533
      2 S1          0.3340    2.4180   -0.7640 s6        1 ZWI      1.434800
      3 O1          0.0300    2.5790    0.5880 o         1 ZWI     -0.744533
      4 O2         -0.4570    1.5010   -1.5010 o         1 ZWI     -0.744533
      5 C1          1.9670    1.6790   -0.8020 c3        1 ZWI     -0.306600
      6 C2          2.3590    1.1710   -2.1610 c3        1 ZWI     -0.039400
      7 C3          2.5790    2.3310   -3.1330 c3        1 ZWI      0.099800
      8 N1          1.8010    2.2770   -4.4310 n4        1 ZWI     -0.587800
      9 C14         2.2080    1.0780   -5.2080 c3        1 ZWI      0.071100
     10 C15         0.3310    2.2360   -4.1740 c3        1 ZWI      0.071100
     11 C4          2.1400    3.5350   -5.1890 c3        1 ZWI      0.110800
     12 C5          1.6240    3.6030   -6.6200 c3        1 ZWI     -0.099400
     13 C6          1.9830    4.9510   -7.2140 c3        1 ZWI     -0.080400
     14 C7          1.5030    5.0520   -8.6460 c3        1 ZWI     -0.078400
     15 C8          1.8580    6.3960   -9.2450 c3        1 ZWI     -0.079400
     16 C10         1.3800    6.5000  -10.6770 c3        1 ZWI     -0.078400
     17 C9          1.7340    7.8440  -11.2770 c3        1 ZWI     -0.079400
     18 C11         1.2560    7.9490  -12.7090 c3        1 ZWI     -0.079400
     19 C12         1.6110    9.2920  -13.3110 c3        1 ZWI     -0.080400
     20 C13         1.1370    9.4010  -14.7370 c3        1 ZWI     -0.093100
     21 H11         1.9800    0.8250   -0.0810 h1        1 ZWI      0.086200
     22 H12         2.7120    2.4220   -0.4300 h1        1 ZWI      0.086200
     23 H22         1.5620    0.4590   -2.5110 hc        1 ZWI      0.053200
     24 H21         3.3160    0.5860   -2.1000 hc        1 ZWI      0.053200
     25 H31         3.6670    2.3760   -3.4170 hx        1 ZWI      0.107700
     26 H32         2.2830    3.3060   -2.6290 hx        1 ZWI      0.107700
     27 H141        1.5550    0.9750   -6.1140 hx        1 ZWI      0.103867
     28 H142        2.0910    0.1640   -4.5660 hx        1 ZWI      0.103867
     29 H143        3.2790    1.1800   -5.5240 hx        1 ZWI      0.103867
     30 H152       -0.2140    2.2520   -5.1510 hx        1 ZWI      0.103867
     31 H151        0.0400    3.1230   -3.5350 hx        1 ZWI      0.103867
     32 H153        0.0560    1.3090   -3.5950 hx        1 ZWI      0.103867
     33 H41         3.2630    3.6310   -5.2040 hx        1 ZWI      0.097200
     34 H42         1.7140    4.3960   -4.5930 hx        1 ZWI      0.097200
     35 H52         2.0810    2.7880   -7.2410 hc        1 ZWI      0.058200
     36 H51         0.5100    3.4710   -6.6500 hc        1 ZWI      0.058200
     37 H62         1.5190    5.7700   -6.6030 hc        1 ZWI      0.051700
     38 H61         3.0950    5.0970   -7.1780 hc        1 ZWI      0.051700
     39 H71         1.9650    4.2330   -9.2580 hc        1 ZWI      0.043700
     40 H72         0.3910    4.9070   -8.6820 hc        1 ZWI      0.043700
     41 H82         2.9700    6.5430   -9.2080 hc        1 ZWI      0.043700
     42 H81         1.3950    7.2150   -8.6330 hc        1 ZWI      0.043700
     43 H101        0.2680    6.3540  -10.7140 hc        1 ZWI      0.041200
     44 H102        1.8420    5.6810  -11.2890 hc        1 ZWI      0.041200
     45 H91         1.2720    8.6630  -10.6650 hc        1 ZWI      0.040700
     46 H92         2.8460    7.9910  -11.2400 hc        1 ZWI      0.040700
     47 H112        0.1450    7.8020  -12.7470 hc        1 ZWI      0.040200
     48 H111        1.7190    7.1300  -13.3210 hc        1 ZWI      0.040200
     49 H121        1.1480   10.1100  -12.6960 hc        1 ZWI      0.039200
     50 H122        2.7220    9.4380  -13.2710 hc        1 ZWI      0.039200
     51 H132        1.6060    8.6100  -15.3700 hc        1 ZWI      0.033700
     52 H133        0.0270    9.2830  -14.7940 hc        1 ZWI      0.033700
     53 H131        1.4070   10.3990  -15.1600 hc        1 ZWI      0.033700
@<TRIPOS>BOND
     1    1    2 1   
     2    2    3 1   
     3    2    4 1   
     4    2    5 1   
     5    5    6 1   
     6    5   21 1   
     7    5   22 1   
     8    6    7 1   
     9    6   23 1   
    10    6   24 1   
    11    7    8 1   
    12    7   25 1   
    13    7   26 1   
    14    8    9 1   
    15    8   10 1   
    16    8   11 1   
    17    9   27 1   
    18    9   28 1   
    19    9   29 1   
    20   10   30 1   
    21   10   31 1   
    22   10   32 1   
    23   11   12 1   
    24   11   33 1   
    25   11   34 1   
    26   12   13 1   
    27   12   35 1   
    28   12   36 1   
    29   13   14 1   
    30   13   37 1   
    31   13   38 1   
    32   14   15 1   
    33   14   39 1   
    34   14   40 1   
    35   15   16 1   
    36   15   41 1   
    37   15   42 1   
    38   16   17 1   
    39   16   43 1   
    40   16   44 1   
    41   17   18 1   
    42   17   45 1   
    43   17   46 1   
    44   18   19 1   
    45   18   47 1   
    46   18   48 1   
    47   19   20 1   
    48   19   49 1   
    49   19   50 1   
    50   20   51 1   
    51   20   52 1   
    52   20   53 1   
@<TRIPOS>SUBSTRUCTURE
     1 ZWI         1 TEMP              0 ****  ****    0 ROOT
