@<TRIPOS>MOLECULE
ZWI
   53    50     1     0     0
SMALL
bcc


@<TRIPOS>ATOM
      1 O3         -2.5400   -4.3990    7.2230 o         1 ZWI     -1.059500
      2 S1         -1.0290   -4.3990    7.2230 ss        1 ZWI      2.864000
      3 O1         -0.7350   -4.3990    8.7080 o         1 ZWI     -1.059500
      4 O2         -0.4810   -5.6380    6.5560 os        1 ZWI     -1.083000
      5 C1         -0.3790   -2.9290    6.4310 c2        1 ZWI     -0.846000
      6 C2         -0.6810   -2.9850    4.9170 c3        1 ZWI     -0.118000
      7 C3         -0.1400   -1.7010    4.2370 c3        1 ZWI     -0.137000
      8 N1         -0.4430   -1.7430    2.7980 n4        1 ZWI      0.045000
      9 C14         0.0480   -2.9830    2.2380 c3        1 ZWI     -0.205000
     10 C15        -1.8730   -1.6600    2.6030 c3        1 ZWI     -0.205000
     11 C4          0.2110   -0.6070    2.1250 c3        1 ZWI     -0.126000
     12 C5         -0.2470   -0.5490    0.6400 c3        1 ZWI     -0.178000
     13 C6          0.4270    0.6640   -0.0630 c3        1 ZWI     -0.159000
     14 C7          0.0210    0.6860   -1.5590 c3        1 ZWI     -0.157000
     15 C8          0.7110    1.8800   -2.2650 c3        1 ZWI     -0.158000
     16 C10         0.2990    1.9070   -3.7560 c3        1 ZWI     -0.157000
     17 C9          0.9540    3.1230   -4.4510 c3        1 ZWI     -0.158000
     18 C11         0.5430    3.1500   -5.9390 c3        1 ZWI     -0.158000
     19 C12         1.2230    4.3420   -6.6370 c3        1 ZWI     -0.159000
     20 C13         0.8380    4.3510   -8.1210 c3        1 ZWI     -0.211000
     21 H11        -0.8000   -2.1380    6.8170 ha        1 ZWI      0.125500
     22 H12         0.5860   -2.8850    6.5690 ha        1 ZWI      0.125500
     23 H22        -0.2460   -3.7680    4.5280 hc        1 ZWI      0.092500
     24 H21        -1.6450   -3.0460    4.7790 hc        1 ZWI      0.092500
     25 H31        -0.5650   -0.9180    4.6360 hx        1 ZWI      0.147000
     26 H32         0.8260   -1.6480    4.3640 hx        1 ZWI      0.147000
     27 H141       -0.5430   -3.7140    2.4990 hx        1 ZWI      0.143167
     28 H142        0.0690   -2.9140    1.2640 hx        1 ZWI      0.143167
     29 H143        0.9480   -3.1570    2.5720 hx        1 ZWI      0.143167
     30 H152       -2.0980   -1.9700    1.7060 hx        1 ZWI      0.143167
     31 H151       -2.3250   -2.2200    3.2640 hx        1 ZWI      0.143167
     32 H153       -2.1630   -0.7340    2.7100 hx        1 ZWI      0.143167
     33 H41        -0.0370    0.2240    2.5740 hx        1 ZWI      0.136500
     34 H42         1.1800   -0.7210    2.1620 hx        1 ZWI      0.136500
     35 H52        -1.2170   -0.4500    0.6020 hc        1 ZWI      0.097500
     36 H51         0.0140   -1.3740    0.1870 hc        1 ZWI      0.097500
     37 H62         1.3970    0.5850    0.0100 hc        1 ZWI      0.091000
     38 H61         0.1350    1.4910    0.3660 hc        1 ZWI      0.091000
     39 H71        -0.9480    0.7810   -1.6320 hc        1 ZWI      0.083000
     40 H72         0.2990   -0.1480   -1.9830 hc        1 ZWI      0.083000
     41 H82         0.4380    2.7140   -1.8360 hc        1 ZWI      0.083000
     42 H81         1.6800    1.7820   -2.1960 hc        1 ZWI      0.083000
     43 H101        0.5970    1.0850   -4.1900 hc        1 ZWI      0.080500
     44 H102       -0.6720    1.9770   -3.8240 hc        1 ZWI      0.080500
     45 H91         1.9250    3.0530   -4.3830 hc        1 ZWI      0.080000
     46 H92         0.6560    3.9450   -4.0160 hc        1 ZWI      0.080000
     47 H112       -0.4260    3.2430   -6.0070 hc        1 ZWI      0.079500
     48 H111        0.8220    2.3190   -6.3690 hc        1 ZWI      0.079500
     49 H121        2.1920    4.2600   -6.5530 hc        1 ZWI      0.078500
     50 H122        0.9300    5.1740   -6.2200 hc        1 ZWI      0.078500
     51 H132       -0.1310    4.4270   -8.2050 hc        1 ZWI      0.073000
     52 H133        1.2640    5.1110   -8.5630 hc        1 ZWI      0.073000
     53 H131        1.1370    3.5220   -8.5400 hc        1 ZWI      0.073000
@<TRIPOS>BOND
     1    1    2 1   
     2    2    3 1   
     3    5    6 1   
     4    5   21 1   
     5    5   22 1   
     6    6    7 1   
     7    6   23 1   
     8    6   24 1   
     9    7    8 1   
    10    7   25 1   
    11    7   26 1   
    12    8    9 1   
    13    8   10 1   
    14    8   11 1   
    15    9   27 1   
    16    9   28 1   
    17    9   29 1   
    18   10   30 1   
    19   10   31 1   
    20   10   32 1   
    21   11   12 1   
    22   11   33 1   
    23   11   34 1   
    24   12   13 1   
    25   12   35 1   
    26   12   36 1   
    27   13   14 1   
    28   13   37 1   
    29   13   38 1   
    30   14   15 1   
    31   14   39 1   
    32   14   40 1   
    33   15   16 1   
    34   15   41 1   
    35   15   42 1   
    36   16   17 1   
    37   16   43 1   
    38   16   44 1   
    39   17   18 1   
    40   17   45 1   
    41   17   46 1   
    42   18   19 1   
    43   18   47 1   
    44   18   48 1   
    45   19   20 1   
    46   19   49 1   
    47   19   50 1   
    48   20   51 1   
    49   20   52 1   
    50   20   53 1   
@<TRIPOS>SUBSTRUCTURE
     1 ZWI         1 TEMP              0 ****  ****    0 ROOT
