@<TRIPOS>MOLECULE
ZWZ
   28    28     1     0     0
SMALL
bcc


@<TRIPOS>ATOM
      1 OAE        -0.6680    2.4680    0.2430 oh        1 ZWZ     -0.594800
      2 CAK        -0.1720    1.2130   -0.1860 c3        1 ZWZ      0.122100
      3 CAJ         1.1860    0.9290    0.4820 c3        1 ZWZ      0.061100
      4 OAD         2.1020    1.8510   -0.0960 oh        1 ZWZ     -0.611800
      5 CAI         1.6450   -0.5100    0.2090 c3        1 ZWZ      0.078100
      6 OAC         1.8980   -0.7230   -1.1700 oh        1 ZWZ     -0.598800
      7 CAH         0.5360   -1.5000    0.6490 c3        1 ZWZ      0.180500
      8 CAA         1.0110   -2.9260    0.3850 c3        1 ZWZ     -0.089100
      9 NAG        -0.7600   -1.2270    0.0460 n3        1 ZWZ     -0.800200
     10 CAL        -1.2080    0.1420    0.2380 c3        1 ZWZ      0.125500
     11 CAF        -2.5300    0.4300   -0.5260 c3        1 ZWZ      0.162800
     12 NAB        -3.6430   -0.4230   -0.2230 n3        1 ZWZ     -0.900800
     13 HOAE       -0.0030    3.1230   -0.0100 ho        1 ZWZ      0.417000
     14 HAK        -0.0360    1.2130   -1.3040 h1        1 ZWZ      0.055700
     15 HAJ         1.1070    1.1020    1.5900 h1        1 ZWZ      0.060700
     16 HOAD        2.9130    1.8060    0.4230 ho        1 ZWZ      0.409000
     17 HAI         2.5910   -0.7200    0.7830 h1        1 ZWZ      0.040700
     18 HOAC        2.3250    0.0780   -1.5070 ho        1 ZWZ      0.416000
     19 HAH         0.4120   -1.3620    1.7660 h1        1 ZWZ      0.058700
     20 HAA         1.9500   -3.1070    0.9600 hc        1 ZWZ      0.047033
     21 HAAA        0.2410   -3.6650    0.7080 hc        1 ZWZ      0.047033
     22 HAAB        1.2250   -3.0720   -0.7010 hc        1 ZWZ      0.047033
     23 HNAG       -0.7280   -1.4490   -0.9340 hn        1 ZWZ      0.367800
     24 HAL        -1.3980    0.2790    1.3440 h1        1 ZWZ      0.069700
     25 HAF        -2.8150    1.4930   -0.2800 h1        1 ZWZ      0.063200
     26 HAFA       -2.3310    0.3700   -1.6330 h1        1 ZWZ      0.063200
     27 HNAB       -3.4550   -1.3730   -0.4790 hn        1 ZWZ      0.350800
     28 HNAA       -3.8610   -0.3940    0.7540 hn        1 ZWZ      0.350800
@<TRIPOS>BOND
     1    1    2 1   
     2    1   13 1   
     3    2    3 1   
     4    2   10 1   
     5    2   14 1   
     6    3    4 1   
     7    3    5 1   
     8    3   15 1   
     9    4   16 1   
    10    5    6 1   
    11    5    7 1   
    12    5   17 1   
    13    6   18 1   
    14    7    8 1   
    15    7    9 1   
    16    7   19 1   
    17    8   20 1   
    18    8   21 1   
    19    8   22 1   
    20    9   10 1   
    21    9   23 1   
    22   10   11 1   
    23   10   24 1   
    24   11   12 1   
    25   11   25 1   
    26   11   26 1   
    27   12   27 1   
    28   12   28 1   
@<TRIPOS>SUBSTRUCTURE
     1 ZWZ         1 TEMP              0 ****  ****    0 ROOT
