@<TRIPOS>MOLECULE
ZWZ
   28    28     1     0     0
SMALL
bcc


@<TRIPOS>ATOM
      1 OAE        -2.6160    0.6350   -0.0380 oh        1 ZWZ     -0.595800
      2 CAK        -1.2210    0.6350   -0.0380 c3        1 ZWZ      0.069100
      3 CAJ        -0.7480    0.6350    1.3760 c3        1 ZWZ      0.076100
      4 OAD        -1.1940    1.9110    2.0280 oh        1 ZWZ     -0.609800
      5 CAI         0.6510    0.5340    1.4980 c3        1 ZWZ      0.113100
      6 OAC         1.2730    1.8360    0.9890 oh        1 ZWZ     -0.604800
      7 CAH         1.2340   -0.5650    0.7650 c3        1 ZWZ      0.175500
      8 CAA         2.7700   -0.4410    0.8350 c3        1 ZWZ     -0.089100
      9 NAG         0.8280   -0.6130   -0.6640 n3        1 ZWZ     -0.795200
     10 CAL        -0.7070   -0.6290   -0.9090 c3        1 ZWZ      0.138500
     11 CAF        -0.9850   -0.4600   -2.2010 c3        1 ZWZ      0.165800
     12 NAB        -0.9570   -1.7230   -2.8630 n3        1 ZWZ     -0.918800
     13 HOAE       -2.9120   -0.0130    0.4930 ho        1 ZWZ      0.406000
     14 HAK        -0.9110    1.4540   -0.4680 h1        1 ZWZ      0.096700
     15 HAJ        -1.1590   -0.1170    1.8440 h1        1 ZWZ      0.044700
     16 HOAD       -1.6360    1.7230    2.7750 ho        1 ZWZ      0.424000
     17 HAI         0.8740    0.4300    2.4430 h1        1 ZWZ      0.055700
     18 HOAC        1.5070    2.3420    1.6800 ho        1 ZWZ      0.423000
     19 HAH         0.9680   -1.4010    1.1930 h1        1 ZWZ      0.060700
     20 HAA         3.0450   -0.3250    1.7650 hc        1 ZWZ      0.047367
     21 HAAA        3.0590    0.3300    0.3110 hc        1 ZWZ      0.047367
     22 HAAB        3.1780   -1.2510    0.4750 hc        1 ZWZ      0.047367
     23 HNAG        1.2000    0.0910   -1.1100 hn        1 ZWZ      0.366800
     24 HAL        -1.1000   -1.4590   -0.5770 h1        1 ZWZ      0.071700
     25 HAF        -0.3200    0.1320   -2.6020 h1        1 ZWZ      0.035700
     26 HAFA       -1.8710   -0.0630   -2.2950 h1        1 ZWZ      0.035700
     27 HNAB       -1.8060   -1.9650   -3.0920 hn        1 ZWZ      0.357300
     28 HNAA       -0.4450   -1.6620   -3.6150 hn        1 ZWZ      0.357300
@<TRIPOS>BOND
     1    1    2 1   
     2    1   13 1   
     3    2    3 1   
     4    2   10 1   
     5    2   14 1   
     6    3    4 1   
     7    3    5 1   
     8    3   15 1   
     9    4   16 1   
    10    5    6 1   
    11    5    7 1   
    12    5   17 1   
    13    6   18 1   
    14    7    8 1   
    15    7    9 1   
    16    7   19 1   
    17    8   20 1   
    18    8   21 1   
    19    8   22 1   
    20    9   10 1   
    21    9   23 1   
    22   10   11 1   
    23   10   24 1   
    24   11   12 1   
    25   11   25 1   
    26   11   26 1   
    27   12   27 1   
    28   12   28 1   
@<TRIPOS>SUBSTRUCTURE
     1 ZWZ         1 TEMP              0 ****  ****    0 ROOT
