@<TRIPOS>MOLECULE
ZWZ
   29    29     1     0     0
SMALL
bcc


@<TRIPOS>ATOM
      1 OAE        -0.1930   -0.8750    0.7220 oh        1 ZWZ     -0.596800
      2 CAK         1.0410   -0.3510    0.2670 c3        1 ZWZ      0.129100
      3 CAJ         1.9270    0.0430    1.4640 c3        1 ZWZ      0.067100
      4 OAD         1.5920    1.3930    1.7480 oh        1 ZWZ     -0.600800
      5 CAI         3.4180   -0.0470    1.1050 c3        1 ZWZ      0.095100
      6 OAC         3.7150    0.8180    0.0200 oh        1 ZWZ     -0.620800
      7 CAH         3.7950   -1.4940    0.7090 c3        1 ZWZ      0.168500
      8 CAA         5.0980   -1.4810   -0.0910 c3        1 ZWZ     -0.092100
      9 NAG         2.7390   -2.2450    0.0340 n3        1 ZWZ     -0.858200
     10 CAL         1.6710   -1.4880   -0.5830 c3        1 ZWZ      0.167500
     11 CAF         2.1130   -0.8560   -1.9300 c3        1 ZWZ      0.088800
     12 NAB         2.8960   -1.8040   -2.7710 n4        1 ZWZ     -0.826600
     13 HOAE       -0.6350   -0.1700    1.2160 ho        1 ZWZ      0.437000
     14 HAK         0.8600    0.5650   -0.3640 h1        1 ZWZ      0.070700
     15 HAJ         1.7020   -0.6220    2.3430 h1        1 ZWZ      0.075700
     16 HOAD        1.8750    1.5780    2.6530 ho        1 ZWZ      0.427000
     17 HAI         4.0400    0.2580    1.9940 h1        1 ZWZ      0.068700
     18 HOAC        3.4340    1.7050    0.2900 ho        1 ZWZ      0.436000
     19 HAH         4.0160   -2.0330    1.6830 h1        1 ZWZ      0.075700
     20 HAA         5.0050   -0.8580   -1.0130 hc        1 ZWZ      0.048700
     21 HAAA        5.4050   -2.5170   -0.3700 hc        1 ZWZ      0.048700
     22 HAAB        5.8980   -1.0280    0.5440 hc        1 ZWZ      0.048700
     23 HNAG        2.3440   -2.9220    0.6620 hn        1 ZWZ      0.404800
     24 HAL         0.8350   -2.2250   -0.8070 h1        1 ZWZ      0.100700
     25 HAF         1.1930   -0.5480   -2.5020 hx        1 ZWZ      0.125200
     26 HAFA        2.7630    0.0500   -1.7340 hx        1 ZWZ      0.125200
     27 HNAB        3.0800   -1.3920   -3.6880 hn        1 ZWZ      0.462467
     28 HNAA        2.3800   -2.6810   -2.8850 hn        1 ZWZ      0.462467
     29 HAB3        3.7910   -2.0140   -2.3040 hn        1 ZWZ      0.462467
@<TRIPOS>BOND
     1    1    2 1   
     2    1   13 1   
     3    2    3 1   
     4    2   10 1   
     5    2   14 1   
     6    3    4 1   
     7    3    5 1   
     8    3   15 1   
     9    4   16 1   
    10    5    6 1   
    11    5    7 1   
    12    5   17 1   
    13    6   18 1   
    14    7    8 1   
    15    7    9 1   
    16    7   19 1   
    17    8   20 1   
    18    8   21 1   
    19    8   22 1   
    20    9   10 1   
    21    9   23 1   
    22   10   11 1   
    23   10   24 1   
    24   11   12 1   
    25   11   25 1   
    26   11   26 1   
    27   12   27 1   
    28   12   28 1   
    29   12   29 1   
@<TRIPOS>SUBSTRUCTURE
     1 ZWZ         1 TEMP              0 ****  ****    0 ROOT
