@<TRIPOS>MOLECULE
ZWZ
   29    29     1     0     0
SMALL
bcc


@<TRIPOS>ATOM
      1 OAE        -0.2140   -0.8660    0.6480 oh        1 ZWZ     -0.596800
      2 CAK         1.0380   -0.3440    0.2430 c3        1 ZWZ      0.129100
      3 CAJ         1.8990   -0.0030    1.4740 c3        1 ZWZ      0.067100
      4 OAD         1.5740    1.3400    1.7980 oh        1 ZWZ     -0.600800
      5 CAI         3.3970   -0.1010    1.1490 c3        1 ZWZ      0.095100
      6 OAC         3.7320    0.7980    0.1020 oh        1 ZWZ     -0.620800
      7 CAH         3.7660   -1.5370    0.7110 c3        1 ZWZ      0.168500
      8 CAA         5.0880   -1.5140   -0.0570 c3        1 ZWZ     -0.092100
      9 NAG         2.7170   -2.2500   -0.0160 n7        1 ZWZ     -0.858200
     10 CAL         1.6740   -1.4580   -0.6310 c3        1 ZWZ      0.167500
     11 CAF         2.1570   -0.7850   -1.9440 c3        1 ZWZ      0.088800
     12 NAB         2.9480   -1.7140   -2.7980 nz        1 ZWZ     -0.826600
     13 HOAE       -0.6590   -0.1730    1.1570 ho        1 ZWZ      0.437000
     14 HAK         0.8840    0.5970   -0.3590 h1        1 ZWZ      0.070700
     15 HAJ         1.6440   -0.6960    2.3230 h1        1 ZWZ      0.075700
     16 HOAD        1.8360    1.4900    2.7150 ho        1 ZWZ      0.427000
     17 HAI         4.0010    0.1650    2.0620 h1        1 ZWZ      0.068700
     18 HOAC        3.4550    1.6790    0.3960 ho        1 ZWZ      0.436000
     19 HAH         3.9560   -2.1130    1.6700 h1        1 ZWZ      0.075700
     20 HAA         5.8780   -1.0940    0.6130 hc        1 ZWZ      0.048700
     21 HAAA        5.3890   -2.5440   -0.3650 hc        1 ZWZ      0.048700
     22 HAAB        5.0250   -0.8580   -0.9580 hc        1 ZWZ      0.048700
     23 HNAG        2.2980   -2.9430    0.5790 hn        1 ZWZ      0.404800
     24 HAL         0.8350   -2.1760   -0.9010 h1        1 ZWZ      0.100700
     25 HAF         2.8140    0.1050   -1.7010 hx        1 ZWZ      0.125200
     26 HAFA        1.2550   -0.4460   -2.5270 hx        1 ZWZ      0.125200
     27 HNAB        3.8290   -1.9520   -2.3170 hn        1 ZWZ      0.462467
     28 HNAA        2.4250   -2.5800   -2.9560 hn        1 ZWZ      0.462467
     29 HAB3        3.1600   -1.2730   -3.6960 hn        1 ZWZ      0.462467
@<TRIPOS>BOND
     1    1    2 1   
     2    1   13 1   
     3    2    3 1   
     4    2   10 1   
     5    2   14 1   
     6    3    4 1   
     7    3    5 1   
     8    3   15 1   
     9    4   16 1   
    10    5    6 1   
    11    5    7 1   
    12    5   17 1   
    13    6   18 1   
    14    7    8 1   
    15    7    9 1   
    16    7   19 1   
    17    8   20 1   
    18    8   21 1   
    19    8   22 1   
    20    9   10 1   
    21    9   23 1   
    22   10   11 1   
    23   10   24 1   
    24   11   12 1   
    25   11   25 1   
    26   11   26 1   
    27   12   27 1   
    28   12   28 1   
    29   12   29 1   
@<TRIPOS>SUBSTRUCTURE
     1 ZWZ         1 TEMP              0 ****  ****    0 ROOT
