@<TRIPOS>MOLECULE
ZX0
   45    45     1     0     0
SMALL
bcc


@<TRIPOS>ATOM
      1 S1          0.9720    0.3030    0.1240 s4        1 ZX0      1.813000
      2 O2          1.9750   -0.3040   -0.5700 o         1 ZX0     -0.587067
      3 O3          0.8020   -0.0120    1.4360 o         1 ZX0     -0.587067
      4 O4          0.3550    1.3920   -0.4010 o         1 ZX0     -0.706867
      5 N5         -0.6720   -1.2630   -0.6800 n3        1 ZX0     -0.981800
      6 C6         -0.6220   -2.5420    0.0110 c3        1 ZX0      0.163500
      7 C7          0.7460   -3.2550   -0.1250 c3        1 ZX0     -0.104400
      8 C8          0.4610   -4.6060   -0.7910 c3        1 ZX0      0.039000
      9 N9         -0.9600   -4.8810   -0.5920 n         1 ZX0     -0.361800
     10 C10        -1.6820   -3.6010   -0.4330 c3        1 ZX0     -0.106300
     11 C11        -2.4830   -3.2030   -1.7200 c         1 ZX0      0.909600
     12 O12        -3.0670   -2.1020   -1.7460 o         1 ZX0     -0.792300
     13 C13        -1.6520   -5.8050   -1.3990 c         1 ZX0      0.686100
     14 O14        -2.6700   -6.4120   -1.0700 o         1 ZX0     -0.488100
     15 N15        -1.0180   -6.2760   -2.7350 n4        1 ZX0     -0.688800
     16 C16        -1.5540   -7.5850   -3.2320 c3        1 ZX0      0.129500
     17 C17        -1.2650   -7.7500   -4.7320 c3        1 ZX0     -0.096400
     18 C18        -2.2360   -8.7180   -5.3730 c3        1 ZX0     -0.112400
     19 C19        -1.8280  -10.1880   -5.2760 c3        1 ZX0      0.157800
     20 N20        -1.1330  -10.6320   -4.0930 n3        1 ZX0     -0.817200
     21 C21        -1.5910  -10.0920   -2.8380 c3        1 ZX0      0.169800
     22 C22        -0.9980   -8.7470   -2.4080 c3        1 ZX0     -0.137400
     23 OX0        -2.4980   -4.0610   -2.6630 o         1 ZX0     -0.792300
     24 H5         -1.6020   -0.8730   -0.5890 hn        1 ZX0      0.404800
     25 H6         -0.8010   -2.3120    1.1040 h1        1 ZX0      0.095700
     26 H71C        1.4870   -2.6700   -0.7270 hc        1 ZX0      0.086700
     27 H72C        1.1810   -3.4090    0.8940 hc        1 ZX0      0.086700
     28 H10        -2.4370   -3.7520    0.3880 h1        1 ZX0      0.108700
     29 H81C        1.0480   -5.4330   -0.3080 h1        1 ZX0      0.043700
     30 H82C        0.7610   -4.5360   -1.8740 h1        1 ZX0      0.043700
     31 H15        -1.2780   -5.5260   -3.4050 hn        1 ZX0      0.456800
     32 H16        -2.6790   -7.5370   -3.0780 hx        1 ZX0      0.133700
     33 H171       -1.3730   -6.7600   -5.2560 hc        1 ZX0      0.057200
     34 H172       -0.2090   -8.0940   -4.8830 hc        1 ZX0      0.057200
     35 H221        0.1210   -8.7810   -2.4870 hc        1 ZX0      0.061200
     36 H222       -1.2650   -8.5890   -1.3280 hc        1 ZX0      0.061200
     37 H181       -3.2550   -8.5840   -4.9200 hc        1 ZX0      0.061700
     38 H182       -2.3310   -8.4600   -6.4620 hc        1 ZX0      0.061700
     39 H191       -2.7700  -10.8060   -5.3540 h1        1 ZX0      0.058200
     40 H192       -1.1850  -10.4450   -6.1660 h1        1 ZX0      0.058200
     41 H20        -0.1420  -10.5050   -4.1890 hn        1 ZX0      0.359800
     42 H211       -1.3100  -10.8450   -2.0440 h1        1 ZX0      0.068700
     43 H212       -2.7140  -10.0110   -2.8550 h1        1 ZX0      0.068700
     44 H52        -0.5030   -1.3920   -1.6640 hn        1 ZX0      0.404800
     45 H152       -0.0050   -6.3320   -2.6620 hn        1 ZX0      0.456800
@<TRIPOS>BOND
     1    1    2 1   
     2    1    3 1   
     3    1    4 2   
     4    5    6 1   
     5    5   24 1   
     6    5   44 1   
     7    6    7 1   
     8    6   10 1   
     9    6   25 1   
    10    7    8 1   
    11    7   26 1   
    12    7   27 1   
    13    8    9 1   
    14    8   29 1   
    15    8   30 1   
    16    9   10 1   
    17    9   13 1   
    18   10   11 1   
    19   10   28 1   
    20   11   12 1   
    21   11   23 1   
    22   13   14 2   
    23   13   15 1   
    24   15   16 1   
    25   15   31 1   
    26   15   45 1   
    27   16   17 1   
    28   16   22 1   
    29   16   32 1   
    30   17   18 1   
    31   17   33 1   
    32   17   34 1   
    33   18   19 1   
    34   18   37 1   
    35   18   38 1   
    36   19   20 1   
    37   19   39 1   
    38   19   40 1   
    39   20   21 1   
    40   20   41 1   
    41   21   22 1   
    42   21   42 1   
    43   21   43 1   
    44   22   35 1   
    45   22   36 1   
@<TRIPOS>SUBSTRUCTURE
     1 ZX0         1 TEMP              0 ****  ****    0 ROOT
