@<TRIPOS>MOLECULE
ZX0
   45    45     1     0     0
SMALL
bcc


@<TRIPOS>ATOM
      1 S1          0.9150    0.3200    0.1270 s4        1 ZX0      1.813000
      2 O2          1.9170   -0.2670   -0.5880 o         1 ZX0     -0.587067
      3 O3          0.7720   -0.0040    1.4390 o         1 ZX0     -0.587067
      4 O4          0.2720    1.4010   -0.3830 o         1 ZX0     -0.706867
      5 N5         -0.7160   -1.2690   -0.6600 n8        1 ZX0     -0.981800
      6 C6         -0.6330   -2.5500    0.0230 c3        1 ZX0      0.163500
      7 C7          0.7430   -3.2400   -0.1380 c3        1 ZX0     -0.104400
      8 C8          0.4690   -4.5920   -0.8080 c3        1 ZX0      0.039000
      9 N9         -0.9430   -4.8910   -0.5870 n         1 ZX0     -0.361800
     10 C10        -1.6830   -3.6240   -0.4090 c3        1 ZX0     -0.106300
     11 C11        -2.5120   -3.2320   -1.6800 c         1 ZX0      0.909600
     12 O12        -3.1150   -2.1400   -1.6910 o         1 ZX0     -0.792300
     13 C13        -1.6340   -5.8220   -1.3880 c         1 ZX0      0.686100
     14 O14        -2.6360   -6.4470   -1.0460 o         1 ZX0     -0.488100
     15 N15        -1.0140   -6.2750   -2.7370 ny        1 ZX0     -0.688800
     16 C16        -1.5370   -7.5900   -3.2330 c3        1 ZX0      0.129500
     17 C17        -1.2700   -7.7410   -4.7390 c3        1 ZX0     -0.096400
     18 C18        -2.2360   -8.7210   -5.3690 c3        1 ZX0     -0.112400
     19 C19        -1.8040  -10.1850   -5.2880 c3        1 ZX0      0.157800
     20 N20        -1.0810  -10.6250   -4.1190 n7        1 ZX0     -0.817200
     21 C21        -1.5270  -10.0990   -2.8540 c3        1 ZX0      0.169800
     22 C22        -0.9490   -8.7480   -2.4250 c3        1 ZX0     -0.137400
     23 OX0        -2.5290   -4.0850   -2.6280 o         1 ZX0     -0.792300
     24 H5         -0.5610   -1.3890   -1.6470 hn        1 ZX0      0.404800
     25 H6         -0.7990   -2.3290    1.1210 h1        1 ZX0      0.095700
     26 H71C        1.4640   -2.6390   -0.7490 hc        1 ZX0      0.086700
     27 H72C        1.1970   -3.3930    0.8730 hc        1 ZX0      0.086700
     28 H10        -2.4220   -3.7920    0.4230 h1        1 ZX0      0.108700
     29 H81C        1.0780   -5.4110   -0.3390 h1        1 ZX0      0.043700
     30 H82C        0.7510   -4.5110   -1.8950 h1        1 ZX0      0.043700
     31 H15         0.0010   -6.3160   -2.6810 hn        1 ZX0      0.456800
     32 H16        -2.6600   -7.5610   -3.0600 hx        1 ZX0      0.133700
     33 H171       -0.2110   -8.0680   -4.9080 hc        1 ZX0      0.057200
     34 H172       -1.4030   -6.7500   -5.2540 hc        1 ZX0      0.057200
     35 H221        0.1690   -8.7630   -2.5230 hc        1 ZX0      0.061200
     36 H222       -1.2010   -8.6000   -1.3400 hc        1 ZX0      0.061200
     37 H181       -2.3530   -8.4590   -6.4550 hc        1 ZX0      0.061700
     38 H182       -3.2490   -8.6060   -4.8990 hc        1 ZX0      0.061700
     39 H191       -1.1710  -10.4270   -6.1900 h1        1 ZX0      0.058200
     40 H192       -2.7360  -10.8180   -5.3530 h1        1 ZX0      0.058200
     41 H20        -0.0950  -10.4810   -4.2310 hn        1 ZX0      0.359800
     42 H211       -1.2220  -10.8520   -2.0690 h1        1 ZX0      0.068700
     43 H212       -2.6520  -10.0360   -2.8510 h1        1 ZX0      0.068700
     44 H52        -1.6510   -0.8940   -0.5510 hn        1 ZX0      0.404800
     45 H152       -1.2970   -5.5250   -3.3980 hn        1 ZX0      0.456800
@<TRIPOS>BOND
     1    1    2 1   
     2    1    3 1   
     3    1    4 2   
     4    5    6 1   
     5    5   24 1   
     6    5   44 1   
     7    6    7 1   
     8    6   10 1   
     9    6   25 1   
    10    7    8 1   
    11    7   26 1   
    12    7   27 1   
    13    8    9 1   
    14    8   29 1   
    15    8   30 1   
    16    9   10 1   
    17    9   13 1   
    18   10   11 1   
    19   10   28 1   
    20   11   12 1   
    21   11   23 1   
    22   13   14 2   
    23   13   15 1   
    24   15   16 1   
    25   15   31 1   
    26   15   45 1   
    27   16   17 1   
    28   16   22 1   
    29   16   32 1   
    30   17   18 1   
    31   17   33 1   
    32   17   34 1   
    33   18   19 1   
    34   18   37 1   
    35   18   38 1   
    36   19   20 1   
    37   19   39 1   
    38   19   40 1   
    39   20   21 1   
    40   20   41 1   
    41   21   22 1   
    42   21   42 1   
    43   21   43 1   
    44   22   35 1   
    45   22   36 1   
@<TRIPOS>SUBSTRUCTURE
     1 ZX0         1 TEMP              0 ****  ****    0 ROOT
