@<TRIPOS>MOLECULE
ZX0
   43    44     1     0     0
SMALL
bcc


@<TRIPOS>ATOM
      1 S1         -4.8020   -0.3680    0.5400 s6        1 ZX0      1.528700
      2 O2         -5.0550   -1.5810   -0.1820 o         1 ZX0     -0.762867
      3 O3         -5.2900    0.7590   -0.1970 o         1 ZX0     -0.762867
      4 O4         -5.3480   -0.4230    1.8640 o         1 ZX0     -0.762867
      5 N5         -3.1490   -0.2020    0.7200 n3        1 ZX0     -0.914100
      6 C6         -2.2630   -0.0070   -0.3680 c3        1 ZX0      0.288500
      7 C7         -1.8890   -1.2860   -1.1700 c3        1 ZX0     -0.116400
      8 C8         -0.4870   -1.0200   -1.7360 c3        1 ZX0      0.064000
      9 N9         -0.0280    0.2660   -1.2150 n         1 ZX0     -0.401800
     10 C10        -0.8600    0.6230   -0.0460 c3        1 ZX0     -0.058300
     11 C11        -0.2940    0.1750    1.3310 c         1 ZX0      0.902600
     12 O12         0.6460   -0.6810    1.3710 o         1 ZX0     -0.851300
     13 C13         1.3750    0.4990   -1.0520 c         1 ZX0      0.757100
     14 O14         1.8110    1.6670   -1.1860 o         1 ZX0     -0.645100
     15 N15         2.2940   -0.5830   -0.8990 n         1 ZX0     -0.528900
     16 C16         3.6270   -0.2480   -0.4130 c3        1 ZX0      0.082700
     17 C17         3.7630   -0.4400    1.1100 c3        1 ZX0     -0.124400
     18 C18         4.8990    0.3540    1.7060 c3        1 ZX0     -0.102400
     19 C19         6.2620    0.0150    1.1040 c3        1 ZX0      0.156800
     20 N20         6.5060    0.4840   -0.2450 n3        1 ZX0     -0.820200
     21 C21         6.0290   -0.3810   -1.3020 c3        1 ZX0      0.162800
     22 C22         4.6910   -1.0980   -1.1340 c3        1 ZX0     -0.108400
     23 OX0        -0.7710    0.7140    2.3650 o         1 ZX0     -0.851300
     24 H5         -2.7170   -0.1870    1.6140 hn        1 ZX0      0.447800
     25 H6         -2.7760    0.6960   -1.0990 h1        1 ZX0      0.034700
     26 H71C       -1.8730   -2.1840   -0.5060 hc        1 ZX0      0.050700
     27 H72C       -2.6300   -1.4670   -1.9830 hc        1 ZX0      0.050700
     28 H10        -0.9450    1.7440   -0.0300 h1        1 ZX0      0.071700
     29 H81C        0.1780   -1.8900   -1.4870 h1        1 ZX0      0.015700
     30 H82C       -0.5140   -0.9270   -2.8570 h1        1 ZX0      0.015700
     31 H15         1.8890   -1.3360   -0.3650 hn        1 ZX0      0.312500
     32 H16         3.8180    0.8410   -0.6550 h1        1 ZX0      0.071700
     33 H171        2.7940   -0.1310    1.6080 hc        1 ZX0      0.080700
     34 H172        3.9020   -1.5290    1.3390 hc        1 ZX0      0.080700
     35 H221        4.8490   -2.0510   -0.5640 hc        1 ZX0      0.040200
     36 H222        4.3350   -1.3850   -2.1580 hc        1 ZX0      0.040200
     37 H181        4.6920    1.4500    1.5880 hc        1 ZX0      0.040200
     38 H182        4.9440    0.1430    2.8070 hc        1 ZX0      0.040200
     39 H191        7.0600    0.4870    1.7480 h1        1 ZX0      0.031700
     40 H192        6.4110   -1.1000    1.1390 h1        1 ZX0      0.031700
     41 H20         6.0950    1.3970   -0.3490 hn        1 ZX0      0.353800
     42 H211        5.9860    0.2360   -2.2460 h1        1 ZX0      0.029200
     43 H212        6.8210   -1.1710   -1.4540 h1        1 ZX0      0.029200
@<TRIPOS>BOND
     1    1    2 1   
     2    1    3 1   
     3    1    4 1   
     4    1    5 1   
     5    5    6 1   
     6    5   24 1   
     7    6    7 1   
     8    6   10 1   
     9    6   25 1   
    10    7    8 1   
    11    7   26 1   
    12    7   27 1   
    13    8    9 1   
    14    8   29 1   
    15    8   30 1   
    16    9   10 1   
    17    9   13 1   
    18   10   11 1   
    19   10   28 1   
    20   11   12 1   
    21   11   23 1   
    22   13   14 2   
    23   13   15 1   
    24   15   16 1   
    25   15   31 1   
    26   16   17 1   
    27   16   22 1   
    28   16   32 1   
    29   17   18 1   
    30   17   33 1   
    31   17   34 1   
    32   18   19 1   
    33   18   37 1   
    34   18   38 1   
    35   19   20 1   
    36   19   39 1   
    37   19   40 1   
    38   20   21 1   
    39   20   41 1   
    40   21   22 1   
    41   21   42 1   
    42   21   43 1   
    43   22   35 1   
    44   22   36 1   
@<TRIPOS>SUBSTRUCTURE
     1 ZX0         1 TEMP              0 ****  ****    0 ROOT
