@<TRIPOS>MOLECULE
ZX0
   43    42     1     0     0
SMALL
bcc


@<TRIPOS>ATOM
      1 S1         -0.1410   -4.8050    3.4330 ss        1 ZX0      2.832000
      2 O2          0.7800   -5.2250    2.3130 os        1 ZX0     -1.085000
      3 O3          0.5320   -4.9420    4.7780 o         1 ZX0     -1.084500
      4 O4         -1.2960   -5.7670    3.5840 o         1 ZX0     -1.084500
      5 N5         -0.6730   -3.2700    3.1870 n2        1 ZX0     -0.881000
      6 C6          0.2660   -2.2290    2.7360 c3        1 ZX0      0.093000
      7 C7          0.3090   -1.0400    3.8030 c3        1 ZX0     -0.200000
      8 C8          0.7470   -0.0360    3.2170 c3        1 ZX0     -0.019000
      9 N9          0.3660   -0.1950    1.7760 n         1 ZX0     -0.286000
     10 C10        -0.1470   -1.7200    1.5870 c3        1 ZX0     -0.077000
     11 C11        -1.6530   -1.8640    1.3240 c2        1 ZX0      0.320000
     12 O12        -2.4640   -1.0590    1.8520 o         1 ZX0     -0.577500
     13 C13         0.4400    0.8010    0.7680 c2        1 ZX0      0.371000
     14 O14         0.8460    1.9130    1.0420 o         1 ZX0     -0.474000
     15 N15         0.0580    0.4930   -0.5630 n         1 ZX0     -0.335000
     16 C16         0.1500    1.4880   -1.5780 c3        1 ZX0      0.019000
     17 C17         1.2240    1.0890   -2.5700 c3        1 ZX0     -0.158000
     18 C18         0.9200    1.6430   -3.9440 c3        1 ZX0     -0.187000
     19 C19         0.8960    3.1540   -3.9230 c3        1 ZX0     -0.075000
     20 N20        -0.0460    3.6310   -2.9720 n3        1 ZX0     -0.292000
     21 C21        -1.2690    2.9120   -3.0610 c3        1 ZX0     -0.080000
     22 C22        -1.1980    1.6240   -2.2660 c3        1 ZX0     -0.229000
     23 OX0        -2.0750   -2.7800    0.5710 o         1 ZX0     -0.577500
     24 H5         -1.5500   -3.0640    3.3260 hn        1 ZX0      0.239000
     25 H6          1.1600   -2.6110    2.6280 h1        1 ZX0      0.082000
     26 H71C        0.9030   -1.2790    4.5460 hc        1 ZX0      0.090500
     27 H72C       -0.5940   -0.8630    4.1410 hc        1 ZX0      0.090500
     28 H10         0.2460   -2.1620    0.8070 h1        1 ZX0      0.094000
     29 H81C        1.7220    0.0080    3.3050 h1        1 ZX0      0.065000
     30 H82C        0.3380    0.7750    3.5860 h1        1 ZX0      0.065000
     31 H15        -0.2560   -0.3380   -0.7670 hn        1 ZX0      0.249000
     32 H16         0.3900    2.3420   -1.1700 h1        1 ZX0      0.102000
     33 H171        1.2700    0.1130   -2.6190 hc        1 ZX0      0.078500
     34 H172        2.0870    1.4370   -2.2660 hc        1 ZX0      0.078500
     35 H221       -1.3290    0.8660   -2.8690 hc        1 ZX0      0.124500
     36 H222       -1.9050    1.6240   -1.5900 hc        1 ZX0      0.124500
     37 H181        0.0490    1.3110   -4.2390 hc        1 ZX0      0.072500
     38 H182        1.6080    1.3410   -4.5710 hc        1 ZX0      0.072500
     39 H191        1.7870    3.4870   -3.6880 h1        1 ZX0      0.066500
     40 H192        0.6520    3.4850   -4.8120 h1        1 ZX0      0.066500
     41 H20         0.2990    3.5420   -2.1310 hn        1 ZX0      0.145000
     42 H211       -1.4500    2.7010   -4.0000 h1        1 ZX0      0.080500
     43 H212       -1.9960    3.4670   -2.7100 h1        1 ZX0      0.080500
@<TRIPOS>BOND
     1    1    3 1   
     2    1    4 1   
     3    5    6 1   
     4    5   24 1   
     5    6    7 1   
     6    6   10 1   
     7    6   25 1   
     8    7    8 1   
     9    7   26 1   
    10    7   27 1   
    11    8    9 1   
    12    8   29 1   
    13    8   30 1   
    14    9   10 1   
    15    9   13 1   
    16   10   11 1   
    17   10   28 1   
    18   11   12 1   
    19   11   23 1   
    20   13   14 1   
    21   13   15 1   
    22   15   16 1   
    23   15   31 1   
    24   16   17 1   
    25   16   22 1   
    26   16   32 1   
    27   17   18 1   
    28   17   33 1   
    29   17   34 1   
    30   18   19 1   
    31   18   37 1   
    32   18   38 1   
    33   19   20 1   
    34   19   39 1   
    35   19   40 1   
    36   20   21 1   
    37   20   41 1   
    38   21   22 1   
    39   21   42 1   
    40   21   43 1   
    41   22   35 1   
    42   22   36 1   
@<TRIPOS>SUBSTRUCTURE
     1 ZX0         1 TEMP              0 ****  ****    0 ROOT
