@<TRIPOS>MOLECULE
ZX1
   45    45     1     0     0
SMALL
bcc


@<TRIPOS>ATOM
      1 S1          0.8580    0.3170    0.0510 s4        1 ZX1      1.813000
      2 O2          1.8790   -0.2360   -0.6630 o         1 ZX1     -0.587400
      3 O3          0.7350   -0.0010    1.3670 o         1 ZX1     -0.587400
      4 O4          0.1720    1.3680   -0.4640 o         1 ZX1     -0.707200
      5 N5         -0.7120   -1.3400   -0.7150 n3        1 ZX1     -0.981800
      6 C6         -0.5810   -2.6100   -0.0190 c3        1 ZX1      0.163500
      7 C7          0.8200   -3.2500   -0.1760 c3        1 ZX1     -0.104400
      8 C8          0.5970   -4.6260   -0.8140 c3        1 ZX1      0.039000
      9 N9         -0.8070   -4.9680   -0.6030 n         1 ZX1     -0.363800
     10 C10        -1.5910   -3.7260   -0.4400 c3        1 ZX1     -0.105300
     11 C11        -2.4320   -3.3710   -1.7130 c         1 ZX1      0.907600
     12 O12        -3.0910   -2.3120   -1.7190 o         1 ZX1     -0.796800
     13 C13        -1.4530   -5.9290   -1.4090 c         1 ZX1      0.682100
     14 O14        -2.4290   -6.5950   -1.0690 o         1 ZX1     -0.481100
     15 N15        -0.8000   -6.3460   -2.7510 n4        1 ZX1     -0.687800
     16 C16        -1.4880   -7.5060   -3.4190 c3        1 ZX1      0.148500
     17 C17        -0.5510   -8.1550   -4.4470 c3        1 ZX1     -0.097400
     18 C18        -1.0080   -9.5460   -4.8240 c3        1 ZX1     -0.076400
     19 C19        -2.4250   -9.5970   -5.3980 c3        1 ZX1      0.170800
     20 N20        -3.4470   -9.4720   -4.3850 n3        1 ZX1     -0.849200
     21 C21        -3.8660   -8.1330   -4.0350 c3        1 ZX1      0.171800
     22 C22        -2.7930   -7.0510   -4.0850 c3        1 ZX1     -0.106400
     23 OX0        -2.3960   -4.2150   -2.6680 o         1 ZX1     -0.796800
     24 H5         -1.6600   -0.9990   -0.6080 hn        1 ZX1      0.404800
     25 H6         -0.7540   -2.3850    1.0760 h1        1 ZX1      0.095700
     26 H71C        1.5140   -2.6340   -0.8040 hc        1 ZX1      0.085700
     27 H72C        1.2860   -3.3620    0.8350 hc        1 ZX1      0.085700
     28 H10        -2.3240   -3.9120    0.3950 h1        1 ZX1      0.107700
     29 H81C        0.8920   -4.5670   -1.8990 h1        1 ZX1      0.043200
     30 H82C        1.2240   -5.4130   -0.3150 h1        1 ZX1      0.043200
     31 H15        -0.8980   -5.5110   -3.3540 hn        1 ZX1      0.450800
     32 H16        -1.7280   -8.2520   -2.6010 hx        1 ZX1      0.122700
     33 H171       -0.4990   -7.5110   -5.3660 hc        1 ZX1      0.047200
     34 H172        0.4920   -8.2370   -4.0350 hc        1 ZX1      0.047200
     35 H221       -3.2160   -6.1440   -3.5600 hc        1 ZX1      0.090200
     36 H222       -2.5870   -6.7540   -5.1460 hc        1 ZX1      0.090200
     37 H181       -0.3080   -9.9420   -5.6080 hc        1 ZX1      0.057700
     38 H182       -0.9330  -10.2220   -3.9320 hc        1 ZX1      0.057700
     39 H191       -2.5140   -8.8090   -6.2030 h1        1 ZX1      0.035700
     40 H192       -2.5460  -10.6020   -5.8980 h1        1 ZX1      0.035700
     41 H20        -4.2470  -10.0270   -4.6180 hn        1 ZX1      0.377800
     42 H211       -4.2610   -8.1960   -2.9780 h1        1 ZX1      0.049200
     43 H212       -4.7140   -7.7730   -4.6920 h1        1 ZX1      0.049200
     44 H52        -0.5540   -1.4640   -1.7010 hn        1 ZX1      0.404800
     45 H152        0.1840   -6.5650   -2.6150 hn        1 ZX1      0.450800
@<TRIPOS>BOND
     1    1    2 1   
     2    1    3 1   
     3    1    4 2   
     4    5    6 1   
     5    5   24 1   
     6    5   44 1   
     7    6    7 1   
     8    6   10 1   
     9    6   25 1   
    10    7    8 1   
    11    7   26 1   
    12    7   27 1   
    13    8    9 1   
    14    8   29 1   
    15    8   30 1   
    16    9   10 1   
    17    9   13 1   
    18   10   11 1   
    19   10   28 1   
    20   11   12 1   
    21   11   23 1   
    22   13   14 2   
    23   13   15 1   
    24   15   16 1   
    25   15   31 1   
    26   15   45 1   
    27   16   17 1   
    28   16   22 1   
    29   16   32 1   
    30   17   18 1   
    31   17   33 1   
    32   17   34 1   
    33   18   19 1   
    34   18   37 1   
    35   18   38 1   
    36   19   20 1   
    37   19   39 1   
    38   19   40 1   
    39   20   21 1   
    40   20   41 1   
    41   21   22 1   
    42   21   42 1   
    43   21   43 1   
    44   22   35 1   
    45   22   36 1   
@<TRIPOS>SUBSTRUCTURE
     1 ZX1         1 TEMP              0 ****  ****    0 ROOT
