@<TRIPOS>MOLECULE
ZX1
   45    45     1     0     0
SMALL
bcc


@<TRIPOS>ATOM
      1 S1          0.8140    0.3440    0.0240 s4        1 ZX1      1.813000
      2 O2          1.8340   -0.1960   -0.7010 o         1 ZX1     -0.587400
      3 O3          0.7080    0.0250    1.3420 o         1 ZX1     -0.587400
      4 O4          0.1080    1.3860   -0.4840 o         1 ZX1     -0.707200
      5 N5         -0.7440   -1.3330   -0.7240 n8        1 ZX1     -0.981800
      6 C6         -0.5890   -2.6010   -0.0290 c3        1 ZX1      0.163500
      7 C7          0.8180   -3.2230   -0.2000 c3        1 ZX1     -0.104400
      8 C8          0.6050   -4.6020   -0.8340 c3        1 ZX1      0.039000
      9 N9         -0.7920   -4.9620   -0.6080 n         1 ZX1     -0.363800
     10 C10        -1.5900   -3.7300   -0.4380 c3        1 ZX1     -0.105300
     11 C11        -2.4480   -3.3860   -1.7020 c         1 ZX1      0.907600
     12 O12        -3.1210   -2.3360   -1.7030 o         1 ZX1     -0.796800
     13 C13        -1.4340   -5.9310   -1.4060 c         1 ZX1      0.682100
     14 O14        -2.3980   -6.6100   -1.0540 o         1 ZX1     -0.481100
     15 N15        -0.7910   -6.3430   -2.7540 ny        1 ZX1     -0.687800
     16 C16        -1.4710   -7.5120   -3.4140 c3        1 ZX1      0.148500
     17 C17        -0.5360   -8.1500   -4.4510 c3        1 ZX1     -0.097400
     18 C18        -0.9800   -9.5480   -4.8210 c3        1 ZX1     -0.076400
     19 C19        -2.4020   -9.6170   -5.3810 c3        1 ZX1      0.170800
     20 N20        -3.4150   -9.5030   -4.3560 n7        1 ZX1     -0.849200
     21 C21        -3.8470   -8.1680   -4.0050 c3        1 ZX1      0.171800
     22 C22        -2.7880   -7.0740   -4.0670 c3        1 ZX1     -0.106400
     23 OX0        -2.4120   -4.2310   -2.6570 o         1 ZX1     -0.796800
     24 H5         -0.5950   -1.4560   -1.7120 hn        1 ZX1      0.404800
     25 H6         -0.7530   -2.3770    1.0680 h1        1 ZX1      0.095700
     26 H71C        1.4970   -2.5990   -0.8370 hc        1 ZX1      0.085700
     27 H72C        1.2970   -3.3280    0.8060 hc        1 ZX1      0.085700
     28 H10        -2.3110   -3.9230    0.4050 h1        1 ZX1      0.107700
     29 H81C        0.8880   -4.5420   -1.9220 h1        1 ZX1      0.043200
     30 H82C        1.2480   -5.3810   -0.3410 h1        1 ZX1      0.043200
     31 H15         0.1980   -6.5490   -2.6280 hn        1 ZX1      0.450800
     32 H16        -1.6930   -8.2590   -2.5920 hx        1 ZX1      0.122700
     33 H171        0.5120   -8.2190   -4.0500 hc        1 ZX1      0.047200
     34 H172       -0.5020   -7.5080   -5.3710 hc        1 ZX1      0.047200
     35 H221       -3.2170   -6.1710   -3.5380 hc        1 ZX1      0.090200
     36 H222       -2.5970   -6.7750   -5.1300 hc        1 ZX1      0.090200
     37 H181       -0.2830   -9.9350   -5.6120 hc        1 ZX1      0.057700
     38 H182       -0.8880  -10.2220   -3.9290 hc        1 ZX1      0.057700
     39 H191       -2.5160  -10.6230   -5.8780 h1        1 ZX1      0.035700
     40 H192       -2.5090   -8.8310   -6.1850 h1        1 ZX1      0.035700
     41 H20        -4.2110  -10.0690   -4.5810 hn        1 ZX1      0.377800
     42 H211       -4.2300   -8.2350   -2.9430 h1        1 ZX1      0.049200
     43 H212       -4.7060   -7.8200   -4.6530 h1        1 ZX1      0.049200
     44 H52        -1.6950   -1.0040   -0.6070 hn        1 ZX1      0.404800
     45 H152       -0.9050   -5.5090   -3.3570 hn        1 ZX1      0.450800
@<TRIPOS>BOND
     1    1    2 1   
     2    1    3 1   
     3    1    4 2   
     4    5    6 1   
     5    5   24 1   
     6    5   44 1   
     7    6    7 1   
     8    6   10 1   
     9    6   25 1   
    10    7    8 1   
    11    7   26 1   
    12    7   27 1   
    13    8    9 1   
    14    8   29 1   
    15    8   30 1   
    16    9   10 1   
    17    9   13 1   
    18   10   11 1   
    19   10   28 1   
    20   11   12 1   
    21   11   23 1   
    22   13   14 2   
    23   13   15 1   
    24   15   16 1   
    25   15   31 1   
    26   15   45 1   
    27   16   17 1   
    28   16   22 1   
    29   16   32 1   
    30   17   18 1   
    31   17   33 1   
    32   17   34 1   
    33   18   19 1   
    34   18   37 1   
    35   18   38 1   
    36   19   20 1   
    37   19   39 1   
    38   19   40 1   
    39   20   21 1   
    40   20   41 1   
    41   21   22 1   
    42   21   42 1   
    43   21   43 1   
    44   22   35 1   
    45   22   36 1   
@<TRIPOS>SUBSTRUCTURE
     1 ZX1         1 TEMP              0 ****  ****    0 ROOT
