@<TRIPOS>MOLECULE
ZX1
   43    44     1     0     0
SMALL
bcc


@<TRIPOS>ATOM
      1 S1         -4.7810   -0.0480    0.5320 s6        1 ZX1      1.528700
      2 O2         -5.3180    0.3530   -0.7340 o         1 ZX1     -0.762867
      3 O3         -5.2910    0.7480    1.6100 o         1 ZX1     -0.762867
      4 O4         -5.0210   -1.4450    0.7540 o         1 ZX1     -0.762867
      5 N5         -3.1290    0.2010    0.5060 n3        1 ZX1     -0.913100
      6 C6         -2.2730   -0.3620   -0.4730 c3        1 ZX1      0.288500
      7 C7         -1.8810   -1.8510   -0.2520 c3        1 ZX1     -0.117400
      8 C8         -0.5170   -2.0160   -0.9340 c3        1 ZX1      0.064000
      9 N9         -0.0680   -0.6960   -1.3760 n         1 ZX1     -0.404800
     10 C10        -0.8790    0.3320   -0.6900 c3        1 ZX1     -0.060300
     11 C11        -0.2870    0.9010    0.6300 c         1 ZX1      0.900600
     12 O12         0.6110    0.2540    1.2550 o         1 ZX1     -0.850800
     13 C13         1.3400   -0.4290   -1.4360 c         1 ZX1      0.753100
     14 O14         1.7820    0.2940   -2.3600 o         1 ZX1     -0.642100
     15 N15         2.2520   -1.0810   -0.5560 n         1 ZX1     -0.533900
     16 C16         3.5860   -0.5000   -0.4570 c3        1 ZX1      0.092700
     17 C17         4.5220   -1.4670    0.2940 c3        1 ZX1     -0.082400
     18 C18         5.9800   -1.1900    0.0040 c3        1 ZX1     -0.103400
     19 C19         6.6180   -0.1690    0.9450 c3        1 ZX1      0.164800
     20 N20         5.8290    0.9710    1.3550 n3        1 ZX1     -0.819200
     21 C21         4.9560    1.5180    0.3320 c3        1 ZX1      0.161800
     22 C22         3.5760    0.8890    0.2000 c3        1 ZX1     -0.157400
     23 OX0        -0.7130    2.0210    1.0190 o         1 ZX1     -0.850800
     24 H5         -2.6770    0.7950    1.1600 hn        1 ZX1      0.446800
     25 H6         -2.8210   -0.3140   -1.4670 h1        1 ZX1      0.034700
     26 H71C       -1.7980   -2.0830    0.8380 hc        1 ZX1      0.051200
     27 H72C       -2.6470   -2.5270   -0.6970 hc        1 ZX1      0.051200
     28 H10        -0.9950    1.1900   -1.4070 h1        1 ZX1      0.070700
     29 H81C        0.1880   -2.5380   -0.2320 h1        1 ZX1      0.016200
     30 H82C       -0.6030   -2.6540   -1.8580 h1        1 ZX1      0.016200
     31 H15         1.8460   -1.2240    0.3580 hn        1 ZX1      0.319500
     32 H16         3.9710   -0.3800   -1.5150 h1        1 ZX1      0.055700
     33 H171        4.3190   -1.4050    1.3940 hc        1 ZX1      0.043200
     34 H172        4.2960   -2.5200   -0.0240 hc        1 ZX1      0.043200
     35 H221        2.9450    1.5650   -0.4410 hc        1 ZX1      0.089200
     36 H222        3.0570    0.8330    1.1970 hc        1 ZX1      0.089200
     37 H181        6.5620   -2.1450    0.0910 hc        1 ZX1      0.030700
     38 H182        6.0910   -0.8350   -1.0550 hc        1 ZX1      0.030700
     39 H191        6.9620   -0.7040    1.8760 h1        1 ZX1      0.024200
     40 H192        7.5380    0.2390    0.4350 h1        1 ZX1      0.024200
     41 H20         5.2740    0.7280    2.1580 hn        1 ZX1      0.356800
     42 H211        4.8140    2.6060    0.6020 h1        1 ZX1      0.039200
     43 H212        5.4820    1.4790   -0.6620 h1        1 ZX1      0.039200
@<TRIPOS>BOND
     1    1    2 1   
     2    1    3 1   
     3    1    4 1   
     4    1    5 1   
     5    5    6 1   
     6    5   24 1   
     7    6    7 1   
     8    6   10 1   
     9    6   25 1   
    10    7    8 1   
    11    7   26 1   
    12    7   27 1   
    13    8    9 1   
    14    8   29 1   
    15    8   30 1   
    16    9   10 1   
    17    9   13 1   
    18   10   11 1   
    19   10   28 1   
    20   11   12 1   
    21   11   23 1   
    22   13   14 2   
    23   13   15 1   
    24   15   16 1   
    25   15   31 1   
    26   16   17 1   
    27   16   22 1   
    28   16   32 1   
    29   17   18 1   
    30   17   33 1   
    31   17   34 1   
    32   18   19 1   
    33   18   37 1   
    34   18   38 1   
    35   19   20 1   
    36   19   39 1   
    37   19   40 1   
    38   20   21 1   
    39   20   41 1   
    40   21   22 1   
    41   21   42 1   
    42   21   43 1   
    43   22   35 1   
    44   22   36 1   
@<TRIPOS>SUBSTRUCTURE
     1 ZX1         1 TEMP              0 ****  ****    0 ROOT
