@<TRIPOS>MOLECULE
ZX5
   51    53     1     0     0
SMALL
bcc


@<TRIPOS>ATOM
      1 CAT         0.2110   -0.0640   -0.7810 ca        1 ZX5     -0.088800
      2 CAI         1.3320   -0.3150   -1.5770 ca        1 ZX5     -0.110000
      3 CAG         2.5880   -0.2970   -0.9920 ca        1 ZX5     -0.135000
      4 CAF         2.7540   -0.0330    0.3810 ca        1 ZX5     -0.108000
      5 CAH         1.6710    0.2270    1.2050 ca        1 ZX5     -0.124000
      6 CAS         0.3920    0.2140    0.6250 ca        1 ZX5     -0.047200
      7 NAP        -0.8700    0.4350    1.1900 na        1 ZX5     -0.174400
      8 CAJ        -1.8270    0.3200    0.1890 cc        1 ZX5     -0.062100
      9 CAR        -1.2140    0.0040   -1.0280 cd        1 ZX5     -0.203400
     10 CAL        -1.8850   -0.1820   -2.3170 c3        1 ZX5      0.015800
     11 CAK        -1.7770   -1.6400   -2.7560 c3        1 ZX5     -0.157400
     12 CAQ        -2.4530   -1.8480   -4.0740 c         1 ZX5      0.549100
     13 OAB        -3.2760   -1.1530   -4.6470 o         1 ZX5     -0.406100
     14 NAN        -2.0830   -3.1310   -4.8060 ny        1 ZX5     -0.681800
     15 CAM        -0.8620   -2.9390   -5.6420 c3        1 ZX5      0.108800
     16 CAV        -0.3770   -4.2620   -6.2730 c3        1 ZX5      0.142500
     17 NAO        -1.4210   -4.9060   -7.0550 n7        1 ZX5     -0.819200
     18 CAU        -0.9420   -6.1340   -7.6940 c3        1 ZX5      0.176500
     19 CAA        -2.0190   -6.7910   -8.5510 c3        1 ZX5     -0.094100
     20 CAW         0.3260   -5.8980   -8.5580 c3        1 ZX5      0.080100
     21 OAC        -0.0460   -5.0430   -9.6260 oh        1 ZX5     -0.597800
     22 CAY         1.4300   -5.2490   -7.7070 c3        1 ZX5      0.068100
     23 OAE         2.5160   -4.8540   -8.5310 oh        1 ZX5     -0.602800
     24 CAX         0.9160   -3.9470   -7.0650 c3        1 ZX5      0.125100
     25 OAD         1.8450   -3.4280   -6.1320 oh        1 ZX5     -0.615800
     26 HAI         1.2150   -0.5050   -2.6520 ha        1 ZX5      0.115000
     27 HAG         3.4810   -0.4870   -1.6070 ha        1 ZX5      0.138000
     28 HAF         3.7700   -0.0270    0.8040 ha        1 ZX5      0.145000
     29 HAH         1.8070    0.4390    2.2750 ha        1 ZX5      0.146000
     30 HNAP       -1.0370    0.7040    2.1240 hn        1 ZX5      0.312700
     31 HAJ        -2.8870    0.4750    0.4080 h4        1 ZX5      0.174000
     32 HAL        -2.9680    0.1090   -2.2490 hc        1 ZX5      0.069200
     33 HALA       -1.4070    0.4730   -3.0970 hc        1 ZX5      0.069200
     34 HAK        -0.6910   -1.9300   -2.8070 hc        1 ZX5      0.107200
     35 HAKA       -2.2780   -2.3030   -1.9960 hc        1 ZX5      0.107200
     36 HNAN       -1.9130   -3.8800   -4.1290 hn        1 ZX5      0.462300
     37 HAM        -0.0300   -2.5380   -4.9910 hx        1 ZX5      0.119200
     38 HAMA       -1.1030   -2.1800   -6.4390 hx        1 ZX5      0.119200
     39 HAV        -0.0910   -4.9740   -5.4390 h1        1 ZX5      0.086700
     40 HNAO       -1.7510   -4.2810   -7.7740 hn        1 ZX5      0.376800
     41 HAU        -0.6490   -6.8470   -6.8670 h1        1 ZX5      0.067700
     42 HAA        -2.9440   -6.9750   -7.9560 hc        1 ZX5      0.059367
     43 HAAA       -1.6310   -7.7690   -8.9260 hc        1 ZX5      0.059367
     44 HAAB       -2.2690   -6.1480   -9.4310 hc        1 ZX5      0.059367
     45 HAW         0.6900   -6.8800   -8.9680 h1        1 ZX5      0.064700
     46 HOAC        0.7670   -4.8120  -10.0980 ho        1 ZX5      0.429000
     47 HAY         1.7770   -5.9610   -6.9090 h1        1 ZX5      0.066700
     48 HOAE        2.9920   -5.6560   -8.7840 ho        1 ZX5      0.427000
     49 HAX         0.7200   -3.1890   -7.8750 h1        1 ZX5      0.075700
     50 HOAD        2.6990   -3.3730   -6.5880 ho        1 ZX5      0.446000
     51 HAN2       -2.8620   -3.4180   -5.4160 hn        1 ZX5      0.462300
@<TRIPOS>BOND
     1    1    2 ar  
     2    1    6 ar  
     3    1    9 1   
     4    2    3 ar  
     5    2   26 1   
     6    3    4 ar  
     7    3   27 1   
     8    4    5 ar  
     9    4   28 1   
    10    5    6 ar  
    11    5   29 1   
    12    6    7 1   
    13    7    8 1   
    14    7   30 1   
    15    8    9 2   
    16    8   31 1   
    17    9   10 1   
    18   10   11 1   
    19   10   32 1   
    20   10   33 1   
    21   11   12 1   
    22   11   34 1   
    23   11   35 1   
    24   12   13 2   
    25   12   14 1   
    26   14   15 1   
    27   14   36 1   
    28   14   51 1   
    29   15   16 1   
    30   15   37 1   
    31   15   38 1   
    32   16   17 1   
    33   16   24 1   
    34   16   39 1   
    35   17   18 1   
    36   17   40 1   
    37   18   19 1   
    38   18   20 1   
    39   18   41 1   
    40   19   42 1   
    41   19   43 1   
    42   19   44 1   
    43   20   21 1   
    44   20   22 1   
    45   20   45 1   
    46   21   46 1   
    47   22   23 1   
    48   22   24 1   
    49   22   47 1   
    50   23   48 1   
    51   24   25 1   
    52   24   49 1   
    53   25   50 1   
@<TRIPOS>SUBSTRUCTURE
     1 ZX5         1 TEMP              0 ****  ****    0 ROOT
