@<TRIPOS>MOLECULE
ZX5
   51    53     1     0     0
SMALL
bcc


@<TRIPOS>ATOM
      1 CAT         0.1950   -0.0210   -0.8170 ca        1 ZX5     -0.088800
      2 CAI         1.3250   -0.3160   -1.5830 ca        1 ZX5     -0.110000
      3 CAG         2.5690   -0.3210   -0.9710 ca        1 ZX5     -0.135000
      4 CAF         2.7110   -0.0360    0.4010 ca        1 ZX5     -0.108000
      5 CAH         1.6180    0.2670    1.1960 ca        1 ZX5     -0.124000
      6 CAS         0.3520    0.2780    0.5880 ca        1 ZX5     -0.047200
      7 NAP        -0.9150    0.5420    1.1210 na        1 ZX5     -0.174400
      8 CAJ        -1.8530    0.4340    0.1010 cc        1 ZX5     -0.062100
      9 CAR        -1.2220    0.0810   -1.0970 cd        1 ZX5     -0.204400
     10 CAL        -1.8700   -0.1110   -2.3970 c3        1 ZX5      0.015800
     11 CAK        -1.7910   -1.5800   -2.8070 c3        1 ZX5     -0.157400
     12 CAQ        -2.4430   -1.7940   -4.1360 c         1 ZX5      0.549100
     13 OAB        -3.2400   -1.0910   -4.7360 o         1 ZX5     -0.406100
     14 NAN        -2.0860   -3.0950   -4.8420 n4        1 ZX5     -0.681800
     15 CAM        -0.8430   -2.9420   -5.6520 c3        1 ZX5      0.108800
     16 CAV        -0.3720   -4.2840   -6.2520 c3        1 ZX5      0.142500
     17 NAO        -1.4120   -4.9190   -7.0470 n3        1 ZX5     -0.819200
     18 CAU        -0.9450   -6.1670   -7.6570 c3        1 ZX5      0.176500
     19 CAA        -2.0170   -6.8140   -8.5270 c3        1 ZX5     -0.094100
     20 CAW         0.3450   -5.9710   -8.4960 c3        1 ZX5      0.080100
     21 OAC         0.0150   -5.1250   -9.5840 oh        1 ZX5     -0.597800
     22 CAY         1.4450   -5.3310   -7.6300 c3        1 ZX5      0.068100
     23 OAE         2.5560   -4.9720   -8.4360 oh        1 ZX5     -0.602800
     24 CAX         0.9450   -4.0080   -7.0200 c3        1 ZX5      0.125100
     25 OAD         1.8640   -3.4940   -6.0750 oh        1 ZX5     -0.615800
     26 HAI         1.2270   -0.5230   -2.6570 ha        1 ZX5      0.115000
     27 HAG         3.4700   -0.5450   -1.5620 ha        1 ZX5      0.138000
     28 HAF         3.7180   -0.0490    0.8460 ha        1 ZX5      0.145000
     29 HAH         1.7370    0.4950    2.2650 ha        1 ZX5      0.146000
     30 HNAP       -1.0960    0.8330    2.0460 hn        1 ZX5      0.312700
     31 HAJ        -2.9130    0.6210    0.2930 h4        1 ZX5      0.174000
     32 HAL        -1.3580    0.5170   -3.1770 hc        1 ZX5      0.069200
     33 HALA       -2.9460    0.2090   -2.3580 hc        1 ZX5      0.069200
     34 HAK        -0.7130   -1.8990   -2.8290 hc        1 ZX5      0.106700
     35 HAKA       -2.3260   -2.2160   -2.0470 hc        1 ZX5      0.106700
     36 HNAN       -1.9470   -3.8370   -4.1500 hn        1 ZX5      0.462300
     37 HAM        -0.0170   -2.5480   -4.9900 hx        1 ZX5      0.119200
     38 HAMA       -1.0510   -2.1910   -6.4660 hx        1 ZX5      0.119200
     39 HAV        -0.1190   -4.9890   -5.4020 h1        1 ZX5      0.086700
     40 HNAO       -1.7140   -4.2990   -7.7830 hn        1 ZX5      0.376800
     41 HAU        -0.6860   -6.8720   -6.8120 h1        1 ZX5      0.067700
     42 HAA        -2.9580   -6.9710   -7.9490 hc        1 ZX5      0.059367
     43 HAAA       -2.2350   -6.1810   -9.4210 hc        1 ZX5      0.059367
     44 HAAB       -1.6420   -7.8060   -8.8780 hc        1 ZX5      0.059367
     45 HAW         0.6980   -6.9670   -8.8820 h1        1 ZX5      0.064700
     46 HOAC        0.8430   -4.9190  -10.0420 ho        1 ZX5      0.429000
     47 HAY         1.7590   -6.0380   -6.8150 h1        1 ZX5      0.066700
     48 HOAE        3.0200   -5.7870   -8.6660 ho        1 ZX5      0.427000
     49 HAX         0.7820   -3.2600   -7.8460 h1        1 ZX5      0.075700
     50 HOAD        2.7280   -3.4640   -6.5130 ho        1 ZX5      0.446000
     51 HAN2       -2.8570   -3.3750   -5.4640 hn        1 ZX5      0.462300
@<TRIPOS>BOND
     1    1    2 ar  
     2    1    6 ar  
     3    1    9 1   
     4    2    3 ar  
     5    2   26 1   
     6    3    4 ar  
     7    3   27 1   
     8    4    5 ar  
     9    4   28 1   
    10    5    6 ar  
    11    5   29 1   
    12    6    7 1   
    13    7    8 1   
    14    7   30 1   
    15    8    9 2   
    16    8   31 1   
    17    9   10 1   
    18   10   11 1   
    19   10   32 1   
    20   10   33 1   
    21   11   12 1   
    22   11   34 1   
    23   11   35 1   
    24   12   13 2   
    25   12   14 1   
    26   14   15 1   
    27   14   36 1   
    28   14   51 1   
    29   15   16 1   
    30   15   37 1   
    31   15   38 1   
    32   16   17 1   
    33   16   24 1   
    34   16   39 1   
    35   17   18 1   
    36   17   40 1   
    37   18   19 1   
    38   18   20 1   
    39   18   41 1   
    40   19   42 1   
    41   19   43 1   
    42   19   44 1   
    43   20   21 1   
    44   20   22 1   
    45   20   45 1   
    46   21   46 1   
    47   22   23 1   
    48   22   24 1   
    49   22   47 1   
    50   23   48 1   
    51   24   25 1   
    52   24   49 1   
    53   25   50 1   
@<TRIPOS>SUBSTRUCTURE
     1 ZX5         1 TEMP              0 ****  ****    0 ROOT
