@<TRIPOS>MOLECULE
ZX5
   50    52     1     0     0
SMALL
bcc


@<TRIPOS>ATOM
      1 CAT         4.8120   -0.3330    0.1980 ca        1 ZX5     -0.086800
      2 CAI         4.6990   -1.4000    1.0910 ca        1 ZX5     -0.086000
      3 CAG         5.8000   -1.7560    1.8560 ca        1 ZX5     -0.155000
      4 CAF         7.0210   -1.0650    1.7470 ca        1 ZX5     -0.113000
      5 CAH         7.1780   -0.0020    0.8720 ca        1 ZX5     -0.143000
      6 CAS         6.0720    0.3700    0.0910 ca        1 ZX5     -0.047200
      7 NAP         5.9250    1.3810   -0.8620 na        1 ZX5     -0.190400
      8 CAJ         4.6210    1.3310   -1.3580 cc        1 ZX5     -0.096100
      9 CAR         3.9080    0.3050   -0.7370 cd        1 ZX5     -0.150400
     10 CAL         2.5100   -0.0700   -0.9930 c3        1 ZX5      0.000800
     11 CAK         1.5440    0.9400   -0.4010 c3        1 ZX5     -0.153400
     12 CAQ         0.1100    0.6470   -0.8010 c         1 ZX5      0.652100
     13 OAB        -0.5350    1.4440   -1.5140 o         1 ZX5     -0.620100
     14 NAN        -0.4500   -0.5330   -0.3570 n         1 ZX5     -0.571900
     15 CAM        -1.7930   -0.9360   -0.6580 c3        1 ZX5      0.094000
     16 CAV        -2.8810   -0.2610    0.2230 c3        1 ZX5      0.165500
     17 NAO        -3.3110    1.0090   -0.3390 n3        1 ZX5     -0.854200
     18 CAU        -4.2800    1.6990    0.4990 c3        1 ZX5      0.155500
     19 CAA        -4.6490    3.0740   -0.0500 c3        1 ZX5     -0.092100
     20 CAW        -5.5630    0.8450    0.6480 c3        1 ZX5      0.118100
     21 OAC        -6.3060    0.7280   -0.5500 oh        1 ZX5     -0.603800
     22 CAY        -5.2070   -0.5520    1.1790 c3        1 ZX5      0.073100
     23 OAE        -6.3370   -1.4040    1.2060 oh        1 ZX5     -0.604800
     24 CAX        -4.0970   -1.2130    0.3400 c3        1 ZX5      0.114100
     25 OAD        -3.6390   -2.3970    0.9750 oh        1 ZX5     -0.608800
     26 HAI         3.7490   -1.9460    1.1800 ha        1 ZX5      0.130000
     27 HAG         5.7250   -2.5950    2.5630 ha        1 ZX5      0.130000
     28 HAF         7.8690   -1.3810    2.3720 ha        1 ZX5      0.130000
     29 HAH         8.1340    0.5320    0.7910 ha        1 ZX5      0.133000
     30 HNAP        6.6300    2.0040   -1.1490 hn        1 ZX5      0.300700
     31 HAJ         4.2890    2.0350   -2.1240 h4        1 ZX5      0.169000
     32 HAL         2.3340   -0.1420   -2.1010 hc        1 ZX5      0.053200
     33 HALA        2.3140   -1.0870   -0.5560 hc        1 ZX5      0.053200
     34 HAK         1.6310    0.9520    0.7170 hc        1 ZX5      0.073200
     35 HAKA        1.7960    1.9690   -0.7740 hc        1 ZX5      0.073200
     36 HNAN        0.0440   -1.0660    0.3180 hn        1 ZX5      0.311500
     37 HAM        -2.0010   -0.7180   -1.7440 h1        1 ZX5      0.077200
     38 HAMA       -1.8650   -2.0490   -0.4900 h1        1 ZX5      0.077200
     39 HAV        -2.4720   -0.1380    1.2750 h1        1 ZX5      0.032700
     40 HNAO       -2.5350    1.5910   -0.5910 hn        1 ZX5      0.412800
     41 HAU        -3.8770    1.8430    1.5520 h1        1 ZX5      0.023700
     42 HAA        -5.1550    2.9770   -1.0420 hc        1 ZX5      0.047033
     43 HAAA       -5.3500    3.5720    0.6600 hc        1 ZX5      0.047033
     44 HAAB       -3.7410    3.7120   -0.1690 hc        1 ZX5      0.047033
     45 HAW        -6.2720    1.3500    1.3630 h1        1 ZX5      0.084700
     46 HOAC       -5.6850    0.5540   -1.2700 ho        1 ZX5      0.421000
     47 HAY        -4.8730   -0.4830    2.2520 h1        1 ZX5      0.084700
     48 HOAE       -6.8440   -1.2390    0.3990 ho        1 ZX5      0.420000
     49 HAX        -4.4960   -1.4740   -0.6800 h1        1 ZX5      0.048700
     50 HOAD       -4.4290   -2.8780    1.2570 ho        1 ZX5      0.422000
@<TRIPOS>BOND
     1    1    2 ar  
     2    1    6 ar  
     3    1    9 1   
     4    2    3 ar  
     5    2   26 1   
     6    3    4 ar  
     7    3   27 1   
     8    4    5 ar  
     9    4   28 1   
    10    5    6 ar  
    11    5   29 1   
    12    6    7 1   
    13    7    8 1   
    14    7   30 1   
    15    8    9 2   
    16    8   31 1   
    17    9   10 1   
    18   10   11 1   
    19   10   32 1   
    20   10   33 1   
    21   11   12 1   
    22   11   34 1   
    23   11   35 1   
    24   12   13 2   
    25   12   14 1   
    26   14   15 1   
    27   14   36 1   
    28   15   16 1   
    29   15   37 1   
    30   15   38 1   
    31   16   17 1   
    32   16   24 1   
    33   16   39 1   
    34   17   18 1   
    35   17   40 1   
    36   18   19 1   
    37   18   20 1   
    38   18   41 1   
    39   19   42 1   
    40   19   43 1   
    41   19   44 1   
    42   20   21 1   
    43   20   22 1   
    44   20   45 1   
    45   21   46 1   
    46   22   23 1   
    47   22   24 1   
    48   22   47 1   
    49   23   48 1   
    50   24   25 1   
    51   24   49 1   
    52   25   50 1   
@<TRIPOS>SUBSTRUCTURE
     1 ZX5         1 TEMP              0 ****  ****    0 ROOT
