@<TRIPOS>MOLECULE
ZX6
   48    50     1     0     0
SMALL
bcc


@<TRIPOS>ATOM
      1 CAS        -0.0490   -0.2310   -1.4310 ca        1 ZX6     -0.108800
      2 CAI         0.6340    0.8290   -2.0340 ca        1 ZX6     -0.136000
      3 CAG         1.9750    1.0160   -1.7370 ca        1 ZX6     -0.114000
      4 CAF         2.6540    0.1630   -0.8450 ca        1 ZX6     -0.104000
      5 CAH         2.0110   -0.8920   -0.2170 ca        1 ZX6     -0.114000
      6 CAR         0.6510   -1.0890   -0.5050 ca        1 ZX6     -0.050200
      7 NAO        -0.2570   -2.0460   -0.0280 na        1 ZX6     -0.164400
      8 CAJ        -1.4940   -1.8060   -0.6010 cc        1 ZX6     -0.033100
      9 CAQ        -1.4130   -0.7190   -1.4850 cd        1 ZX6     -0.263400
     10 CAL        -2.5180   -0.1260   -2.2320 c3        1 ZX6     -0.052200
     11 CAP        -2.5910   -0.5520   -3.6770 c         1 ZX6      0.542100
     12 OAB        -3.5960   -0.6740   -4.3600 o         1 ZX6     -0.423100
     13 NAM        -1.2780   -0.8230   -4.3800 ny        1 ZX6     -0.669800
     14 CAK        -1.1690   -2.2450   -4.8180 c3        1 ZX6      0.111800
     15 CAU        -0.0770   -2.4430   -5.8910 c3        1 ZX6      0.142500
     16 NAN         1.2030   -1.8820   -5.4840 n7        1 ZX6     -0.817200
     17 CAT         2.2440   -2.1180   -6.4870 c3        1 ZX6      0.176500
     18 CAA         3.5970   -1.5700   -6.0470 c3        1 ZX6     -0.093100
     19 CAV         2.3940   -3.6190   -6.8500 c3        1 ZX6      0.080100
     20 OAC         2.8490   -4.2910   -5.6870 oh        1 ZX6     -0.599800
     21 CAX         1.0400   -4.1880   -7.3080 c3        1 ZX6      0.067100
     22 OAE         1.1280   -5.5980   -7.4490 oh        1 ZX6     -0.603800
     23 CAW        -0.0330   -3.9550   -6.2280 c3        1 ZX6      0.125100
     24 OAD        -1.3210   -4.3050   -6.6940 oh        1 ZX6     -0.609800
     25 HAI         0.1070    1.5260   -2.7010 ha        1 ZX6      0.125000
     26 HAG         2.5260    1.8520   -2.1960 ha        1 ZX6      0.150000
     27 HAF         3.7200    0.3500   -0.6350 ha        1 ZX6      0.155000
     28 HAH         2.5430   -1.5450    0.4900 ha        1 ZX6      0.155000
     29 HNAO       -0.0620   -2.7110    0.6770 hn        1 ZX6      0.322700
     30 HAJ        -2.3640   -2.4200   -0.3450 h4        1 ZX6      0.185000
     31 HAL        -3.5110   -0.3940   -1.7680 hc        1 ZX6      0.118700
     32 HALA       -2.4340    1.0000   -2.2310 hc        1 ZX6      0.118700
     33 HNAM       -1.2110   -0.2220   -5.2110 hn        1 ZX6      0.469300
     34 HAK        -2.1550   -2.5680   -5.2680 hx        1 ZX6      0.119700
     35 HAKA       -0.9550   -2.8740   -3.9100 hx        1 ZX6      0.119700
     36 HAU        -0.4000   -1.9010   -6.8320 h1        1 ZX6      0.089700
     37 HNAN        1.5000   -2.2900   -4.6120 hn        1 ZX6      0.373800
     38 HAT         1.9230   -1.5820   -7.4300 h1        1 ZX6      0.068700
     39 HAA         3.9850   -2.1360   -5.1660 hc        1 ZX6      0.057033
     40 HAAA        3.5220   -0.4880   -5.7850 hc        1 ZX6      0.057033
     41 HAAB        4.3210   -1.6850   -6.8900 hc        1 ZX6      0.057033
     42 HAV         3.1520   -3.7320   -7.6730 h1        1 ZX6      0.063700
     43 HOAC        2.8240   -5.2390   -5.8830 ho        1 ZX6      0.428000
     44 HAX         0.7240   -3.7110   -8.2750 h1        1 ZX6      0.067700
     45 HOAE        1.6100   -5.7760   -8.2670 ho        1 ZX6      0.426000
     46 HAW         0.2250   -4.5640   -5.3160 h1        1 ZX6      0.070700
     47 HOAD       -1.2550   -5.2020   -7.0530 ho        1 ZX6      0.444000
     48 HAM2       -0.4910   -0.5950   -3.7520 hn        1 ZX6      0.469300
@<TRIPOS>BOND
     1    1    2 ar  
     2    1    6 ar  
     3    1    9 1   
     4    2    3 ar  
     5    2   25 1   
     6    3    4 ar  
     7    3   26 1   
     8    4    5 ar  
     9    4   27 1   
    10    5    6 ar  
    11    5   28 1   
    12    6    7 1   
    13    7    8 1   
    14    7   29 1   
    15    8    9 2   
    16    8   30 1   
    17    9   10 1   
    18   10   11 1   
    19   10   31 1   
    20   10   32 1   
    21   11   12 2   
    22   11   13 1   
    23   13   14 1   
    24   13   33 1   
    25   13   48 1   
    26   14   15 1   
    27   14   34 1   
    28   14   35 1   
    29   15   16 1   
    30   15   23 1   
    31   15   36 1   
    32   16   17 1   
    33   16   37 1   
    34   17   18 1   
    35   17   19 1   
    36   17   38 1   
    37   18   39 1   
    38   18   40 1   
    39   18   41 1   
    40   19   20 1   
    41   19   21 1   
    42   19   42 1   
    43   20   43 1   
    44   21   22 1   
    45   21   23 1   
    46   21   44 1   
    47   22   45 1   
    48   23   24 1   
    49   23   46 1   
    50   24   47 1   
@<TRIPOS>SUBSTRUCTURE
     1 ZX6         1 TEMP              0 ****  ****    0 ROOT
