@<TRIPOS>MOLECULE
ZX6
   47    49     1     0     0
SMALL
bcc


@<TRIPOS>ATOM
      1 CAS         3.4110   -0.3440   -0.2650 ca        1 ZX6     -0.096800
      2 CAI         3.7070   -0.5360    1.0860 ca        1 ZX6     -0.097000
      3 CAG         4.4460    0.4280    1.7550 ca        1 ZX6     -0.148000
      4 CAF         4.9010    1.5870    1.0990 ca        1 ZX6     -0.111000
      5 CAH         4.6340    1.8160   -0.2410 ca        1 ZX6     -0.140000
      6 CAR         3.8870    0.8490   -0.9320 ca        1 ZX6     -0.046200
      7 NAO         3.4660    0.7960   -2.2640 na        1 ZX6     -0.189400
      8 CAJ         2.7510   -0.3850   -2.4550 cc        1 ZX6     -0.084100
      9 CAQ         2.6880   -1.1090   -1.2610 cd        1 ZX6     -0.163400
     10 CAL         2.0390   -2.4080   -1.0650 c3        1 ZX6     -0.078200
     11 CAP         0.6180   -2.3000   -0.5230 c         1 ZX6      0.652100
     12 OAB        -0.3060   -2.9620   -1.0400 o         1 ZX6     -0.625100
     13 NAM         0.4160   -1.5040    0.5850 n         1 ZX6     -0.561900
     14 CAK        -0.8700   -1.3140    1.1900 c3        1 ZX6      0.090000
     15 CAU        -1.7970   -0.3080    0.4530 c3        1 ZX6      0.163500
     16 NAN        -2.5550   -0.9560   -0.6050 n3        1 ZX6     -0.854200
     17 CAT        -3.3770   -0.0250   -1.3620 c3        1 ZX6      0.156500
     18 CAA        -4.0890   -0.6960   -2.5320 c3        1 ZX6     -0.092100
     19 CAV        -4.4260    0.6380   -0.4360 c3        1 ZX6      0.118100
     20 OAC        -5.4190   -0.2590    0.0240 oh        1 ZX6     -0.603800
     21 CAX        -3.7270    1.3000    0.7630 c3        1 ZX6      0.073100
     22 OAE        -4.6620    1.8040    1.6980 oh        1 ZX6     -0.604800
     23 CAW        -2.7740    0.3220    1.4760 c3        1 ZX6      0.115100
     24 OAD        -1.9880    1.0120    2.4340 oh        1 ZX6     -0.606800
     25 HAI         3.3610   -1.4430    1.6030 ha        1 ZX6      0.137000
     26 HAG         4.6870    0.2900    2.8190 ha        1 ZX6      0.134000
     27 HAF         5.4840    2.3270    1.6680 ha        1 ZX6      0.133000
     28 HAH         4.9940    2.7220   -0.7470 ha        1 ZX6      0.135000
     29 HNAO        3.6660    1.4700   -2.9530 hn        1 ZX6      0.302700
     30 HAJ         2.3330   -0.6340   -3.4330 h4        1 ZX6      0.171000
     31 HAL         1.9810   -2.9690   -2.0370 hc        1 ZX6      0.079700
     32 HALA        2.6350   -3.0310   -0.3420 hc        1 ZX6      0.079700
     33 HNAM        1.1280   -0.8480    0.8190 hn        1 ZX6      0.320500
     34 HAK        -1.3850   -2.3150    1.2630 h1        1 ZX6      0.077700
     35 HAKA       -0.7010   -0.9150    2.2320 h1        1 ZX6      0.077700
     36 HAU        -1.1610    0.5430    0.0550 h1        1 ZX6      0.033700
     37 HNAN       -1.9750   -1.5240   -1.1910 hn        1 ZX6      0.412800
     38 HAT        -2.7490    0.8250   -1.7790 h1        1 ZX6      0.021700
     39 HAA        -4.8080   -1.4680   -2.1640 hc        1 ZX6      0.046700
     40 HAAA       -4.6580    0.0760   -3.1030 hc        1 ZX6      0.046700
     41 HAAB       -3.3560   -1.1840   -3.2180 hc        1 ZX6      0.046700
     42 HAV        -5.0020    1.4160   -1.0120 h1        1 ZX6      0.083700
     43 HOAC       -4.9810   -1.0770    0.2920 ho        1 ZX6      0.422000
     44 HAX        -3.1480    2.2030    0.4200 h1        1 ZX6      0.084700
     45 HOAE       -5.3740    1.1520    1.7750 ho        1 ZX6      0.420000
     46 HAW        -3.3710   -0.4770    1.9990 h1        1 ZX6      0.047700
     47 HOAD       -2.5940    1.5890    2.9200 ho        1 ZX6      0.421000
@<TRIPOS>BOND
     1    1    2 ar  
     2    1    6 ar  
     3    1    9 1   
     4    2    3 ar  
     5    2   25 1   
     6    3    4 ar  
     7    3   26 1   
     8    4    5 ar  
     9    4   27 1   
    10    5    6 ar  
    11    5   28 1   
    12    6    7 1   
    13    7    8 1   
    14    7   29 1   
    15    8    9 2   
    16    8   30 1   
    17    9   10 1   
    18   10   11 1   
    19   10   31 1   
    20   10   32 1   
    21   11   12 2   
    22   11   13 1   
    23   13   14 1   
    24   13   33 1   
    25   14   15 1   
    26   14   34 1   
    27   14   35 1   
    28   15   16 1   
    29   15   23 1   
    30   15   36 1   
    31   16   17 1   
    32   16   37 1   
    33   17   18 1   
    34   17   19 1   
    35   17   38 1   
    36   18   39 1   
    37   18   40 1   
    38   18   41 1   
    39   19   20 1   
    40   19   21 1   
    41   19   42 1   
    42   20   43 1   
    43   21   22 1   
    44   21   23 1   
    45   21   44 1   
    46   22   45 1   
    47   23   24 1   
    48   23   46 1   
    49   24   47 1   
@<TRIPOS>SUBSTRUCTURE
     1 ZX6         1 TEMP              0 ****  ****    0 ROOT
