@<TRIPOS>MOLECULE
ZX6
   48    50     1     0     0
SMALL
bcc


@<TRIPOS>ATOM
      1 CAS         0.1400   -0.1400   -1.3320 ca        1 ZX6     -0.110800
      2 CAI         1.2460    0.1960   -2.1180 ca        1 ZX6     -0.144000
      3 CAG         2.5000    0.2360   -1.5270 ca        1 ZX6     -0.116000
      4 CAF         2.6770   -0.0510   -0.1600 ca        1 ZX6     -0.104000
      5 CAH         1.6060   -0.3720    0.6580 ca        1 ZX6     -0.111000
      6 CAR         0.3290   -0.4110    0.0740 ca        1 ZX6     -0.049200
      7 NAO        -0.9250   -0.6840    0.6370 na        1 ZX6     -0.163400
      8 CAJ        -1.8870   -0.5800   -0.3520 cc        1 ZX6     -0.028100
      9 CAQ        -1.2820   -0.2690   -1.5800 cd        1 ZX6     -0.265400
     10 CAL        -1.9720   -0.0460   -2.8490 c3        1 ZX6     -0.056200
     11 CAP        -1.8860   -1.2420   -3.7690 c         1 ZX6      0.542100
     12 OAB        -2.7780   -1.7160   -4.4530 o         1 ZX6     -0.422100
     13 NAM        -0.5270   -1.9000   -3.8230 n4        1 ZX6     -0.662800
     14 CAK        -0.4390   -3.1000   -4.6960 c3        1 ZX6      0.099800
     15 CAU        -0.5090   -2.7740   -6.2120 c3        1 ZX6      0.167500
     16 NAN         0.2970   -1.6260   -6.5660 n3        1 ZX6     -0.854200
     17 CAT         1.7420   -1.8150   -6.6580 c3        1 ZX6      0.170500
     18 CAA         2.4810   -1.1940   -5.4720 c3        1 ZX6     -0.090100
     19 CAV         2.2010   -3.2810   -6.8420 c3        1 ZX6      0.095100
     20 OAC         2.3770   -3.8730   -5.5630 oh        1 ZX6     -0.615800
     21 CAX         1.1730   -4.0710   -7.6630 c3        1 ZX6      0.066100
     22 OAE         1.5760   -5.4300   -7.7400 oh        1 ZX6     -0.601800
     23 CAW        -0.2050   -4.0910   -6.9750 c3        1 ZX6      0.128100
     24 OAD        -1.2280   -4.1980   -7.9490 oh        1 ZX6     -0.594800
     25 HAI         1.1240    0.4720   -3.1750 ha        1 ZX6      0.122000
     26 HAG         3.3800    0.5100   -2.1300 ha        1 ZX6      0.148000
     27 HAF         3.6920   -0.0060    0.2680 ha        1 ZX6      0.155000
     28 HAH         1.7470   -0.5790    1.7290 ha        1 ZX6      0.155000
     29 HNAO       -1.0950   -0.8420    1.5990 hn        1 ZX6      0.322700
     30 HAJ        -2.9480   -0.7310   -0.1280 h4        1 ZX6      0.187000
     31 HAL        -3.0670    0.1660   -2.6870 hc        1 ZX6      0.115700
     32 HALA       -1.5290    0.8360   -3.3960 hc        1 ZX6      0.115700
     33 HNAM        0.1530   -1.1910   -4.1460 hn        1 ZX6      0.475300
     34 HAK         0.5440   -3.6100   -4.4630 hx        1 ZX6      0.117700
     35 HAKA       -1.2980   -3.7840   -4.4470 hx        1 ZX6      0.117700
     36 HAU        -1.5880   -2.5020   -6.4480 h1        1 ZX6      0.113700
     37 HNAN       -0.0510   -1.2330   -7.4230 hn        1 ZX6      0.400800
     38 HAT         2.0930   -1.2650   -7.5860 h1        1 ZX6      0.069700
     39 HAA         3.5790   -1.2600   -5.6660 hc        1 ZX6      0.047033
     40 HAAA        2.1990   -0.1220   -5.3450 hc        1 ZX6      0.047033
     41 HAAB        2.2670   -1.7460   -4.5260 hc        1 ZX6      0.047033
     42 HAV         3.1930   -3.2830   -7.3780 h1        1 ZX6      0.062700
     43 HOAC        2.5870   -4.8060   -5.7190 ho        1 ZX6      0.432000
     44 HAX         1.0790   -3.6220   -8.6900 h1        1 ZX6      0.073700
     45 HOAE        2.2660   -5.4900   -8.4120 ho        1 ZX6      0.424000
     46 HAW        -0.2470   -4.9740   -6.2760 h1        1 ZX6      0.068700
     47 HOAD       -1.1140   -5.0540   -8.3850 ho        1 ZX6      0.431000
     48 HAM2       -0.2670   -2.1550   -2.8590 hn        1 ZX6      0.475300
@<TRIPOS>BOND
     1    1    2 ar  
     2    1    6 ar  
     3    1    9 1   
     4    2    3 ar  
     5    2   25 1   
     6    3    4 ar  
     7    3   26 1   
     8    4    5 ar  
     9    4   27 1   
    10    5    6 ar  
    11    5   28 1   
    12    6    7 1   
    13    7    8 1   
    14    7   29 1   
    15    8    9 2   
    16    8   30 1   
    17    9   10 1   
    18   10   11 1   
    19   10   31 1   
    20   10   32 1   
    21   11   12 2   
    22   11   13 1   
    23   13   14 1   
    24   13   33 1   
    25   13   48 1   
    26   14   15 1   
    27   14   34 1   
    28   14   35 1   
    29   15   16 1   
    30   15   23 1   
    31   15   36 1   
    32   16   17 1   
    33   16   37 1   
    34   17   18 1   
    35   17   19 1   
    36   17   38 1   
    37   18   39 1   
    38   18   40 1   
    39   18   41 1   
    40   19   20 1   
    41   19   21 1   
    42   19   42 1   
    43   20   43 1   
    44   21   22 1   
    45   21   23 1   
    46   21   44 1   
    47   22   45 1   
    48   23   24 1   
    49   23   46 1   
    50   24   47 1   
@<TRIPOS>SUBSTRUCTURE
     1 ZX6         1 TEMP              0 ****  ****    0 ROOT
