@<TRIPOS>MOLECULE
ZX7
   44    40     1     0     0
SMALL
bcc


@<TRIPOS>ATOM
      1 OAD        -0.6520    2.2790    1.4780 oh        1 ZX7     -0.359000
      2 CAV         0.7300    2.2920    1.4640 c3        1 ZX7      0.006000
      3 CAW         1.2170    2.2940    2.8720 c3        1 ZX7     -0.040000
      4 OAE         0.7640    3.5520    3.5250 oh        1 ZX7     -0.331000
      5 CAU         2.6070    2.2120    2.9800 c3        1 ZX7      0.009000
      6 OAC         3.2150    3.5370    2.4690 oh        1 ZX7     -0.327000
      7 CAS         3.2000    1.1230    2.2350 c3        1 ZX7     -0.052000
      8 CAA         4.7340    1.2770    2.2900 c3        1 ZX7     -0.211000
      9 NAM         2.7800    1.0730    0.8080 n3        1 ZX7     -0.312000
     10 CAT         1.2520    1.0360    0.5800 c3        1 ZX7     -0.056000
     11 CAK         0.9560    1.2070   -0.7180 c3        1 ZX7     -0.033000
     12 NAL         0.3820    0.0230   -1.2330 n         1 ZX7     -0.340000
     13 CAO        -0.7000    0.1020   -2.1940 c2        1 ZX7      0.353000
     14 OAB        -0.8730    1.1280   -2.8340 o         1 ZX7     -0.345000
     15 CAP        -1.7010   -1.0900   -2.3430 c2        1 ZX7     -0.098000
     16 CAJ        -1.6940   -2.0650   -3.3320 c1        1 ZX7     -0.112000
     17 CAQ        -2.8010   -2.8950   -3.1280 c1        1 ZX7     -0.104000
     18 CAH        -3.2650   -4.0540   -3.8150 c1        1 ZX7     -0.121500
     19 CAF        -4.4050   -4.7180   -3.3710 c1        1 ZX7     -0.121500
     20 CAG        -5.0950   -4.2500   -2.2540 c1        1 ZX7     -0.121500
     21 CAI        -4.6410   -3.1120   -1.5770 c1        1 ZX7     -0.121500
     22 CAR        -3.4790   -2.4340   -2.0290 c1        1 ZX7      0.015000
     23 NAN        -2.7950   -1.3090   -1.5370 n1        1 ZX7     -0.202000
     24 HOAD       -0.9420    1.6550    2.0620 ho        1 ZX7      0.228000
     25 HAV         1.0280    3.1170    1.0330 h1        1 ZX7      0.090000
     26 HAW         0.8310    1.5570    3.3310 h1        1 ZX7      0.128000
     27 HOAE        0.4600    3.3690    4.3440 ho        1 ZX7      0.221000
     28 HAU         2.8390    2.1070    3.9240 h1        1 ZX7      0.130000
     29 HOAC        3.5880    3.9530    3.1270 ho        1 ZX7      0.219000
     30 HAS         2.9490    0.2660    2.6700 h1        1 ZX7      0.072000
     31 HAA         5.1640    0.3880    2.1520 hc        1 ZX7      0.087667
     32 HAAA        4.9980    1.6390    3.1770 hc        1 ZX7      0.087667
     33 HAAB        5.0320    1.9070    1.5710 hc        1 ZX7      0.087667
     34 HNAM        3.1450    0.3930    0.4230 hn        1 ZX7      0.179000
     35 HAT         0.8760    0.2060    0.9130 h1        1 ZX7      0.086000
     36 HAK         1.7920    1.4210   -1.2260 h1        1 ZX7      0.112000
     37 HAKA        0.3390    1.9230   -0.8090 h1        1 ZX7      0.112000
     38 HNAL        0.7520   -0.7950   -1.0240 hn        1 ZX7      0.223000
     39 HAJ        -1.0460   -2.1160   -4.1170 DU        1 ZX7      0.215000
     40 HAH        -2.7910   -4.3780   -4.5850 ha        1 ZX7      0.133000
     41 HAF        -4.7160   -5.4970   -3.8330 ha        1 ZX7      0.133000
     42 HAG        -5.8900   -4.7150   -1.9450 ha        1 ZX7      0.133000
     43 HAI        -5.1400   -2.7740   -0.7700 ha        1 ZX7      0.133000
     44 HNAN       -3.0060   -0.8340   -0.7540 DU        1 ZX7      0.215000
@<TRIPOS>BOND
     1    1    2 1   
     2    1   24 1   
     3    2    3 1   
     4    2   10 1   
     5    2   25 1   
     6    3    4 1   
     7    3    5 1   
     8    3   26 1   
     9    4   27 1   
    10    5    6 1   
    11    5    7 1   
    12    5   28 1   
    13    6   29 1   
    14    7    8 1   
    15    7    9 1   
    16    7   30 1   
    17    8   31 1   
    18    8   32 1   
    19    8   33 1   
    20    9   10 1   
    21    9   34 1   
    22   10   11 1   
    23   10   35 1   
    24   11   12 1   
    25   11   36 1   
    26   11   37 1   
    27   12   13 1   
    28   12   38 1   
    29   13   14 1   
    30   13   15 1   
    31   15   16 1   
    32   15   23 1   
    33   16   17 1   
    34   17   22 1   
    35   18   19 1   
    36   18   40 1   
    37   19   41 1   
    38   20   21 1   
    39   20   42 1   
    40   21   43 1   
@<TRIPOS>SUBSTRUCTURE
     1 ZX7         1 TEMP              0 ****  ****    0 ROOT
