@<TRIPOS>MOLECULE
ZX7
   44    46     1     0     0
SMALL
bcc


@<TRIPOS>ATOM
      1 OAD         3.9160    1.9360    1.5270 oh        1 ZX7     -0.599800
      2 CAV         3.6470    0.9970    0.5000 c3        1 ZX7      0.120100
      3 CAW         4.6260   -0.1860    0.5940 c3        1 ZX7      0.062100
      4 OAE         5.9010    0.3380    0.2420 oh        1 ZX7     -0.611800
      5 CAU         4.2250   -1.3030   -0.3800 c3        1 ZX7      0.079100
      6 OAC         4.3210   -0.8800   -1.7300 oh        1 ZX7     -0.592800
      7 CAS         2.7560   -1.7220   -0.1120 c3        1 ZX7      0.186500
      8 CAA         2.3740   -2.8300   -1.0890 c3        1 ZX7     -0.089100
      9 NAM         1.8100   -0.6190   -0.1320 n3        1 ZX7     -0.814200
     10 CAT         2.1950    0.5000    0.7100 c3        1 ZX7      0.148500
     11 CAK         1.2630    1.7270    0.5080 c3        1 ZX7      0.085000
     12 NAL        -0.1410    1.4420    0.5830 n         1 ZX7     -0.541900
     13 CAO        -0.8260    0.9780   -0.5310 c         1 ZX7      0.689300
     14 OAB        -0.3310    1.0430   -1.6740 o         1 ZX7     -0.593100
     15 CAP        -2.2070    0.4780   -0.3270 cc        1 ZX7     -0.141300
     16 CAJ        -3.3010    0.7290   -1.1500 cd        1 ZX7     -0.098200
     17 CAQ        -4.4310    0.0300   -0.5790 ca        1 ZX7     -0.109800
     18 CAH        -5.7740   -0.0950   -0.9380 ca        1 ZX7     -0.073000
     19 CAF        -6.6060   -0.8770   -0.1510 ca        1 ZX7     -0.159000
     20 CAG        -6.1220   -1.5360    0.9930 ca        1 ZX7     -0.104000
     21 CAI        -4.7970   -1.4320    1.3890 ca        1 ZX7     -0.147000
     22 CAR        -3.9430   -0.6420    0.6040 ca        1 ZX7     -0.039200
     23 NAN        -2.5940   -0.3030    0.7860 na        1 ZX7     -0.176400
     24 HOAD        4.8350    2.2120    1.4090 ho        1 ZX7      0.419000
     25 HAV         3.7590    1.4850   -0.5080 h1        1 ZX7      0.062700
     26 HAW         4.6470   -0.5830    1.6450 h1        1 ZX7      0.059700
     27 HOAE        6.5500   -0.3500    0.4280 ho        1 ZX7      0.410000
     28 HAU         4.9020   -2.1900   -0.2340 h1        1 ZX7      0.039700
     29 HOAC        5.1100   -0.3240   -1.7970 ho        1 ZX7      0.415000
     30 HAS         2.7390   -2.1440    0.9390 h1        1 ZX7      0.052700
     31 HAA         3.0700   -3.6910   -0.9510 hc        1 ZX7      0.048367
     32 HAAA        1.3290   -3.1760   -0.9060 hc        1 ZX7      0.048367
     33 HAAB        2.4590   -2.4690   -2.1430 hc        1 ZX7      0.048367
     34 HNAM        1.6410   -0.3130   -1.0760 hn        1 ZX7      0.392800
     35 HAT         2.1110    0.1530    1.7830 h1        1 ZX7      0.064700
     36 HAK         1.5230    2.4730    1.3120 h1        1 ZX7      0.078200
     37 HAKA        1.4800    2.1880   -0.4980 h1        1 ZX7      0.078200
     38 HNAL       -0.5010    1.2290    1.4840 hn        1 ZX7      0.306500
     39 HAJ        -3.3050    1.3350   -2.0530 ha        1 ZX7      0.171000
     40 HAH        -6.1570    0.4210   -1.8300 ha        1 ZX7      0.138000
     41 HAF        -7.6670   -0.9890   -0.4220 ha        1 ZX7      0.132000
     42 HAG        -6.8160   -2.1510    1.5870 ha        1 ZX7      0.131000
     43 HAI        -4.4290   -1.9470    2.2860 ha        1 ZX7      0.135000
     44 HNAN       -1.9580   -0.8830    1.2730 hn        1 ZX7      0.290700
@<TRIPOS>BOND
     1    1    2 1   
     2    1   24 1   
     3    2    3 1   
     4    2   10 1   
     5    2   25 1   
     6    3    4 1   
     7    3    5 1   
     8    3   26 1   
     9    4   27 1   
    10    5    6 1   
    11    5    7 1   
    12    5   28 1   
    13    6   29 1   
    14    7    8 1   
    15    7    9 1   
    16    7   30 1   
    17    8   31 1   
    18    8   32 1   
    19    8   33 1   
    20    9   10 1   
    21    9   34 1   
    22   10   11 1   
    23   10   35 1   
    24   11   12 1   
    25   11   36 1   
    26   11   37 1   
    27   12   13 1   
    28   12   38 1   
    29   13   14 2   
    30   13   15 1   
    31   15   16 2   
    32   15   23 1   
    33   16   17 1   
    34   16   39 1   
    35   17   18 ar  
    36   17   22 ar  
    37   18   19 ar  
    38   18   40 1   
    39   19   20 ar  
    40   19   41 1   
    41   20   21 ar  
    42   20   42 1   
    43   21   22 ar  
    44   21   43 1   
    45   22   23 1   
    46   23   44 1   
@<TRIPOS>SUBSTRUCTURE
     1 ZX7         1 TEMP              0 ****  ****    0 ROOT
