@<TRIPOS>MOLECULE
ZX7
   45    47     1     0     0
SMALL
bcc


@<TRIPOS>ATOM
      1 OAD         0.0580   -0.3690   -0.3190 oh        1 ZX7     -0.610800
      2 CAV         1.4240   -0.0870   -0.0840 c3        1 ZX7      0.127100
      3 CAW         1.7350   -0.0590    1.4240 c3        1 ZX7      0.067100
      4 OAE         1.0970    1.1100    1.9140 oh        1 ZX7     -0.602800
      5 CAU         3.2530    0.0280    1.6620 c3        1 ZX7      0.080100
      6 OAC         3.7720    1.2370    1.1330 oh        1 ZX7     -0.598800
      7 CAS         3.9720   -1.1390    0.9350 c3        1 ZX7      0.175500
      8 CAA         5.4710   -1.0440    1.1970 c3        1 ZX7     -0.093100
      9 NAM         3.6650   -1.1810   -0.4960 n3        1 ZX7     -0.821200
     10 CAT         2.2310   -1.2360   -0.7400 c3        1 ZX7      0.140500
     11 CAK         1.9040   -1.2240   -2.2480 c3        1 ZX7      0.108800
     12 NAL         2.5570   -2.3560   -2.9640 n4        1 ZX7     -0.664800
     13 CAO         2.2240   -2.3970   -4.4460 c         1 ZX7      0.586300
     14 OAB         1.6290   -1.4280   -4.9010 o         1 ZX7     -0.435100
     15 CAP         2.6250   -3.5960   -5.1380 cc        1 ZX7     -0.279300
     16 CAJ         2.0700   -4.0170   -6.3560 cd        1 ZX7      0.053800
     17 CAQ         2.6520   -5.2950   -6.6670 ca        1 ZX7     -0.148800
     18 CAH         2.4870   -6.1910   -7.7280 ca        1 ZX7     -0.042000
     19 CAF         3.2290   -7.3630   -7.7250 ca        1 ZX7     -0.142000
     20 CAG         4.1280   -7.6550   -6.6830 ca        1 ZX7     -0.053000
     21 CAI         4.3140   -6.7930   -5.6090 ca        1 ZX7     -0.147000
     22 CAR         3.5690   -5.6060   -5.5950 ca        1 ZX7     -0.012200
     23 NAN         3.5040   -4.5950   -4.6050 na        1 ZX7     -0.164400
     24 HOAD       -0.4520    0.2800    0.1880 ho        1 ZX7      0.445000
     25 HAV         1.6980    0.9070   -0.5360 h1        1 ZX7      0.074700
     26 HAW         1.3170   -0.9770    1.9200 h1        1 ZX7      0.066700
     27 HOAE        1.0770    1.0440    2.8770 ho        1 ZX7      0.426000
     28 HAU         3.4680   -0.0250    2.7640 h1        1 ZX7      0.063700
     29 HOAC        3.2320    1.9560    1.4920 ho        1 ZX7      0.429000
     30 HAS         3.5830   -2.0990    1.3880 h1        1 ZX7      0.066700
     31 HAA         5.8730   -0.0660    0.8380 hc        1 ZX7      0.057700
     32 HAAA        6.0180   -1.8740    0.6900 hc        1 ZX7      0.057700
     33 HAAB        5.6480   -1.1180    2.2970 hc        1 ZX7      0.057700
     34 HNAM        4.0560   -0.3580   -0.9280 hn        1 ZX7      0.374800
     35 HAT         1.8480   -2.2050   -0.2940 h1        1 ZX7      0.085700
     36 HAK         2.2400   -0.2610   -2.7290 hx        1 ZX7      0.125200
     37 HAKA        0.7840   -1.3100   -2.3740 hx        1 ZX7      0.125200
     38 HNAL        3.5760   -2.2820   -2.8560 hn        1 ZX7      0.463300
     39 HAJ         1.3180   -3.4840   -6.9420 ha        1 ZX7      0.190000
     40 HAH         1.7800   -5.9660   -8.5410 ha        1 ZX7      0.159000
     41 HAF         3.1170   -8.0830   -8.5520 ha        1 ZX7      0.160000
     42 HAG         4.7010   -8.5980   -6.7210 ha        1 ZX7      0.158000
     43 HAI         5.0170   -7.0370   -4.8000 ha        1 ZX7      0.157000
     44 HNAN        4.3690   -4.2950   -4.2100 hn        1 ZX7      0.269700
     45 HAL2        2.2600   -3.2410   -2.5350 hn        1 ZX7      0.463300
@<TRIPOS>BOND
     1    1    2 1   
     2    1   24 1   
     3    2    3 1   
     4    2   10 1   
     5    2   25 1   
     6    3    4 1   
     7    3    5 1   
     8    3   26 1   
     9    4   27 1   
    10    5    6 1   
    11    5    7 1   
    12    5   28 1   
    13    6   29 1   
    14    7    8 1   
    15    7    9 1   
    16    7   30 1   
    17    8   31 1   
    18    8   32 1   
    19    8   33 1   
    20    9   10 1   
    21    9   34 1   
    22   10   11 1   
    23   10   35 1   
    24   11   12 1   
    25   11   36 1   
    26   11   37 1   
    27   12   13 1   
    28   12   38 1   
    29   12   45 1   
    30   13   14 2   
    31   13   15 1   
    32   15   16 2   
    33   15   23 1   
    34   16   17 1   
    35   16   39 1   
    36   17   18 ar  
    37   17   22 ar  
    38   18   19 ar  
    39   18   40 1   
    40   19   20 ar  
    41   19   41 1   
    42   20   21 ar  
    43   20   42 1   
    44   21   22 ar  
    45   21   43 1   
    46   22   23 1   
    47   23   44 1   
@<TRIPOS>SUBSTRUCTURE
     1 ZX7         1 TEMP              0 ****  ****    0 ROOT
