@<TRIPOS>MOLECULE
ZX7
   45    47     1     0     0
SMALL
bcc


@<TRIPOS>ATOM
      1 OAD         0.0620   -0.3650   -0.3150 oh        1 ZX7     -0.610800
      2 CAV         1.4290   -0.0850   -0.0830 c3        1 ZX7      0.127100
      3 CAW         1.7430   -0.0570    1.4250 c3        1 ZX7      0.067100
      4 OAE         1.1070    1.1130    1.9150 oh        1 ZX7     -0.602800
      5 CAU         3.2600    0.0290    1.6600 c3        1 ZX7      0.080100
      6 OAC         3.7800    1.2360    1.1300 oh        1 ZX7     -0.598800
      7 CAS         3.9770   -1.1390    0.9330 c3        1 ZX7      0.175500
      8 CAA         5.4770   -1.0470    1.1930 c3        1 ZX7     -0.093100
      9 NAM         3.6680   -1.1820   -0.4980 n7        1 ZX7     -0.821200
     10 CAT         2.2330   -1.2350   -0.7390 c3        1 ZX7      0.140500
     11 CAK         1.9040   -1.2230   -2.2470 c3        1 ZX7      0.108800
     12 NAL         2.5550   -2.3560   -2.9640 ny        1 ZX7     -0.664800
     13 CAO         2.2190   -2.3980   -4.4450 c         1 ZX7      0.586300
     14 OAB         1.6230   -1.4290   -4.8990 o         1 ZX7     -0.435100
     15 CAP         2.6200   -3.5970   -5.1370 cc        1 ZX7     -0.279300
     16 CAJ         2.0620   -4.0190   -6.3540 cd        1 ZX7      0.053800
     17 CAQ         2.6440   -5.2970   -6.6650 ca        1 ZX7     -0.148800
     18 CAH         2.4770   -6.1940   -7.7250 ca        1 ZX7     -0.042000
     19 CAF         3.2190   -7.3650   -7.7240 ca        1 ZX7     -0.142000
     20 CAG         4.1200   -7.6570   -6.6830 ca        1 ZX7     -0.053000
     21 CAI         4.3080   -6.7940   -5.6100 ca        1 ZX7     -0.147000
     22 CAR         3.5630   -5.6070   -5.5950 ca        1 ZX7     -0.012200
     23 NAN         3.4990   -4.5960   -4.6050 na        1 ZX7     -0.164400
     24 HOAD       -0.4460    0.2850    0.1920 ho        1 ZX7      0.445000
     25 HAV         1.7040    0.9090   -0.5360 h1        1 ZX7      0.074700
     26 HAW         1.3230   -0.9740    1.9220 h1        1 ZX7      0.066700
     27 HOAE        1.0880    1.0490    2.8790 ho        1 ZX7      0.426000
     28 HAU         3.4770   -0.0240    2.7630 h1        1 ZX7      0.063700
     29 HOAC        3.2420    1.9570    1.4890 ho        1 ZX7      0.429000
     30 HAS         3.5880   -2.0990    1.3870 h1        1 ZX7      0.066700
     31 HAA         5.8800   -0.0690    0.8330 hc        1 ZX7      0.057700
     32 HAAA        5.6550   -1.1200    2.2930 hc        1 ZX7      0.057700
     33 HAAB        6.0210   -1.8780    0.6850 hc        1 ZX7      0.057700
     34 HNAM        4.0600   -0.3590   -0.9310 hn        1 ZX7      0.374800
     35 HAT         1.8500   -2.2030   -0.2920 h1        1 ZX7      0.085700
     36 HAK         0.7840   -1.3080   -2.3710 hx        1 ZX7      0.125200
     37 HAKA        2.2400   -0.2610   -2.7290 hx        1 ZX7      0.125200
     38 HNAL        2.2580   -3.2400   -2.5340 hn        1 ZX7      0.462800
     39 HAJ         1.3090   -3.4860   -6.9390 ha        1 ZX7      0.190000
     40 HAH         1.7680   -5.9690   -8.5380 ha        1 ZX7      0.159000
     41 HAF         3.1060   -8.0850   -8.5500 ha        1 ZX7      0.160000
     42 HAG         4.6930   -8.5990   -6.7220 ha        1 ZX7      0.158000
     43 HAI         5.0120   -7.0380   -4.8020 ha        1 ZX7      0.157000
     44 HNAN        4.3650   -4.2960   -4.2120 hn        1 ZX7      0.269700
     45 HAL2        3.5740   -2.2830   -2.8570 hn        1 ZX7      0.462800
@<TRIPOS>BOND
     1    1    2 1   
     2    1   24 1   
     3    2    3 1   
     4    2   10 1   
     5    2   25 1   
     6    3    4 1   
     7    3    5 1   
     8    3   26 1   
     9    4   27 1   
    10    5    6 1   
    11    5    7 1   
    12    5   28 1   
    13    6   29 1   
    14    7    8 1   
    15    7    9 1   
    16    7   30 1   
    17    8   31 1   
    18    8   32 1   
    19    8   33 1   
    20    9   10 1   
    21    9   34 1   
    22   10   11 1   
    23   10   35 1   
    24   11   12 1   
    25   11   36 1   
    26   11   37 1   
    27   12   13 1   
    28   12   38 1   
    29   12   45 1   
    30   13   14 2   
    31   13   15 1   
    32   15   16 2   
    33   15   23 1   
    34   16   17 1   
    35   16   39 1   
    36   17   18 ar  
    37   17   22 ar  
    38   18   19 ar  
    39   18   40 1   
    40   19   20 ar  
    41   19   41 1   
    42   20   21 ar  
    43   20   42 1   
    44   21   22 ar  
    45   21   43 1   
    46   22   23 1   
    47   23   44 1   
@<TRIPOS>SUBSTRUCTURE
     1 ZX7         1 TEMP              0 ****  ****    0 ROOT
