@<TRIPOS>MOLECULE
ZX8
   44    46     1     0     0
SMALL
bcc


@<TRIPOS>ATOM
      1 CAJ        -0.1340   -0.7430   -0.1620 cc        1 ZX8      0.056800
      2 CAQ         1.2970   -0.5730   -0.1460 ca        1 ZX8     -0.162800
      3 CAH         2.3010   -0.7600    0.8090 ca        1 ZX8     -0.036000
      4 CAF         3.6130   -0.4800    0.4430 ca        1 ZX8     -0.143000
      5 CAG         3.9400   -0.0210   -0.8460 ca        1 ZX8     -0.051000
      6 CAI         2.9670    0.1780   -1.8250 ca        1 ZX8     -0.137000
      7 CAR         1.6570   -0.1050   -1.4510 ca        1 ZX8      0.115100
      8 OAN         0.5240    0.0180   -2.2570 os        1 ZX8     -0.223200
      9 CAP        -0.5610   -0.3830   -1.4310 cd        1 ZX8     -0.161100
     10 CAO        -1.8830   -0.3590   -1.9960 c         1 ZX8      0.593300
     11 OAB        -2.9330   -0.6590   -1.4370 o         1 ZX8     -0.432100
     12 NAL        -1.9610    0.0900   -3.4370 ny        1 ZX8     -0.649800
     13 CAK        -3.3360    0.0290   -4.0060 c3        1 ZX8      0.099800
     14 CAT        -3.4300    0.7360   -5.3830 c3        1 ZX8      0.165500
     15 NAM        -2.3290    0.3850   -6.2540 n7        1 ZX8     -0.852200
     16 CAS        -2.3690   -0.9300   -6.8900 c3        1 ZX8      0.170500
     17 CAA        -1.4070   -1.9210   -6.2370 c3        1 ZX8     -0.090100
     18 CAU        -3.7770   -1.5640   -6.9910 c3        1 ZX8      0.094100
     19 OAC        -4.0180   -2.3310   -5.8210 oh        1 ZX8     -0.614800
     20 CAW        -4.8490   -0.4740   -7.1460 c3        1 ZX8      0.066100
     21 OAE        -6.1360   -1.0740   -7.1640 oh        1 ZX8     -0.600800
     22 CAV        -4.8580    0.4720   -5.9310 c3        1 ZX8      0.128100
     23 OAD        -5.3510    1.7450   -6.3090 oh        1 ZX8     -0.598800
     24 HAJ        -0.7570   -1.0890    0.6670 ha        1 ZX8      0.198000
     25 HAH         2.0550   -1.1190    1.8200 ha        1 ZX8      0.162000
     26 HAF         4.4220   -0.6190    1.1790 ha        1 ZX8      0.163000
     27 HAG         4.9960    0.1880   -1.0880 ha        1 ZX8      0.162000
     28 HAI         3.2180    0.5360   -2.8320 ha        1 ZX8      0.168000
     29 HNAL       -1.5990    1.0500   -3.4970 hn        1 ZX8      0.472300
     30 HAK        -3.6210   -1.0620   -4.1040 hx        1 ZX8      0.125700
     31 HAKA       -4.0440    0.5320   -3.2890 hx        1 ZX8      0.125700
     32 HAT        -3.3560    1.8560   -5.2010 h1        1 ZX8      0.097700
     33 HNAM       -2.2230    1.0980   -6.9530 hn        1 ZX8      0.398800
     34 HAS        -2.0170   -0.7900   -7.9600 h1        1 ZX8      0.070700
     35 HAA        -1.7540   -2.2130   -5.2160 hc        1 ZX8      0.048367
     36 HAAA       -0.3780   -1.4950   -6.1720 hc        1 ZX8      0.048367
     37 HAAB       -1.3760   -2.8470   -6.8610 hc        1 ZX8      0.048367
     38 HAU        -3.8020   -2.2490   -7.8850 h1        1 ZX8      0.063700
     39 HOAC       -4.9320   -2.6480   -5.8820 ho        1 ZX8      0.433000
     40 HAW        -4.6680    0.1120   -8.0890 h1        1 ZX8      0.072700
     41 HOAE       -6.2680   -1.4500   -8.0440 ho        1 ZX8      0.424000
     42 HAV        -5.5170    0.0260   -5.1330 h1        1 ZX8      0.072700
     43 HOAD       -6.2650    1.6180   -6.6010 ho        1 ZX8      0.434000
     44 HAL2       -1.3320   -0.5060   -4.0000 hn        1 ZX8      0.472300
@<TRIPOS>BOND
     1    1    2 1   
     2    1    9 2   
     3    1   24 1   
     4    2    3 ar  
     5    2    7 ar  
     6    3    4 ar  
     7    3   25 1   
     8    4    5 ar  
     9    4   26 1   
    10    5    6 ar  
    11    5   27 1   
    12    6    7 ar  
    13    6   28 1   
    14    7    8 1   
    15    8    9 1   
    16    9   10 1   
    17   10   11 2   
    18   10   12 1   
    19   12   13 1   
    20   12   29 1   
    21   12   44 1   
    22   13   14 1   
    23   13   30 1   
    24   13   31 1   
    25   14   15 1   
    26   14   22 1   
    27   14   32 1   
    28   15   16 1   
    29   15   33 1   
    30   16   17 1   
    31   16   18 1   
    32   16   34 1   
    33   17   35 1   
    34   17   36 1   
    35   17   37 1   
    36   18   19 1   
    37   18   20 1   
    38   18   38 1   
    39   19   39 1   
    40   20   21 1   
    41   20   22 1   
    42   20   40 1   
    43   21   41 1   
    44   22   23 1   
    45   22   42 1   
    46   23   43 1   
@<TRIPOS>SUBSTRUCTURE
     1 ZX8         1 TEMP              0 ****  ****    0 ROOT
