@<TRIPOS>MOLECULE
ZX8
   43    45     1     0     0
SMALL
bcc


@<TRIPOS>ATOM
      1 CAJ        -3.3530    0.1170    1.2640 cc        1 ZX8     -0.078200
      2 CAQ        -4.5720    0.2990    0.4990 ca        1 ZX8     -0.126800
      3 CAH        -5.8820    0.6680    0.7960 ca        1 ZX8     -0.069000
      4 CAF        -6.8020    0.7360   -0.2470 ca        1 ZX8     -0.152000
      5 CAG        -6.4370    0.4430   -1.5710 ca        1 ZX8     -0.099000
      6 CAI        -5.1370    0.0710   -1.9060 ca        1 ZX8     -0.128000
      7 CAR        -4.2250    0.0060   -0.8570 ca        1 ZX8      0.079100
      8 OAN        -2.8770   -0.3420   -0.9520 os        1 ZX8     -0.206200
      9 CAP        -2.3770   -0.2620    0.3710 cd        1 ZX8     -0.051100
     10 CAO        -0.9530   -0.5760    0.6000 c         1 ZX8      0.695300
     11 OAB        -0.4610   -0.4140    1.7380 o         1 ZX8     -0.608100
     12 NAL        -0.2160   -1.0640   -0.4560 n         1 ZX8     -0.554900
     13 CAK         1.1740   -1.4000   -0.3500 c3        1 ZX8      0.094000
     14 CAT         2.1390   -0.1860   -0.4470 c3        1 ZX8      0.164500
     15 NAM         2.3300    0.4510    0.8450 n3        1 ZX8     -0.853200
     16 CAS         3.1780    1.6310    0.7740 c3        1 ZX8      0.155500
     17 CAA         3.2910    2.3470    2.1170 c3        1 ZX8     -0.092100
     18 CAU         4.5930    1.2450    0.2790 c3        1 ZX8      0.118100
     19 OAC         5.3240    0.4660    1.2070 oh        1 ZX8     -0.602800
     20 CAW         4.4960    0.5010   -1.0630 c3        1 ZX8      0.073100
     21 OAE         5.7580    0.0190   -1.4850 oh        1 ZX8     -0.603800
     22 CAV         3.5060   -0.6760   -0.9890 c3        1 ZX8      0.115100
     23 OAD         3.2720   -1.2070   -2.2840 oh        1 ZX8     -0.608800
     24 HAJ        -3.2380    0.2540    2.3380 ha        1 ZX8      0.183000
     25 HAH        -6.1790    0.8990    1.8290 ha        1 ZX8      0.144000
     26 HAF        -7.8420    1.0250   -0.0320 ha        1 ZX8      0.138000
     27 HAG        -7.1980    0.5090   -2.3640 ha        1 ZX8      0.139000
     28 HAI        -4.8430   -0.1600   -2.9380 ha        1 ZX8      0.153000
     29 HNAL       -0.6240   -1.0580   -1.3620 hn        1 ZX8      0.327500
     30 HAK         1.3450   -1.9390    0.6260 h1        1 ZX8      0.080700
     31 HAKA        1.4220   -2.0980   -1.2010 h1        1 ZX8      0.080700
     32 HAT         1.7320    0.5390   -1.2190 h1        1 ZX8      0.035700
     33 HNAM        1.4600    0.6310    1.3080 hn        1 ZX8      0.409800
     34 HAS         2.7750    2.3760    0.0170 h1        1 ZX8      0.024700
     35 HAA         3.7870    1.6900    2.8720 hc        1 ZX8      0.047033
     36 HAAA        3.9090    3.2670    1.9860 hc        1 ZX8      0.047033
     37 HAAB        2.2840    2.6390    2.4990 hc        1 ZX8      0.047033
     38 HAU         5.2150    2.1750    0.1490 h1        1 ZX8      0.085700
     39 HOAC        4.7310   -0.2090    1.5620 ho        1 ZX8      0.421000
     40 HAW         4.1730    1.2120   -1.8750 h1        1 ZX8      0.085700
     41 HOAE        6.2150   -0.3220   -0.7020 ho        1 ZX8      0.420000
     42 HAV         3.9260   -1.4860   -0.3310 h1        1 ZX8      0.048700
     43 HOAD        4.1390   -1.2830   -2.7080 ho        1 ZX8      0.423000
@<TRIPOS>BOND
     1    1    2 1   
     2    1    9 2   
     3    1   24 1   
     4    2    3 ar  
     5    2    7 ar  
     6    3    4 ar  
     7    3   25 1   
     8    4    5 ar  
     9    4   26 1   
    10    5    6 ar  
    11    5   27 1   
    12    6    7 ar  
    13    6   28 1   
    14    7    8 1   
    15    8    9 1   
    16    9   10 1   
    17   10   11 2   
    18   10   12 1   
    19   12   13 1   
    20   12   29 1   
    21   13   14 1   
    22   13   30 1   
    23   13   31 1   
    24   14   15 1   
    25   14   22 1   
    26   14   32 1   
    27   15   16 1   
    28   15   33 1   
    29   16   17 1   
    30   16   18 1   
    31   16   34 1   
    32   17   35 1   
    33   17   36 1   
    34   17   37 1   
    35   18   19 1   
    36   18   20 1   
    37   18   38 1   
    38   19   39 1   
    39   20   21 1   
    40   20   22 1   
    41   20   40 1   
    42   21   41 1   
    43   22   23 1   
    44   22   42 1   
    45   23   43 1   
@<TRIPOS>SUBSTRUCTURE
     1 ZX8         1 TEMP              0 ****  ****    0 ROOT
