@<TRIPOS>MOLECULE
ZX9
   57    59     1     0     0
SMALL
bcc


@<TRIPOS>ATOM
      1 CAI        -3.3020    1.6270   -1.7380 ca        1 ZX9     -0.127500
      2 CAG        -2.8220    1.5410   -3.0440 ca        1 ZX9     -0.113000
      3 CAF        -1.9380    0.5230   -3.4000 ca        1 ZX9     -0.095000
      4 CAH        -1.5310   -0.4080   -2.4430 ca        1 ZX9     -0.113000
      5 CAJ        -2.0100   -0.3260   -1.1370 ca        1 ZX9     -0.127500
      6 CAS        -2.9010    0.6920   -0.7740 ca        1 ZX9     -0.148300
      7 CAZ        -3.4300    0.8330    0.6180 c3        1 ZX9     -0.067400
      8 CAX        -2.4010    0.5900    1.7180 c3        1 ZX9     -0.077700
      9 CAM        -3.0420    0.5270    3.1070 c3        1 ZX9     -0.083400
     10 CAK        -2.0640    1.1790    4.0760 c3        1 ZX9     -0.079900
     11 CAL        -1.0020    1.8910    3.2490 c3        1 ZX9     -0.079900
     12 CAN        -1.3680    1.7190    1.7810 c3        1 ZX9     -0.083400
     13 CAR        -4.6270   -0.0860    0.8030 c         1 ZX9      0.548100
     14 OAB        -5.7720    0.2330    1.0780 o         1 ZX9     -0.414100
     15 NAP        -4.3390   -1.5560    0.6120 n4        1 ZX9     -0.665800
     16 CAO        -5.5350   -2.4310    0.7420 c3        1 ZX9      0.096800
     17 CAY        -5.2370   -3.8970    0.3350 c3        1 ZX9      0.165500
     18 NAQ        -3.9940   -4.3790    0.8990 n3        1 ZX9     -0.852200
     19 CAT        -3.9960   -4.7410    2.3150 c3        1 ZX9      0.169500
     20 CAA        -3.3040   -3.6910    3.1840 c3        1 ZX9     -0.091100
     21 CAU        -5.3890   -5.0640    2.9060 c3        1 ZX9      0.094100
     22 OAC        -5.9640   -3.8660    3.4050 oh        1 ZX9     -0.614800
     23 CAV        -6.2970   -5.6900    1.8360 c3        1 ZX9      0.066100
     24 OAD        -7.5900   -5.9070    2.3810 oh        1 ZX9     -0.600800
     25 CAW        -6.5100   -4.7260    0.6540 c3        1 ZX9      0.128100
     26 OAE        -6.7820   -5.4570   -0.5270 oh        1 ZX9     -0.598800
     27 HAI        -3.9920    2.4420   -1.4660 ha        1 ZX9      0.137000
     28 HAG        -3.1390    2.2850   -3.7930 ha        1 ZX9      0.156000
     29 HAF        -1.5540    0.4590   -4.4310 ha        1 ZX9      0.158000
     30 HAH        -0.8210   -1.2040   -2.7170 ha        1 ZX9      0.156000
     31 HAJ        -1.6430   -1.0480   -0.3910 ha        1 ZX9      0.137000
     32 HAZ        -3.8430    1.8810    0.7530 hc        1 ZX9      0.127700
     33 HAX        -1.8580   -0.3750    1.5240 hc        1 ZX9      0.047700
     34 HAM        -4.0170    1.0780    3.1170 hc        1 ZX9      0.051450
     35 HAMA       -3.2480   -0.5340    3.3990 hc        1 ZX9      0.051450
     36 HAK        -1.5930    0.4060    4.7340 hc        1 ZX9      0.059450
     37 HAKA       -2.6000    1.8990    4.7430 hc        1 ZX9      0.059450
     38 HAL        -0.9520    2.9770    3.5140 hc        1 ZX9      0.059450
     39 HALA        0.0080    1.4540    3.4520 hc        1 ZX9      0.059450
     40 HAN        -1.7970    2.6700    1.3740 hc        1 ZX9      0.051450
     41 HANA       -0.4700    1.4650    1.1650 hc        1 ZX9      0.051450
     42 HNAP       -3.9130   -1.6830   -0.3160 hn        1 ZX9      0.469300
     43 HAO        -6.3480   -2.0250    0.0760 hx        1 ZX9      0.124200
     44 HAOA       -5.8840   -2.3860    1.8170 hx        1 ZX9      0.124200
     45 HAY        -5.1120   -3.9210   -0.7950 h1        1 ZX9      0.097700
     46 HNAQ       -3.6670   -5.1560    0.3520 hn        1 ZX9      0.398800
     47 HAT        -3.3910   -5.6960    2.4130 h1        1 ZX9      0.070700
     48 HAA        -2.2850   -3.4590    2.7930 hc        1 ZX9      0.047367
     49 HAAA       -3.2080   -4.0980    4.2200 hc        1 ZX9      0.047367
     50 HAAB       -3.9030   -2.7510    3.2430 hc        1 ZX9      0.047367
     51 HAU        -5.2610   -5.7860    3.7620 h1        1 ZX9      0.063700
     52 HOAC       -6.8630   -4.0880    3.6910 ho        1 ZX9      0.433000
     53 HAV        -5.8500   -6.6540    1.4690 h1        1 ZX9      0.072700
     54 HOAD       -7.5440   -6.7020    2.9270 ho        1 ZX9      0.425000
     55 HAW        -7.3780   -4.0480    0.8950 h1        1 ZX9      0.072700
     56 HOAE       -7.6080   -5.9380   -0.3780 ho        1 ZX9      0.434000
     57 HAP2       -3.6380   -1.8390    1.3170 hn        1 ZX9      0.469300
@<TRIPOS>BOND
     1    1    2 ar  
     2    1    6 ar  
     3    1   27 1   
     4    2    3 ar  
     5    2   28 1   
     6    3    4 ar  
     7    3   29 1   
     8    4    5 ar  
     9    4   30 1   
    10    5    6 ar  
    11    5   31 1   
    12    6    7 1   
    13    7    8 1   
    14    7   13 1   
    15    7   32 1   
    16    8    9 1   
    17    8   12 1   
    18    8   33 1   
    19    9   10 1   
    20    9   34 1   
    21    9   35 1   
    22   10   11 1   
    23   10   36 1   
    24   10   37 1   
    25   11   12 1   
    26   11   38 1   
    27   11   39 1   
    28   12   40 1   
    29   12   41 1   
    30   13   14 2   
    31   13   15 1   
    32   15   16 1   
    33   15   42 1   
    34   15   57 1   
    35   16   17 1   
    36   16   43 1   
    37   16   44 1   
    38   17   18 1   
    39   17   25 1   
    40   17   45 1   
    41   18   19 1   
    42   18   46 1   
    43   19   20 1   
    44   19   21 1   
    45   19   47 1   
    46   20   48 1   
    47   20   49 1   
    48   20   50 1   
    49   21   22 1   
    50   21   23 1   
    51   21   51 1   
    52   22   52 1   
    53   23   24 1   
    54   23   25 1   
    55   23   53 1   
    56   24   54 1   
    57   25   26 1   
    58   25   55 1   
    59   26   56 1   
@<TRIPOS>SUBSTRUCTURE
     1 ZX9         1 TEMP              0 ****  ****    0 ROOT
