@<TRIPOS>MOLECULE
ZX9
   56    55     1     0     0
SMALL
bcc


@<TRIPOS>ATOM
      1 CAI         2.9320    0.2680   -3.5260 c1        1 ZX9     -0.066500
      2 CAG         4.0180   -0.2990   -4.1960 c1        1 ZX9     -0.069500
      3 CAF         4.9410   -1.0510   -3.5010 c1        1 ZX9     -0.069500
      4 CAH         4.7900   -1.2450   -2.1250 c1        1 ZX9     -0.069500
      5 CAJ         3.7120   -0.6830   -1.4600 c1        1 ZX9     -0.069500
      6 CAS         2.7810    0.0760   -2.1610 c1        1 ZX9     -0.045100
      7 CAZ         1.5160    0.5570   -1.4650 c3        1 ZX9     -0.111600
      8 CAX         1.8080    1.8580   -0.7190 c3        1 ZX9     -0.048700
      9 CAM         1.4460    2.9160   -1.4700 c3        1 ZX9     -0.079900
     10 CAK         2.7840    3.3290   -2.2860 c3        1 ZX9     -0.077400
     11 CAL         3.9850    2.5100   -1.5930 c3        1 ZX9     -0.077400
     12 CAN         3.4630    2.0170   -0.4510 c3        1 ZX9     -0.079900
     13 CAR         1.0430   -0.4960   -0.4860 c         1 ZX9      0.655100
     14 OAB         1.8750   -1.1500    0.1780 o         1 ZX9     -0.608100
     15 NAP        -0.3790   -0.7320   -0.3030 n         1 ZX9     -0.556900
     16 CAO        -0.8460   -1.3440    0.8910 c3        1 ZX9      0.092000
     17 CAY        -2.3410   -1.0370    1.0790 c3        1 ZX9      0.150500
     18 NAQ        -3.0610   -2.3020    1.3810 n3        1 ZX9     -0.791200
     19 CAT        -4.4770   -2.0830    1.7480 c3        1 ZX9      0.181500
     20 CAA        -5.0710   -3.3920    2.2110 c3        1 ZX9     -0.089100
     21 CAU        -4.6380   -1.0620    2.8430 c3        1 ZX9      0.076100
     22 OAC        -4.1070   -1.6150    4.0870 oh        1 ZX9     -0.597800
     23 CAV        -3.9300    0.2020    2.5410 c3        1 ZX9      0.061100
     24 OAD        -3.9770    1.0640    3.7190 oh        1 ZX9     -0.613800
     25 CAW        -2.4890   -0.0260    2.1620 c3        1 ZX9      0.116100
     26 OAE        -1.9260    1.2120    1.7180 oh        1 ZX9     -0.606800
     27 HAI         2.2880    0.7930   -4.0120 ha        1 ZX9      0.073500
     28 HAG         4.1260   -0.1610   -5.1720 ha        1 ZX9      0.078250
     29 HAF         5.7080   -1.4510   -3.9740 ha        1 ZX9      0.078250
     30 HAH         5.4360   -1.7720   -1.6380 ha        1 ZX9      0.078250
     31 HAJ         3.6060   -0.8200   -0.4940 ha        1 ZX9      0.078250
     32 HAZ         0.8190    0.7150   -2.1330 hc        1 ZX9      0.069700
     33 HAX         1.3260    1.8710    0.1360 hc        1 ZX9      0.063700
     34 HAM         1.1600    3.6400   -0.9100 hc        1 ZX9      0.048700
     35 HAMA        0.7340    2.6650   -2.0910 hc        1 ZX9      0.048700
     36 HAK         2.9470    4.3080   -2.2090 hc        1 ZX9      0.039200
     37 HAKA        2.7020    3.0770   -3.2130 hc        1 ZX9      0.039200
     38 HAL         4.7390    3.1140   -1.3920 hc        1 ZX9      0.039200
     39 HALA        4.2820    1.7710   -2.1820 hc        1 ZX9      0.039200
     40 HAN         3.8550    1.1460   -0.2520 hc        1 ZX9      0.048700
     41 HANA        3.6260    2.6380    0.2910 hc        1 ZX9      0.048700
     42 HNAP       -0.9440   -0.5650   -0.9660 hn        1 ZX9      0.326500
     43 HAO        -0.7160   -2.3180    0.8320 h1        1 ZX9      0.069200
     44 HAOA       -0.3380   -0.9900    1.6610 h1        1 ZX9      0.069200
     45 HAY        -2.6930   -0.6620    0.2500 h1        1 ZX9      0.078700
     46 HNAQ       -2.6430   -2.7330    2.0480 hn        1 ZX9      0.369800
     47 HAT        -4.9590   -1.7810    0.9670 h1        1 ZX9      0.060700
     48 HAA        -4.5450   -3.7420    2.9580 hc        1 ZX9      0.048033
     49 HAAA       -6.0080   -3.2450    2.5060 hc        1 ZX9      0.048033
     50 HAAB       -5.0590   -4.0360    1.4710 hc        1 ZX9      0.048033
     51 HAU        -5.5910   -0.8700    2.9600 h1        1 ZX9      0.041700
     52 HOAC       -4.6910   -1.5140    4.7210 ho        1 ZX9      0.415000
     53 HAV        -4.3820    0.6470    1.8050 h1        1 ZX9      0.062700
     54 HOAD       -4.8070    1.3470    3.8460 ho        1 ZX9      0.410000
     55 HAW        -1.9990   -0.3320    2.9510 h1        1 ZX9      0.056700
     56 HOAE       -1.8300    1.7680    2.4210 ho        1 ZX9      0.422000
@<TRIPOS>BOND
     1    1    6 3   
     2    1   27 1   
     3    2    3 3   
     4    2   28 1   
     5    3   29 1   
     6    4    5 3   
     7    4   30 1   
     8    5   31 1   
     9    6    7 1   
    10    7    8 1   
    11    7   13 1   
    12    7   32 1   
    13    8    9 1   
    14    8   12 1   
    15    8   33 1   
    16    9   10 1   
    17    9   34 1   
    18    9   35 1   
    19   10   11 1   
    20   10   36 1   
    21   10   37 1   
    22   11   12 1   
    23   11   38 1   
    24   11   39 1   
    25   12   40 1   
    26   12   41 1   
    27   13   14 2   
    28   13   15 1   
    29   15   16 1   
    30   15   42 1   
    31   16   17 1   
    32   16   43 1   
    33   16   44 1   
    34   17   18 1   
    35   17   25 1   
    36   17   45 1   
    37   18   19 1   
    38   18   46 1   
    39   19   20 1   
    40   19   21 1   
    41   19   47 1   
    42   20   48 1   
    43   20   49 1   
    44   20   50 1   
    45   21   22 1   
    46   21   23 1   
    47   21   51 1   
    48   22   52 1   
    49   23   24 1   
    50   23   25 1   
    51   23   53 1   
    52   24   54 1   
    53   25   26 1   
    54   25   55 1   
    55   26   56 1   
@<TRIPOS>SUBSTRUCTURE
     1 ZX9         1 TEMP              0 ****  ****    0 ROOT
