@<TRIPOS>MOLECULE
ZX9
   56    58     1     0     0
SMALL
bcc


@<TRIPOS>ATOM
      1 CAI        -3.8180    1.5840   -0.8730 ca        1 ZX9     -0.121500
      2 CAG        -4.6750    2.6330   -0.5440 ca        1 ZX9     -0.129500
      3 CAF        -4.9780    2.8970    0.7910 ca        1 ZX9     -0.126000
      4 CAH        -4.4220    2.1080    1.7990 ca        1 ZX9     -0.129500
      5 CAJ        -3.5650    1.0590    1.4740 ca        1 ZX9     -0.121500
      6 CAS        -3.2570    0.7900    0.1340 ca        1 ZX9     -0.089300
      7 CAZ        -2.3430   -0.3400   -0.2240 c3        1 ZX9     -0.076400
      8 CAX        -3.0020   -1.6970    0.0100 c3        1 ZX9     -0.054700
      9 CAM        -2.0960   -2.8540   -0.4160 c3        1 ZX9     -0.077400
     10 CAK        -3.0060   -3.9410   -0.9650 c3        1 ZX9     -0.078900
     11 CAL        -4.3340   -3.2830   -1.3190 c3        1 ZX9     -0.078900
     12 CAN        -4.3010   -1.8580   -0.7810 c3        1 ZX9     -0.077400
     13 CAR        -1.0680   -0.2340    0.6250 c         1 ZX9      0.662100
     14 OAB        -0.9540   -0.8180    1.7190 o         1 ZX9     -0.603100
     15 NAP        -0.0500    0.5510    0.1200 n         1 ZX9     -0.576900
     16 CAO         1.1650    0.8100    0.8330 c3        1 ZX9      0.097000
     17 CAY         2.4090    0.0470    0.2990 c3        1 ZX9      0.151500
     18 NAQ         2.6520    0.2900   -1.1180 n3        1 ZX9     -0.831200
     19 CAT         3.8330   -0.4080   -1.6200 c3        1 ZX9      0.141500
     20 CAA         4.0330   -0.1930   -3.1170 c3        1 ZX9     -0.092100
     21 CAU         5.1050    0.0440   -0.8670 c3        1 ZX9      0.119100
     22 OAC         5.4730    1.3850   -1.1300 oh        1 ZX9     -0.599800
     23 CAV         4.9150   -0.1650    0.6430 c3        1 ZX9      0.070100
     24 OAD         6.0160    0.3320    1.3800 oh        1 ZX9     -0.599800
     25 CAW         3.6250    0.5100    1.1400 c3        1 ZX9      0.118100
     26 OAE         3.3580    0.1450    2.4830 oh        1 ZX9     -0.595800
     27 HAI        -3.5880    1.3770   -1.9290 ha        1 ZX9      0.141500
     28 HAG        -5.1130    3.2520   -1.3400 ha        1 ZX9      0.133500
     29 HAF        -5.6540    3.7250    1.0500 ha        1 ZX9      0.132000
     30 HAH        -4.6590    2.3140    2.8530 ha        1 ZX9      0.133500
     31 HAJ        -3.1190    0.4350    2.2660 ha        1 ZX9      0.141500
     32 HAZ        -2.0760   -0.2680   -1.3170 hc        1 ZX9      0.062700
     33 HAX        -3.2190   -1.7910    1.1100 hc        1 ZX9      0.076700
     34 HAM        -1.3770   -2.5190   -1.2050 hc        1 ZX9      0.045450
     35 HAMA       -1.4960   -3.2180    0.4550 hc        1 ZX9      0.045450
     36 HAK        -2.5490   -4.4280   -1.8610 hc        1 ZX9      0.040700
     37 HAKA       -3.1630   -4.7390   -0.1960 hc        1 ZX9      0.040700
     38 HAL        -4.4870   -3.2770   -2.4270 hc        1 ZX9      0.040700
     39 HALA       -5.1850   -3.8530   -0.8700 hc        1 ZX9      0.040700
     40 HAN        -5.1830   -1.6580   -0.1240 hc        1 ZX9      0.045450
     41 HANA       -4.3410   -1.1200   -1.6230 hc        1 ZX9      0.045450
     42 HNAP       -0.2000    1.0500   -0.7230 hn        1 ZX9      0.309500
     43 HAO         1.3780    1.9170    0.7940 h1        1 ZX9      0.076700
     44 HAOA        1.0440    0.5010    1.9130 h1        1 ZX9      0.076700
     45 HAY         2.2560   -1.0560    0.5120 h1        1 ZX9      0.050700
     46 HNAQ        1.8520    0.0270   -1.6620 hn        1 ZX9      0.371800
     47 HAT         3.7450   -1.5260   -1.4380 h1        1 ZX9      0.030700
     48 HAA         4.2340    0.8840   -3.3350 hc        1 ZX9      0.046367
     49 HAAA        4.9120   -0.7930   -3.4540 hc        1 ZX9      0.046367
     50 HAAB        3.1350   -0.5190   -3.6930 hc        1 ZX9      0.046367
     51 HAU         5.9880   -0.5570   -1.2240 h1        1 ZX9      0.088700
     52 HOAC        4.6780    1.9300   -1.0680 ho        1 ZX9      0.418000
     53 HAV         4.8820   -1.2650    0.8810 h1        1 ZX9      0.089700
     54 HOAD        6.2730    1.1770    0.9830 ho        1 ZX9      0.419000
     55 HAW         3.7410    1.6290    1.0810 h1        1 ZX9      0.043700
     56 HOAE        4.2000    0.2060    2.9570 ho        1 ZX9      0.422000
@<TRIPOS>BOND
     1    1    2 ar  
     2    1    6 ar  
     3    1   27 1   
     4    2    3 ar  
     5    2   28 1   
     6    3    4 ar  
     7    3   29 1   
     8    4    5 ar  
     9    4   30 1   
    10    5    6 ar  
    11    5   31 1   
    12    6    7 1   
    13    7    8 1   
    14    7   13 1   
    15    7   32 1   
    16    8    9 1   
    17    8   12 1   
    18    8   33 1   
    19    9   10 1   
    20    9   34 1   
    21    9   35 1   
    22   10   11 1   
    23   10   36 1   
    24   10   37 1   
    25   11   12 1   
    26   11   38 1   
    27   11   39 1   
    28   12   40 1   
    29   12   41 1   
    30   13   14 2   
    31   13   15 1   
    32   15   16 1   
    33   15   42 1   
    34   16   17 1   
    35   16   43 1   
    36   16   44 1   
    37   17   18 1   
    38   17   25 1   
    39   17   45 1   
    40   18   19 1   
    41   18   46 1   
    42   19   20 1   
    43   19   21 1   
    44   19   47 1   
    45   20   48 1   
    46   20   49 1   
    47   20   50 1   
    48   21   22 1   
    49   21   23 1   
    50   21   51 1   
    51   22   52 1   
    52   23   24 1   
    53   23   25 1   
    54   23   53 1   
    55   24   54 1   
    56   25   26 1   
    57   25   55 1   
    58   26   56 1   
@<TRIPOS>SUBSTRUCTURE
     1 ZX9         1 TEMP              0 ****  ****    0 ROOT
