@<TRIPOS>MOLECULE
ZX9
   57    59     1     0     0
SMALL
bcc


@<TRIPOS>ATOM
      1 CAI        -1.7480   -0.3470   -0.3620 ca        1 ZX9     -0.124500
      2 CAG        -0.6600   -1.1130   -0.7760 ca        1 ZX9     -0.116500
      3 CAF         0.2290   -1.6340    0.1660 ca        1 ZX9     -0.095000
      4 CAH         0.0270   -1.3860    1.5240 ca        1 ZX9     -0.116500
      5 CAJ        -1.0600   -0.6190    1.9420 ca        1 ZX9     -0.124500
      6 CAS        -1.9550   -0.0970    1.0010 ca        1 ZX9     -0.161300
      7 CAZ        -3.1150    0.7490    1.4220 c3        1 ZX9     -0.056400
      8 CAX        -2.7260    1.8950    2.3540 c3        1 ZX9     -0.064700
      9 CAM        -3.9060    2.8160    2.6710 c3        1 ZX9     -0.078400
     10 CAK        -3.3370    4.2230    2.7960 c3        1 ZX9     -0.080400
     11 CAL        -1.9530    4.2140    2.1620 c3        1 ZX9     -0.080400
     12 CAN        -1.6510    2.7860    1.7270 c3        1 ZX9     -0.078400
     13 CAR        -4.1520   -0.1350    2.0950 c         1 ZX9      0.546100
     14 OAB        -4.6510   -0.0420    3.2020 o         1 ZX9     -0.404100
     15 NAP        -4.6280   -1.2970    1.2350 ny        1 ZX9     -0.675800
     16 CAO        -4.9140   -2.5300    2.0210 c3        1 ZX9      0.105800
     17 CAY        -5.6570   -3.5910    1.1820 c3        1 ZX9      0.141500
     18 NAQ        -4.9490   -3.9050   -0.0510 n7        1 ZX9     -0.820200
     19 CAT        -5.6320   -4.9480   -0.8200 c3        1 ZX9      0.175500
     20 CAA        -4.8770   -5.3080   -2.0940 c3        1 ZX9     -0.093100
     21 CAU        -5.8750   -6.2350    0.0110 c3        1 ZX9      0.080100
     22 OAC        -4.6040   -6.7790    0.3260 oh        1 ZX9     -0.599800
     23 CAV        -6.6510   -5.8950    1.2950 c3        1 ZX9      0.067100
     24 OAD        -6.6990   -7.0280    2.1490 oh        1 ZX9     -0.602800
     25 CAW        -5.9110   -4.8120    2.1020 c3        1 ZX9      0.126100
     26 OAE        -6.6980   -4.3470    3.1800 oh        1 ZX9     -0.609800
     27 HAI        -2.4250    0.0860   -1.1160 ha        1 ZX9      0.142000
     28 HAG        -0.4950   -1.2950   -1.8500 ha        1 ZX9      0.157000
     29 HAF         1.0930   -2.2320   -0.1640 ha        1 ZX9      0.159000
     30 HAH         0.7330   -1.7870    2.2690 ha        1 ZX9      0.157000
     31 HAJ        -1.1990   -0.4110    3.0150 ha        1 ZX9      0.142000
     32 HAZ        -3.6070    1.2000    0.5070 hc        1 ZX9      0.100700
     33 HAX        -2.3340    1.4620    3.3150 hc        1 ZX9      0.072700
     34 HAM        -4.4140    2.4960    3.6150 hc        1 ZX9      0.050200
     35 HAMA       -4.6660    2.7800    1.8490 hc        1 ZX9      0.050200
     36 HAK        -4.0060    4.9630    2.2900 hc        1 ZX9      0.057950
     37 HAKA       -3.2700    4.5180    3.8740 hc        1 ZX9      0.057950
     38 HAL        -1.1860    4.5690    2.8960 hc        1 ZX9      0.057950
     39 HALA       -1.9140    4.9050    1.2830 hc        1 ZX9      0.057950
     40 HAN        -1.6760    2.7050    0.6100 hc        1 ZX9      0.050200
     41 HANA       -0.6340    2.4660    2.0630 hc        1 ZX9      0.050200
     42 HNAP       -3.9090   -1.5000    0.5250 hn        1 ZX9      0.463800
     43 HAO        -3.9350   -2.9340    2.4040 hx        1 ZX9      0.123700
     44 HAOA       -5.5660   -2.2620    2.9060 hx        1 ZX9      0.123700
     45 HAY        -6.6710   -3.1760    0.8940 h1        1 ZX9      0.087700
     46 HNAQ       -4.0160   -4.2240    0.1580 hn        1 ZX9      0.373800
     47 HAT        -6.6490   -4.5410   -1.1020 h1        1 ZX9      0.067700
     48 HAA        -5.4930   -6.0280   -2.6850 hc        1 ZX9      0.057367
     49 HAAA       -3.9010   -5.7940   -1.8510 hc        1 ZX9      0.057367
     50 HAAB       -4.6900   -4.4010   -2.7170 hc        1 ZX9      0.057367
     51 HAU        -6.4600   -6.9740   -0.6020 h1        1 ZX9      0.063700
     52 HOAC       -4.7550   -7.5070    0.9460 ho        1 ZX9      0.429000
     53 HAV        -7.6880   -5.5450    1.0410 h1        1 ZX9      0.067700
     54 HOAD       -7.3470   -7.6400    1.7780 ho        1 ZX9      0.426000
     55 HAW        -4.9410   -5.2370    2.4850 h1        1 ZX9      0.072700
     56 HOAE       -6.9710   -5.1280    3.6850 ho        1 ZX9      0.444000
     57 HAP2       -5.4850   -1.0140    0.7450 hn        1 ZX9      0.463800
@<TRIPOS>BOND
     1    1    2 ar  
     2    1    6 ar  
     3    1   27 1   
     4    2    3 ar  
     5    2   28 1   
     6    3    4 ar  
     7    3   29 1   
     8    4    5 ar  
     9    4   30 1   
    10    5    6 ar  
    11    5   31 1   
    12    6    7 1   
    13    7    8 1   
    14    7   13 1   
    15    7   32 1   
    16    8    9 1   
    17    8   12 1   
    18    8   33 1   
    19    9   10 1   
    20    9   34 1   
    21    9   35 1   
    22   10   11 1   
    23   10   36 1   
    24   10   37 1   
    25   11   12 1   
    26   11   38 1   
    27   11   39 1   
    28   12   40 1   
    29   12   41 1   
    30   13   14 2   
    31   13   15 1   
    32   15   16 1   
    33   15   42 1   
    34   15   57 1   
    35   16   17 1   
    36   16   43 1   
    37   16   44 1   
    38   17   18 1   
    39   17   25 1   
    40   17   45 1   
    41   18   19 1   
    42   18   46 1   
    43   19   20 1   
    44   19   21 1   
    45   19   47 1   
    46   20   48 1   
    47   20   49 1   
    48   20   50 1   
    49   21   22 1   
    50   21   23 1   
    51   21   51 1   
    52   22   52 1   
    53   23   24 1   
    54   23   25 1   
    55   23   53 1   
    56   24   54 1   
    57   25   26 1   
    58   25   55 1   
    59   26   56 1   
@<TRIPOS>SUBSTRUCTURE
     1 ZX9         1 TEMP              0 ****  ****    0 ROOT
