@<TRIPOS>MOLECULE
ZXA
   33    33     1     0     0
SMALL
bcc


@<TRIPOS>ATOM
      1 CAA         4.5780   -0.9970   -0.6200 c3        1 ZXA     -0.176100
      2 CAJ         3.2670   -0.6860    0.0620 c         1 ZXA      0.653100
      3 OAC         2.7670   -1.4700    0.8950 o         1 ZXA     -0.617100
      4 NAH         2.6580    0.5130   -0.2530 n         1 ZXA     -0.572900
      5 CAG         1.4140    0.9410    0.3180 c3        1 ZXA      0.093000
      6 CAL         0.1530    0.2880   -0.3120 c3        1 ZXA      0.165500
      7 NAI        -0.1860   -0.9630    0.3470 n3        1 ZXA     -0.854200
      8 CAK        -1.3230   -1.6350   -0.2640 c3        1 ZXA      0.155500
      9 CAB        -1.6060   -2.9920    0.3730 c3        1 ZXA     -0.092100
     10 CAM        -2.5870   -0.7470   -0.1630 c3        1 ZXA      0.118100
     11 OAD        -3.0660   -0.5940    1.1590 oh        1 ZXA     -0.602800
     12 CAO        -2.3110    0.6340   -0.7800 c3        1 ZXA      0.073100
     13 OAF        -3.4000    1.5170   -0.5920 oh        1 ZXA     -0.604800
     14 CAN        -1.0370    1.2730   -0.1960 c3        1 ZXA      0.114100
     15 OAE        -0.6870    2.4350   -0.9310 oh        1 ZXA     -0.608800
     16 HAA         4.9400   -1.9920   -0.2650 hc        1 ZXA      0.066700
     17 HAAA        4.4470   -1.0310   -1.7280 hc        1 ZXA      0.066700
     18 HAAB        5.3410   -0.2220   -0.3670 hc        1 ZXA      0.066700
     19 HNAH        3.0000    1.0270   -1.0300 hn        1 ZXA      0.309500
     20 HAG         1.4350    0.7280    1.4260 h1        1 ZXA      0.077700
     21 HAGA        1.3310    2.0550    0.1640 h1        1 ZXA      0.077700
     22 HAL         0.3360    0.1420   -1.4220 h1        1 ZXA      0.031700
     23 HNAI        0.6100   -1.5650    0.4440 hn        1 ZXA      0.412800
     24 HAK        -1.1470   -1.8020   -1.3740 h1        1 ZXA      0.023700
     25 HAB        -1.8970   -2.8700    1.4440 hc        1 ZXA      0.047367
     26 HABA       -2.4510   -3.4780   -0.1720 hc        1 ZXA      0.047367
     27 HABB       -0.7100   -3.6550    0.3150 hc        1 ZXA      0.047367
     28 HAM        -3.4390   -1.2400   -0.7100 h1        1 ZXA      0.084700
     29 HOAD       -2.3070   -0.4300    1.7340 ho        1 ZXA      0.421000
     30 HAO        -2.2040    0.5420   -1.8970 h1        1 ZXA      0.084700
     31 HOAF       -3.7370    1.3750    0.3050 ho        1 ZXA      0.420000
     32 HAN        -1.2120    1.5570    0.8790 h1        1 ZXA      0.048700
     33 HOAE       -1.5060    2.9360   -1.0540 ho        1 ZXA      0.423000
@<TRIPOS>BOND
     1    1    2 1   
     2    1   16 1   
     3    1   17 1   
     4    1   18 1   
     5    2    3 2   
     6    2    4 1   
     7    4    5 1   
     8    4   19 1   
     9    5    6 1   
    10    5   20 1   
    11    5   21 1   
    12    6    7 1   
    13    6   14 1   
    14    6   22 1   
    15    7    8 1   
    16    7   23 1   
    17    8    9 1   
    18    8   10 1   
    19    8   24 1   
    20    9   25 1   
    21    9   26 1   
    22    9   27 1   
    23   10   11 1   
    24   10   12 1   
    25   10   28 1   
    26   11   29 1   
    27   12   13 1   
    28   12   14 1   
    29   12   30 1   
    30   13   31 1   
    31   14   15 1   
    32   14   32 1   
    33   15   33 1   
@<TRIPOS>SUBSTRUCTURE
     1 ZXA         1 TEMP              0 ****  ****    0 ROOT
