@<TRIPOS>MOLECULE
ZXA
   34    34     1     0     0
SMALL
bcc


@<TRIPOS>ATOM
      1 CAA         2.0420    2.2660   -0.1650 c3        1 ZXA     -0.185100
      2 CAJ         1.8870    0.7860   -0.2290 c         1 ZXA      0.552100
      3 OAC         1.4260    0.0370    0.6200 o         1 ZXA     -0.415100
      4 NAH         2.3320    0.1260   -1.5120 n4        1 ZXA     -0.662800
      5 CAG         3.7760   -0.2390   -1.4520 c3        1 ZXA      0.105800
      6 CAL         4.3030   -0.9680   -2.7260 c3        1 ZXA      0.178500
      7 NAI         3.4310   -0.8090   -3.8710 n3        1 ZXA     -0.849200
      8 CAK         3.7850    0.2680   -4.7960 c3        1 ZXA      0.169500
      9 CAB         2.5510    0.7940   -5.5270 c3        1 ZXA     -0.090100
     10 CAM         4.5250    1.4460   -4.1300 c3        1 ZXA      0.144100
     11 OAD         3.6650    2.0680   -3.1840 oh        1 ZXA     -0.644800
     12 CAO         5.8270    0.9680   -3.4560 c3        1 ZXA      0.070100
     13 OAF         6.0390    1.8420   -2.3550 oh        1 ZXA     -0.621800
     14 CAN         5.7600   -0.4850   -2.9430 c3        1 ZXA      0.097100
     15 OAE         6.3050   -1.3710   -3.9050 oh        1 ZXA     -0.588800
     16 HAA         2.8480    2.6460   -0.8430 hc        1 ZXA      0.113033
     17 HAAA        2.2790    2.5570    0.8930 hc        1 ZXA      0.113033
     18 HAAB        1.0680    2.7430   -0.4520 hc        1 ZXA      0.113033
     19 HNAH        2.1960    0.7770   -2.3050 hn        1 ZXA      0.475800
     20 HAG         4.3510    0.7240   -1.3040 hx        1 ZXA      0.109700
     21 HAGA        3.9290   -0.9120   -0.5630 hx        1 ZXA      0.109700
     22 HAL         4.3540   -2.0720   -2.4750 h1        1 ZXA      0.092700
     23 HNAI        3.3680   -1.6720   -4.3820 hn        1 ZXA      0.405800
     24 HAK         4.5140   -0.1280   -5.5730 h1        1 ZXA      0.066700
     25 HAB         1.8590    1.3050   -4.8150 hc        1 ZXA      0.052700
     26 HABA        2.8760    1.5320   -6.2990 hc        1 ZXA      0.052700
     27 HABB        2.0040   -0.0350   -6.0350 hc        1 ZXA      0.052700
     28 HAM         4.7850    2.1970   -4.9310 h1        1 ZXA      0.074700
     29 HOAD        4.1310    2.8540   -2.8630 ho        1 ZXA      0.438000
     30 HAO         6.6670    1.0460   -4.2020 h1        1 ZXA      0.074700
     31 HOAF        6.9920    1.9350   -2.2320 ho        1 ZXA      0.431000
     32 HAN         6.3220   -0.5610   -1.9700 h1        1 ZXA      0.061700
     33 HOAE        7.2670   -1.2910   -3.8620 ho        1 ZXA      0.426000
     34 HAH2        1.7780   -0.7220   -1.6860 hn        1 ZXA      0.475800
@<TRIPOS>BOND
     1    1    2 1   
     2    1   16 1   
     3    1   17 1   
     4    1   18 1   
     5    2    3 2   
     6    2    4 1   
     7    4    5 1   
     8    4   19 1   
     9    4   34 1   
    10    5    6 1   
    11    5   20 1   
    12    5   21 1   
    13    6    7 1   
    14    6   14 1   
    15    6   22 1   
    16    7    8 1   
    17    7   23 1   
    18    8    9 1   
    19    8   10 1   
    20    8   24 1   
    21    9   25 1   
    22    9   26 1   
    23    9   27 1   
    24   10   11 1   
    25   10   12 1   
    26   10   28 1   
    27   11   29 1   
    28   12   13 1   
    29   12   14 1   
    30   12   30 1   
    31   13   31 1   
    32   14   15 1   
    33   14   32 1   
    34   15   33 1   
@<TRIPOS>SUBSTRUCTURE
     1 ZXA         1 TEMP              0 ****  ****    0 ROOT
