@<TRIPOS>MOLECULE
ZXA
   34    34     1     0     0
SMALL
bcc


@<TRIPOS>ATOM
      1 CAA         2.0600    2.1850   -0.1020 c3        1 ZXA     -0.185100
      2 CAJ         1.9380    0.7030   -0.1840 c         1 ZXA      0.552100
      3 OAC         1.5160   -0.0700    0.6620 o         1 ZXA     -0.415100
      4 NAH         2.3700    0.0720   -1.4880 ny        1 ZXA     -0.662800
      5 CAG         3.8220   -0.2600   -1.4650 c3        1 ZXA      0.105800
      6 CAL         4.3380   -0.9580   -2.7600 c3        1 ZXA      0.178500
      7 NAI         3.4380   -0.8010   -3.8840 n7        1 ZXA     -0.849200
      8 CAK         3.7460    0.2980   -4.7990 c3        1 ZXA      0.169500
      9 CAB         2.4850    0.8070   -5.4950 c3        1 ZXA     -0.090100
     10 CAM         4.4740    1.4830   -4.1310 c3        1 ZXA      0.144100
     11 OAD         3.6220    2.0700   -3.1570 oh        1 ZXA     -0.644800
     12 CAO         5.8010    1.0240   -3.4930 c3        1 ZXA      0.070100
     13 OAF         6.0180    1.8860   -2.3840 oh        1 ZXA     -0.621800
     14 CAN         5.7790   -0.4380   -3.0020 c3        1 ZXA      0.097100
     15 OAE         6.3220   -1.2960   -3.9890 oh        1 ZXA     -0.588800
     16 HAA         2.3120    2.4660    0.9550 hc        1 ZXA      0.113033
     17 HAAA        1.0690    2.6420   -0.3620 hc        1 ZXA      0.113033
     18 HAAB        2.8420    2.5940   -0.7900 hc        1 ZXA      0.113033
     19 HNAH        2.2010    0.7330   -2.2670 hn        1 ZXA      0.475800
     20 HAG         4.0100   -0.9430   -0.5900 hx        1 ZXA      0.110200
     21 HAGA        4.3800    0.7130   -1.3140 hx        1 ZXA      0.110200
     22 HAL         4.4200   -2.0640   -2.5290 h1        1 ZXA      0.092700
     23 HNAI        3.3830   -1.6570   -4.4070 hn        1 ZXA      0.405800
     24 HAK         4.4670   -0.0700   -5.5980 h1        1 ZXA      0.066700
     25 HAB         1.7980    1.2900   -4.7600 hc        1 ZXA      0.052700
     26 HABA        2.7760    1.5640   -6.2620 hc        1 ZXA      0.052700
     27 HABB        1.9460   -0.0270   -6.0040 hc        1 ZXA      0.052700
     28 HAM         4.7000    2.2510   -4.9250 h1        1 ZXA      0.074700
     29 HOAD        4.0770    2.8620   -2.8340 ho        1 ZXA      0.438000
     30 HAO         6.6230    1.1330   -4.2560 h1        1 ZXA      0.074700
     31 HOAF        6.9710    1.9990   -2.2800 ho        1 ZXA      0.431000
     32 HAN         6.3630   -0.5160   -2.0420 h1        1 ZXA      0.061700
     33 HOAE        7.2830   -1.1950   -3.9660 ho        1 ZXA      0.426000
     34 HAH2        1.8310   -0.7850   -1.6620 hn        1 ZXA      0.475800
@<TRIPOS>BOND
     1    1    2 1   
     2    1   16 1   
     3    1   17 1   
     4    1   18 1   
     5    2    3 2   
     6    2    4 1   
     7    4    5 1   
     8    4   19 1   
     9    4   34 1   
    10    5    6 1   
    11    5   20 1   
    12    5   21 1   
    13    6    7 1   
    14    6   14 1   
    15    6   22 1   
    16    7    8 1   
    17    7   23 1   
    18    8    9 1   
    19    8   10 1   
    20    8   24 1   
    21    9   25 1   
    22    9   26 1   
    23    9   27 1   
    24   10   11 1   
    25   10   12 1   
    26   10   28 1   
    27   11   29 1   
    28   12   13 1   
    29   12   14 1   
    30   12   30 1   
    31   13   31 1   
    32   14   15 1   
    33   14   32 1   
    34   15   33 1   
@<TRIPOS>SUBSTRUCTURE
     1 ZXA         1 TEMP              0 ****  ****    0 ROOT
