@<TRIPOS>MOLECULE
ZXB
   33    34     1     0     0
SMALL
bcc


@<TRIPOS>ATOM
      1 CAG        -2.7890    0.3600   -1.0550 ca        1 ZXB     -0.119000
      2 CAE        -4.0370    0.9390   -0.8310 ca        1 ZXB     -0.130500
      3 CAD        -4.7590    0.6240    0.3210 ca        1 ZXB     -0.131000
      4 CAF        -4.2280   -0.2720    1.2480 ca        1 ZXB     -0.130500
      5 CAH        -2.9800   -0.8510    1.0260 ca        1 ZXB     -0.119000
      6 CAL        -2.2510   -0.5390   -0.1280 ca        1 ZXB     -0.072300
      7 CAJ        -0.9270   -1.1710   -0.3720 c3        1 ZXB     -0.029100
      8 CAP         0.2350   -0.3180    0.1610 c3        1 ZXB      0.176500
      9 NAK         0.3620    0.9560   -0.5360 n3        1 ZXB     -0.785200
     10 CAI         1.5060    1.7220   -0.0990 c3        1 ZXB      0.128800
     11 CAM         2.8450    0.9630   -0.1180 c3        1 ZXB      0.065100
     12 OAA         3.8670    1.7020    0.5360 oh        1 ZXB     -0.605800
     13 CAN         2.7130   -0.3570    0.6580 c3        1 ZXB      0.113100
     14 OAB         3.8690   -1.1610    0.4830 oh        1 ZXB     -0.613800
     15 CAO         1.5280   -1.1780    0.1230 c3        1 ZXB      0.110100
     16 OAC         1.7440   -1.5710   -1.2220 oh        1 ZXB     -0.606800
     17 HAG        -2.2170    0.6170   -1.9590 ha        1 ZXB      0.129500
     18 HAE        -4.4520    1.6470   -1.5630 ha        1 ZXB      0.129000
     19 HAD        -5.7430    1.0800    0.4970 ha        1 ZXB      0.129000
     20 HAF        -4.7940   -0.5230    2.1570 ha        1 ZXB      0.129000
     21 HAH        -2.5650   -1.5580    1.7600 ha        1 ZXB      0.129500
     22 HAJ        -0.8790   -2.1670    0.1440 hc        1 ZXB      0.060200
     23 HAJA       -0.7790   -1.3590   -1.4690 hc        1 ZXB      0.060200
     24 HAP         0.0370   -0.0790    1.2480 h1        1 ZXB      0.068700
     25 HNAK        0.4100    0.7890   -1.5270 hn        1 ZXB      0.364800
     26 HAI         1.5930    2.6330   -0.7540 h1        1 ZXB      0.060200
     27 HAIA        1.3140    2.0710    0.9560 h1        1 ZXB      0.060200
     28 HAM         3.1600    0.7400   -1.1760 h1        1 ZXB      0.055700
     29 HOAA        3.9070    2.5640    0.1070 ho        1 ZXB      0.410000
     30 HAN         2.5680   -0.1380    1.7520 h1        1 ZXB      0.059700
     31 HOAB        4.6270   -0.6090    0.7130 ho        1 ZXB      0.426000
     32 HAO         1.3990   -2.0930    0.7630 h1        1 ZXB      0.054700
     33 HOAC        2.6100   -2.0000   -1.2490 ho        1 ZXB      0.424000
@<TRIPOS>BOND
     1    1    2 ar  
     2    1    6 ar  
     3    1   17 1   
     4    2    3 ar  
     5    2   18 1   
     6    3    4 ar  
     7    3   19 1   
     8    4    5 ar  
     9    4   20 1   
    10    5    6 ar  
    11    5   21 1   
    12    6    7 1   
    13    7    8 1   
    14    7   22 1   
    15    7   23 1   
    16    8    9 1   
    17    8   15 1   
    18    8   24 1   
    19    9   10 1   
    20    9   25 1   
    21   10   11 1   
    22   10   26 1   
    23   10   27 1   
    24   11   12 1   
    25   11   13 1   
    26   11   28 1   
    27   12   29 1   
    28   13   14 1   
    29   13   15 1   
    30   13   30 1   
    31   14   31 1   
    32   15   16 1   
    33   15   32 1   
    34   16   33 1   
@<TRIPOS>SUBSTRUCTURE
     1 ZXB         1 TEMP              0 ****  ****    0 ROOT
