@<TRIPOS>MOLECULE
ZXB
   33    34     1     0     0
SMALL
bcc


@<TRIPOS>ATOM
      1 CAG         0.0930   -0.0160   -0.0150 ca        1 ZXB     -0.119000
      2 CAE         1.4860    0.0230    0.0050 ca        1 ZXB     -0.130500
      3 CAD         2.1680    0.0750    1.2210 ca        1 ZXB     -0.131000
      4 CAF         1.4520    0.0870    2.4170 ca        1 ZXB     -0.130500
      5 CAH         0.0590    0.0480    2.3990 ca        1 ZXB     -0.119000
      6 CAL        -0.6310   -0.0030    1.1830 ca        1 ZXB     -0.072300
      7 CAJ        -2.1180   -0.0280    1.1650 c3        1 ZXB     -0.029100
      8 CAP        -2.6790   -1.4590    1.1340 c3        1 ZXB      0.176500
      9 NAK        -2.3380   -2.1690   -0.0920 n3        1 ZXB     -0.785200
     10 CAI        -2.9360   -3.4820   -0.1630 c3        1 ZXB      0.128800
     11 CAM        -4.4570   -3.5190    0.0750 c3        1 ZXB      0.065100
     12 OAA        -4.9250   -4.8520    0.2150 oh        1 ZXB     -0.605800
     13 CAN        -4.8010   -2.8070    1.3930 c3        1 ZXB      0.113100
     14 OAB        -6.2050   -2.6540    1.5300 oh        1 ZXB     -0.613800
     15 CAO        -4.2050   -1.3890    1.4070 c3        1 ZXB      0.110100
     16 OAC        -4.7870   -0.5800    0.3990 oh        1 ZXB     -0.606800
     17 HAG        -0.4430   -0.0660   -0.9750 ha        1 ZXB      0.129500
     18 HAE         2.0480    0.0100   -0.9400 ha        1 ZXB      0.129000
     19 HAD         3.2670    0.1060    1.2350 ha        1 ZXB      0.129000
     20 HAF         1.9870    0.1280    3.3770 ha        1 ZXB      0.129000
     21 HAH        -0.5010    0.0590    3.3460 ha        1 ZXB      0.129500
     22 HAJ        -2.5180    0.4720    2.0870 hc        1 ZXB      0.060200
     23 HAJA       -2.5080    0.5450    0.2810 hc        1 ZXB      0.060200
     24 HAP        -2.2230   -2.0420    1.9890 h1        1 ZXB      0.068700
     25 HNAK       -2.6140   -1.6150   -0.8850 hn        1 ZXB      0.364800
     26 HAI        -2.4430   -4.1370    0.6100 h1        1 ZXB      0.060200
     27 HAIA       -2.7160   -3.9170   -1.1770 h1        1 ZXB      0.060200
     28 HAM        -5.0040   -3.0150   -0.7710 h1        1 ZXB      0.055700
     29 HOAA       -4.6470   -5.3320   -0.5740 ho        1 ZXB      0.410000
     30 HAN        -4.3990   -3.4030    2.2590 h1        1 ZXB      0.059700
     31 HOAB       -6.5910   -3.5310    1.4090 ho        1 ZXB      0.426000
     32 HAO        -4.3950   -0.9250    2.4140 h1        1 ZXB      0.054700
     33 HOAC       -5.7460   -0.6440    0.5120 ho        1 ZXB      0.424000
@<TRIPOS>BOND
     1    1    2 ar  
     2    1    6 ar  
     3    1   17 1   
     4    2    3 ar  
     5    2   18 1   
     6    3    4 ar  
     7    3   19 1   
     8    4    5 ar  
     9    4   20 1   
    10    5    6 ar  
    11    5   21 1   
    12    6    7 1   
    13    7    8 1   
    14    7   22 1   
    15    7   23 1   
    16    8    9 1   
    17    8   15 1   
    18    8   24 1   
    19    9   10 1   
    20    9   25 1   
    21   10   11 1   
    22   10   26 1   
    23   10   27 1   
    24   11   12 1   
    25   11   13 1   
    26   11   28 1   
    27   12   29 1   
    28   13   14 1   
    29   13   15 1   
    30   13   30 1   
    31   14   31 1   
    32   15   16 1   
    33   15   32 1   
    34   16   33 1   
@<TRIPOS>SUBSTRUCTURE
     1 ZXB         1 TEMP              0 ****  ****    0 ROOT
