@<TRIPOS>MOLECULE
ZXB
   33    34     1     0     0
SMALL
bcc


@<TRIPOS>ATOM
      1 CAG         0.0610    0.0230   -0.0330 ca        1 ZXB     -0.129000
      2 CAE         1.4550    0.0500   -0.0420 ca        1 ZXB     -0.130500
      3 CAD         2.1630    0.0580    1.1600 ca        1 ZXB     -0.132000
      4 CAF         1.4720    0.0400    2.3720 ca        1 ZXB     -0.130500
      5 CAH         0.0790    0.0130    2.3830 ca        1 ZXB     -0.129000
      6 CAL        -0.6380    0.0040    1.1800 ca        1 ZXB     -0.087300
      7 CAJ        -2.1250   -0.0140    1.1900 c3        1 ZXB     -0.034100
      8 CAP        -2.6820   -1.4480    1.2040 c3        1 ZXB      0.188500
      9 NAK        -2.3200   -2.1790   -0.0040 n7        1 ZXB     -0.815200
     10 CAI        -2.8700   -3.5140   -0.0620 c3        1 ZXB      0.141800
     11 CAM        -4.4040   -3.5020    0.0650 c3        1 ZXB      0.102100
     12 OAA        -4.9090   -4.8260    0.1550 oh        1 ZXB     -0.611800
     13 CAN        -4.8140   -2.7980    1.3670 c3        1 ZXB      0.111100
     14 OAB        -6.2220   -2.6430    1.4380 oh        1 ZXB     -0.612800
     15 CAO        -4.2140   -1.3820    1.4220 c3        1 ZXB      0.154100
     16 OAC        -4.7810   -0.5270    0.4490 oh        1 ZXB     -0.588800
     17 HAG        -0.4980    0.0220   -0.9820 ha        1 ZXB      0.136000
     18 HAE         1.9960    0.0680   -0.9990 ha        1 ZXB      0.131000
     19 HAD         3.2620    0.0800    1.1530 ha        1 ZXB      0.131000
     20 HAF         2.0270    0.0490    3.3210 ha        1 ZXB      0.131000
     21 HAH        -0.4630    0.0040    3.3410 ha        1 ZXB      0.136000
     22 HAJ        -2.5100    0.5090    2.1050 hc        1 ZXB      0.069700
     23 HAJA       -2.5320    0.5290    0.2940 hc        1 ZXB      0.069700
     24 HAP        -2.2700   -1.9690    2.1260 h1        1 ZXB      0.018700
     25 HNAK       -1.3230   -2.1970   -0.1070 hn        1 ZXB      0.378800
     26 HAI        -2.4620   -4.1990    0.7380 h1        1 ZXB      0.035700
     27 HAIA       -2.5920   -3.9540   -1.0610 h1        1 ZXB      0.035700
     28 HAM        -4.8710   -2.9710   -0.8100 h1        1 ZXB      0.070700
     29 HOAA       -4.6630   -5.2750   -0.6620 ho        1 ZXB      0.410000
     30 HAN        -4.4590   -3.4010    2.2480 h1        1 ZXB      0.055700
     31 HOAB       -6.6050   -3.5130    1.2620 ho        1 ZXB      0.426000
     32 HAO        -4.4120   -0.9500    2.4450 h1        1 ZXB      0.046700
     33 HOAC       -5.7390   -0.6590    0.4870 ho        1 ZXB      0.419000
@<TRIPOS>BOND
     1    1    2 ar  
     2    1    6 ar  
     3    1   17 1   
     4    2    3 ar  
     5    2   18 1   
     6    3    4 ar  
     7    3   19 1   
     8    4    5 ar  
     9    4   20 1   
    10    5    6 ar  
    11    5   21 1   
    12    6    7 1   
    13    7    8 1   
    14    7   22 1   
    15    7   23 1   
    16    8    9 1   
    17    8   15 1   
    18    8   24 1   
    19    9   10 1   
    20    9   25 1   
    21   10   11 1   
    22   10   26 1   
    23   10   27 1   
    24   11   12 1   
    25   11   13 1   
    26   11   28 1   
    27   12   29 1   
    28   13   14 1   
    29   13   15 1   
    30   13   30 1   
    31   14   31 1   
    32   15   16 1   
    33   15   32 1   
    34   16   33 1   
@<TRIPOS>SUBSTRUCTURE
     1 ZXB         1 TEMP              0 ****  ****    0 ROOT
