@<TRIPOS>MOLECULE
ZXD
   29    29     1     0     0
SMALL
bcc


@<TRIPOS>ATOM
      1 CAA         0.0500    0.0210   -0.1100 c3        1 ZXD     -0.094100
      2 CAH         1.5640    0.0580   -0.0490 c3        1 ZXD     -0.061700
      3 CAB         2.0780    1.2890   -0.7670 c3        1 ZXD     -0.094100
      4 CAL         2.0410    0.0220    1.4210 c3        1 ZXD      0.190500
      5 NAG         3.4930    0.1340    1.5200 n3        1 ZXD     -0.813200
      6 CAF         4.0030    0.0570    2.8700 c3        1 ZXD      0.140800
      7 CAI         3.5710   -1.2430    3.5690 c3        1 ZXD      0.102100
      8 OAC         3.9610   -1.2300    4.9350 oh        1 ZXD     -0.611800
      9 CAJ         2.0400   -1.3430    3.5590 c3        1 ZXD      0.109100
     10 OAD         1.6090   -2.5940    4.0730 oh        1 ZXD     -0.612800
     11 CAK         1.5070   -1.2560    2.1180 c3        1 ZXD      0.154100
     12 OAE         1.8730   -2.3870    1.3510 oh        1 ZXD     -0.586800
     13 HAA        -0.2960    0.2070   -1.1560 hc        1 ZXD      0.034700
     14 HAAA       -0.3970    0.8010    0.5520 hc        1 ZXD      0.034700
     15 HAAB       -0.3310   -0.9810    0.2040 hc        1 ZXD      0.034700
     16 HAH         1.9660   -0.8620   -0.5620 hc        1 ZXD      0.085700
     17 HAB         3.1660    1.1940   -1.0020 hc        1 ZXD      0.034700
     18 HABA        1.9220    2.2050   -0.1470 hc        1 ZXD      0.034700
     19 HABB        1.5350    1.4250   -1.7340 hc        1 ZXD      0.034700
     20 HAL         1.5390    0.8870    1.9630 h1        1 ZXD      0.014700
     21 HNAG        3.8010    0.9820    1.0820 hn        1 ZXD      0.371800
     22 HAF         3.6770    0.9230    3.5190 h1        1 ZXD      0.034700
     23 HAFA        5.1270    0.0810    2.8090 h1        1 ZXD      0.034700
     24 HAI         4.0100   -2.1400    3.0510 h1        1 ZXD      0.071700
     25 HOAC        4.9240   -1.1820    4.9500 ho        1 ZXD      0.409000
     26 HAJ         1.6040   -0.5140    4.1820 h1        1 ZXD      0.054700
     27 HOAD        2.0590   -2.7140    4.9200 ho        1 ZXD      0.426000
     28 HAK         0.3820   -1.1960    2.1700 h1        1 ZXD      0.048700
     29 HOAE        1.6820   -3.1640    1.8950 ho        1 ZXD      0.418000
@<TRIPOS>BOND
     1    1    2 1   
     2    1   13 1   
     3    1   14 1   
     4    1   15 1   
     5    2    3 1   
     6    2    4 1   
     7    2   16 1   
     8    3   17 1   
     9    3   18 1   
    10    3   19 1   
    11    4    5 1   
    12    4   11 1   
    13    4   20 1   
    14    5    6 1   
    15    5   21 1   
    16    6    7 1   
    17    6   22 1   
    18    6   23 1   
    19    7    8 1   
    20    7    9 1   
    21    7   24 1   
    22    8   25 1   
    23    9   10 1   
    24    9   11 1   
    25    9   26 1   
    26   10   27 1   
    27   11   12 1   
    28   11   28 1   
    29   12   29 1   
@<TRIPOS>SUBSTRUCTURE
     1 ZXD         1 TEMP              0 ****  ****    0 ROOT
