@<TRIPOS>MOLECULE
ZXD
   29    29     1     0     0
SMALL
bcc


@<TRIPOS>ATOM
      1 CAA         0.0330    0.0270   -0.0960 c3        1 ZXD     -0.094100
      2 CAH         1.5480    0.0520   -0.0480 c3        1 ZXD     -0.061700
      3 CAB         2.0660    1.2750   -0.7780 c3        1 ZXD     -0.094100
      4 CAL         2.0380    0.0210    1.4170 c3        1 ZXD      0.190500
      5 NAG         3.4920    0.1220    1.5020 n7        1 ZXD     -0.813200
      6 CAF         4.0140    0.0480    2.8480 c3        1 ZXD      0.140800
      7 CAI         3.5770   -1.2440    3.5580 c3        1 ZXD      0.102100
      8 OAC         3.9810   -1.2260    4.9200 oh        1 ZXD     -0.611800
      9 CAJ         2.0460   -1.3320    3.5640 c3        1 ZXD      0.109100
     10 OAD         1.6100   -2.5760    4.0880 oh        1 ZXD     -0.612800
     11 CAK         1.5010   -1.2480    2.1270 c3        1 ZXD      0.154100
     12 OAE         1.8500   -2.3870    1.3630 oh        1 ZXD     -0.586800
     13 HAA        -0.4010    0.8140    0.5660 hc        1 ZXD      0.034700
     14 HAAA       -0.3200    0.2100   -1.1400 hc        1 ZXD      0.034700
     15 HAAB       -0.3520   -0.9700    0.2280 hc        1 ZXD      0.034700
     16 HAH         1.9380   -0.8740   -0.5600 hc        1 ZXD      0.085700
     17 HAB         3.1500    1.1690   -1.0230 hc        1 ZXD      0.034700
     18 HABA        1.5150    1.4100   -1.7410 hc        1 ZXD      0.034700
     19 HABB        1.9230    2.1950   -0.1620 hc        1 ZXD      0.034700
     20 HAL         1.5490    0.8930    1.9590 h1        1 ZXD      0.014700
     21 HNAG        3.8030    0.9640    1.0560 hn        1 ZXD      0.371800
     22 HAF         5.1380    0.0630    2.7770 h1        1 ZXD      0.034700
     23 HAFA        3.7010    0.9200    3.4950 h1        1 ZXD      0.034700
     24 HAI         4.0050   -2.1480    3.0420 h1        1 ZXD      0.071700
     25 HOAC        4.9440   -1.1870    4.9260 ho        1 ZXD      0.409000
     26 HAJ         1.6220   -0.4950    4.1850 h1        1 ZXD      0.054700
     27 HOAD        2.0660   -2.6950    4.9320 ho        1 ZXD      0.426000
     28 HAK         0.3770   -1.1790    2.1890 h1        1 ZXD      0.048700
     29 HOAE        1.6570   -3.1590    1.9140 ho        1 ZXD      0.418000
@<TRIPOS>BOND
     1    1    2 1   
     2    1   13 1   
     3    1   14 1   
     4    1   15 1   
     5    2    3 1   
     6    2    4 1   
     7    2   16 1   
     8    3   17 1   
     9    3   18 1   
    10    3   19 1   
    11    4    5 1   
    12    4   11 1   
    13    4   20 1   
    14    5    6 1   
    15    5   21 1   
    16    6    7 1   
    17    6   22 1   
    18    6   23 1   
    19    7    8 1   
    20    7    9 1   
    21    7   24 1   
    22    8   25 1   
    23    9   10 1   
    24    9   11 1   
    25    9   26 1   
    26   10   27 1   
    27   11   12 1   
    28   11   28 1   
    29   12   29 1   
@<TRIPOS>SUBSTRUCTURE
     1 ZXD         1 TEMP              0 ****  ****    0 ROOT
