@<TRIPOS>MOLECULE
ZXD
   29    29     1     0     0
SMALL
bcc


@<TRIPOS>ATOM
      1 CAA        -2.9780   -1.1880    0.6820 c3        1 ZXD     -0.088100
      2 CAH        -2.4080   -0.0550   -0.1480 c3        1 ZXD     -0.059700
      3 CAB        -3.3000    1.1640   -0.0290 c3        1 ZXD     -0.088100
      4 CAL        -0.9640    0.2610    0.2970 c3        1 ZXD      0.177500
      5 NAG        -0.4470    1.4770   -0.3220 n3        1 ZXD     -0.791200
      6 CAF         0.9220    1.7600    0.0420 c3        1 ZXD      0.129800
      7 CAI         1.9080    0.5970   -0.1740 c3        1 ZXD      0.065100
      8 OAC         3.1690    0.8730    0.4180 oh        1 ZXD     -0.606800
      9 CAJ         1.3790   -0.6690    0.5180 c3        1 ZXD      0.111100
     10 OAD         2.1630   -1.7980    0.1680 oh        1 ZXD     -0.613800
     11 CAK        -0.0560   -0.9750    0.0540 c3        1 ZXD      0.111100
     12 OAE        -0.0880   -1.2720   -1.3320 oh        1 ZXD     -0.604800
     13 HAA        -2.8560   -0.9830    1.7730 hc        1 ZXD      0.035533
     14 HAAA       -4.0680   -1.3060    0.4670 hc        1 ZXD      0.035533
     15 HAAB       -2.4740   -2.1540    0.4390 hc        1 ZXD      0.035533
     16 HAH        -2.3750   -0.3820   -1.2260 hc        1 ZXD      0.066700
     17 HAB        -3.2190    1.6090    0.9920 hc        1 ZXD      0.035533
     18 HABA       -3.0190    1.9430   -0.7770 hc        1 ZXD      0.035533
     19 HABB       -4.3650    0.8780   -0.2090 hc        1 ZXD      0.035533
     20 HAL        -0.9700    0.4400    1.4140 h1        1 ZXD      0.062700
     21 HNAG       -0.5350    1.4030   -1.3210 hn        1 ZXD      0.367800
     22 HAF         1.2700    2.6480   -0.5540 h1        1 ZXD      0.058700
     23 HAFA        0.9460    2.0430    1.1330 h1        1 ZXD      0.058700
     24 HAI         2.0440    0.3900   -1.2720 h1        1 ZXD      0.056700
     25 HOAC        3.4790    1.7050    0.0420 ho        1 ZXD      0.409000
     26 HAJ         1.4020   -0.5250    1.6340 h1        1 ZXD      0.058700
     27 HOAD        3.0820   -1.5660    0.3540 ho        1 ZXD      0.426000
     28 HAK        -0.4360   -1.8580    0.6370 h1        1 ZXD      0.057700
     29 HOAE        0.5630   -1.9730   -1.4780 ho        1 ZXD      0.422000
@<TRIPOS>BOND
     1    1    2 1   
     2    1   13 1   
     3    1   14 1   
     4    1   15 1   
     5    2    3 1   
     6    2    4 1   
     7    2   16 1   
     8    3   17 1   
     9    3   18 1   
    10    3   19 1   
    11    4    5 1   
    12    4   11 1   
    13    4   20 1   
    14    5    6 1   
    15    5   21 1   
    16    6    7 1   
    17    6   22 1   
    18    6   23 1   
    19    7    8 1   
    20    7    9 1   
    21    7   24 1   
    22    8   25 1   
    23    9   10 1   
    24    9   11 1   
    25    9   26 1   
    26   10   27 1   
    27   11   12 1   
    28   11   28 1   
    29   12   29 1   
@<TRIPOS>SUBSTRUCTURE
     1 ZXD         1 TEMP              0 ****  ****    0 ROOT
