@<TRIPOS>MOLECULE
ZXG
   36    35     1     0     0
SMALL
bcc


@<TRIPOS>ATOM
      1 CAA        -0.5890    0.2190   -0.3430 c3        1 ZXG     -0.203000
      2 CAB         0.8900   -0.1670    1.6290 c3        1 ZXG     -0.203000
      3 OAC         5.1290    3.9320   -4.3170 o         1 ZXG     -1.042667
      4 OAD         6.0040    5.3710   -2.6680 o         1 ZXG     -1.042667
      5 OAF         4.2960    6.1200   -4.0850 o         1 ZXG     -1.042667
      6 BrAG        1.6960   -3.6510   -3.4210 br        1 ZXG      0.017000
      7 BrAH        6.4720   -3.5200   -1.4010 br        1 ZXG     -0.134000
      8 BrAI        5.2750    2.2750   -0.5670 br        1 ZXG      0.053000
      9 BrAJ        1.0200    4.2500   -4.0000 br        1 ZXG      0.098000
     10 CAK         1.7330   -2.2760   -0.9640 c1        1 ZXG     -0.215000
     11 CAL         4.3670   -1.6780   -2.2350 c1        1 ZXG     -0.115000
     12 CAM         2.7670    1.1520   -1.0800 c2        1 ZXG     -0.041000
     13 CAN         0.8860    2.2240   -2.2140 c1        1 ZXG      0.138000
     14 OAO         3.7240    4.4750   -2.3640 os        1 ZXG     -0.661000
     15 CAP         2.1590   -3.5110   -1.5260 c3        1 ZXG      0.016000
     16 CAQ         4.6530   -2.9020   -1.7010 c2        1 ZXG     -0.286000
     17 CAR         3.5830    2.3260   -1.3370 c2        1 ZXG     -0.414000
     18 CAS         1.7290    3.1620   -2.6440 c2        1 ZXG     -0.444000
     19 CAT         3.6350   -3.7710   -1.3540 c2        1 ZXG      0.253000
     20 CAU         1.3480   -1.2430   -0.4970 c1        1 ZXG     -0.034000
     21 CAV         1.6900    1.1770   -0.2690 c2        1 ZXG     -0.158000
     22 CAW         3.1030    3.3430   -2.1260 c2        1 ZXG      0.360000
     23 CAX         0.8580   -0.0190    0.1020 c3        1 ZXG      0.085000
     24 SAY         4.9750    5.0550   -3.5290 s6        1 ZXG      2.902000
     25 HAA        -1.2180   -0.6710   -0.1070 hc        1 ZXG      0.083000
     26 HAAA       -0.9990    1.1080    0.1930 hc        1 ZXG      0.083000
     27 HAAB       -0.6190    0.4230   -1.4410 hc        1 ZXG      0.083000
     28 HAB         0.4970    0.7630    2.1030 hc        1 ZXG      0.083000
     29 HABA        0.2560   -1.0290    1.9450 hc        1 ZXG      0.083000
     30 HABB        1.9350   -0.3350    1.9800 hc        1 ZXG      0.083000
     31 HOAE        4.7900   -5.1630   -0.7150 ho        1 ZXG      0.263000
     32 HAK         1.5870   -4.3610   -1.0480 h1        1 ZXG      0.146000
     33 HAL         5.0750   -0.9060   -2.5310 ha        1 ZXG      0.146000
     34 HAM         3.0900    0.2150   -1.5830 ha        1 ZXG      0.161000
     35 HAN         1.3890    2.0990    0.2570 ha        1 ZXG      0.141000
     36 OAE         3.8270   -4.9940   -0.8090 oh        1 ZXG     -0.239000
@<TRIPOS>BOND
     1    1   23 1   
     2    1   25 1   
     3    1   26 1   
     4    1   27 1   
     5    2   23 1   
     6    2   28 1   
     7    2   29 1   
     8    2   30 1   
     9    3   24 1   
    10    4   24 1   
    11    5   24 1   
    12    6   15 1   
    13    7   16 1   
    14    8   17 1   
    15    9   18 1   
    16   10   15 1   
    17   10   20 1   
    18   11   16 1   
    19   11   33 1   
    20   12   17 1   
    21   12   21 1   
    22   12   34 1   
    23   13   18 1   
    24   14   22 1   
    25   14   24 1   
    26   15   19 1   
    27   15   32 1   
    28   16   19 1   
    29   17   22 1   
    30   18   22 1   
    31   19   36 1   
    32   20   23 1   
    33   21   23 1   
    34   21   35 1   
    35   31   36 1   
@<TRIPOS>SUBSTRUCTURE
     1 ZXG         1 TEMP              0 ****  ****    0 ROOT
