@<TRIPOS>MOLECULE
ZXG
   36    37     1     0     0
SMALL
bcc


@<TRIPOS>ATOM
      1 CAA        -1.1710    1.5930    2.9900 c3        1 ZXG     -0.086100
      2 CAB        -1.0090   -0.8370    3.4280 c3        1 ZXG     -0.086100
      3 OAC         3.7810   -0.8950   -2.2720 o         1 ZXG     -0.718867
      4 OAD         5.8960   -0.8500   -1.2370 o         1 ZXG     -0.718867
      5 OAF         5.1470    1.0160   -2.4370 o         1 ZXG     -0.718867
      6 BRAG       -6.2140    0.2880    1.5060 br        1 ZXG     -0.081600
      7 BRAH       -2.4940   -1.6520   -2.4400 br        1 ZXG     -0.081600
      8 BRAI        3.8850   -1.9200    1.7100 br        1 ZXG     -0.092100
      9 BRAJ        2.0790    2.7560   -1.1810 br        1 ZXG     -0.092100
     10 CAK        -3.4090    0.1870    1.7480 ca        1 ZXG     -0.052000
     11 CAL        -1.8430   -0.6180    0.1050 ca        1 ZXG     -0.052000
     12 CAM         1.3800   -0.6830    1.8910 ca        1 ZXG     -0.059000
     13 CAN         0.6340    1.2580    0.6920 ca        1 ZXG     -0.059000
     14 OAO         4.0690    0.5030   -0.2790 os        1 ZXG     -0.498800
     15 CAP        -4.4800   -0.0930    0.8960 ca        1 ZXG     -0.089900
     16 CAQ        -2.8950   -0.9100   -0.7630 ca        1 ZXG     -0.089900
     17 CAR         2.6130   -0.6200    1.2480 ca        1 ZXG     -0.119900
     18 CAS         1.8540    1.3450    0.0340 ca        1 ZXG     -0.119900
     19 CAT        -4.2230   -0.6450   -0.3740 ca        1 ZXG      0.170100
     20 CAU        -2.0880   -0.0640    1.3660 ca        1 ZXG     -0.098300
     21 CAV         0.3730    0.2480    1.6280 ca        1 ZXG     -0.183300
     22 CAW         2.8870    0.3950    0.2880 ca        1 ZXG      0.378100
     23 CAX        -0.9590    0.2260    2.3300 c3        1 ZXG      0.065600
     24 SAY         4.8370   -0.1540   -1.7780 s6        1 ZXG      1.724300
     25 HAA        -0.2370    1.9010    3.5190 hc        1 ZXG      0.037033
     26 HAAA       -1.4210    2.3650    2.2250 hc        1 ZXG      0.037033
     27 HAAB       -2.0000    1.5500    3.7370 hc        1 ZXG      0.037033
     28 HAB        -1.9960   -0.7960    3.9500 hc        1 ZXG      0.037033
     29 HABA       -0.8830   -1.8580    2.9960 hc        1 ZXG      0.037033
     30 HABB       -0.2020   -0.6520    4.1760 hc        1 ZXG      0.037033
     31 HOAE       -4.9740   -1.2600   -2.0230 ho        1 ZXG      0.432000
     32 HAK        -3.6110    0.6140    2.7440 ha        1 ZXG      0.166000
     33 HAL        -0.8000   -0.8200   -0.2050 ha        1 ZXG      0.166000
     34 HAM         1.2070   -1.4900    2.6220 ha        1 ZXG      0.130000
     35 HAN        -0.1560    1.9950    0.4740 ha        1 ZXG      0.130000
     36 OAE        -5.3040   -0.9050   -1.1800 oh        1 ZXG     -0.487100
@<TRIPOS>BOND
     1    1   23 1   
     2    1   25 1   
     3    1   26 1   
     4    1   27 1   
     5    2   23 1   
     6    2   28 1   
     7    2   29 1   
     8    2   30 1   
     9    3   24 1   
    10    4   24 1   
    11    5   24 1   
    12    6   15 1   
    13    7   16 1   
    14    8   17 1   
    15    9   18 1   
    16   10   15 ar  
    17   10   20 ar  
    18   10   32 1   
    19   11   16 ar  
    20   11   20 ar  
    21   11   33 1   
    22   12   17 ar  
    23   12   21 ar  
    24   12   34 1   
    25   13   18 ar  
    26   13   21 ar  
    27   13   35 1   
    28   14   22 1   
    29   14   24 1   
    30   15   19 ar  
    31   16   19 ar  
    32   17   22 ar  
    33   18   22 ar  
    34   19   36 1   
    35   20   23 1   
    36   21   23 1   
    37   31   36 1   
@<TRIPOS>SUBSTRUCTURE
     1 ZXG         1 TEMP              0 ****  ****    0 ROOT
