@<TRIPOS>MOLECULE
ZXZ
   24    25     1     0     0
SMALL
bcc


@<TRIPOS>ATOM
      1 C1          0.0020   -0.0000   -0.0120 ca        1 ZXZ     -0.075000
      2 C2          1.4070   -0.0000   -0.0240 ca        1 ZXZ     -0.129800
      3 C3          2.1170   -0.0000    1.2130 ca        1 ZXZ      0.101600
      4 C4          1.3690   -0.0000    2.4220 ca        1 ZXZ     -0.183000
      5 C5         -0.0140   -0.0000    2.3950 ca        1 ZXZ     -0.081000
      6 C6         -0.7060   -0.0010    1.1770 ca        1 ZXZ     -0.168000
      7 C7          2.1560   -0.0000   -1.2640 cc        1 ZXZ      0.025600
      8 C8          3.5100    0.0000   -1.2290 cd        1 ZXZ     -0.241200
      9 C9          4.2560    0.0000    0.0320 c         1 ZXZ      0.696700
     10 N10         3.5140    0.0000    1.2310 n         1 ZXZ     -0.349000
     11 C11         1.4270   -0.0000   -2.5550 c3        1 ZXZ     -0.069900
     12 C12         4.2070    0.0000    2.4950 c3        1 ZXZ      0.064300
     13 O13         5.5030    0.0000    0.0790 o         1 ZXZ     -0.637500
     14 H1         -0.5430   -0.0010   -0.9690 ha        1 ZXZ      0.136000
     15 H4          1.8820   -0.0000    3.3960 ha        1 ZXZ      0.141000
     16 H5         -0.5770   -0.0000    3.3410 ha        1 ZXZ      0.136000
     17 H6         -1.8050   -0.0010    1.1710 ha        1 ZXZ      0.137000
     18 H8          4.1330    0.0000   -2.1360 ha        1 ZXZ      0.164000
     19 H11         2.1360   -0.0000   -3.4190 hc        1 ZXZ      0.054367
     20 H11A        0.7780   -0.9090   -2.6320 hc        1 ZXZ      0.054367
     21 H11B        0.7780    0.9080   -2.6320 hc        1 ZXZ      0.054367
     22 H12         3.9330   -0.9150    3.0850 h1        1 ZXZ      0.057367
     23 H12A        5.3170    0.0000    2.3180 h1        1 ZXZ      0.057367
     24 H12B        3.9330    0.9160    3.0850 h1        1 ZXZ      0.057367
@<TRIPOS>BOND
     1    1    2 ar  
     2    1    6 ar  
     3    1   14 1   
     4    2    3 ar  
     5    2    7 1   
     6    3    4 ar  
     7    3   10 1   
     8    4    5 ar  
     9    4   15 1   
    10    5    6 ar  
    11    5   16 1   
    12    6   17 1   
    13    7    8 2   
    14    7   11 1   
    15    8    9 1   
    16    8   18 1   
    17    9   10 1   
    18    9   13 2   
    19   10   12 1   
    20   11   19 1   
    21   11   20 1   
    22   11   21 1   
    23   12   22 1   
    24   12   23 1   
    25   12   24 1   
@<TRIPOS>SUBSTRUCTURE
     1 ZXZ         1 TEMP              0 ****  ****    0 ROOT
