@<TRIPOS>MOLECULE
ZY0
   79    83     1     0     0
SMALL
bcc


@<TRIPOS>ATOM
      1 C1          4.0300   -2.3430   -0.0250 ca        1 ZY0     -0.142300
      2 C2          2.8710   -1.5330    0.0740 ca        1 ZY0     -0.087000
      3 C3          2.9620   -0.2350    0.5200 ca        1 ZY0     -0.127600
      4 C4          4.2040    0.3060    0.9280 ca        1 ZY0     -0.082000
      5 C5          5.3690   -0.4430    0.8440 ca        1 ZY0      0.013300
      6 C6          5.3040   -1.7990    0.3260 ca        1 ZY0      0.403600
      7 C7          1.7660    0.6520    0.6380 c         1 ZY0      0.677700
      8 N8          0.8380    0.5880   -0.3840 n         1 ZY0     -0.563900
      9 O9          1.6210    1.4340    1.5990 o         1 ZY0     -0.599100
     10 C10        -0.3760    1.3660   -0.3850 c3        1 ZY0      0.080700
     11 C11        -0.5480    2.1670   -1.6910 c3        1 ZY0     -0.053100
     12 C12        -1.6170    0.4610   -0.1380 c3        1 ZY0      0.107100
     13 O13        -1.8930   -0.3740   -1.2470 oh        1 ZY0     -0.598800
     14 C14         0.5140    3.1900   -1.8840 ca        1 ZY0     -0.080300
     15 C15        -2.8420    1.3110    0.2430 c3        1 ZY0      0.136800
     16 N16        -3.9410    0.4980    0.7200 n3        1 ZY0     -0.825200
     17 C17        -5.1880    1.2330    0.8190 c3        1 ZY0      0.210100
     18 C18         1.4030    3.0920   -2.9610 ca        1 ZY0     -0.122000
     19 C19         2.3810    4.0660   -3.1560 ca        1 ZY0     -0.126000
     20 C20         2.4810    5.1440   -2.2780 ca        1 ZY0     -0.129000
     21 C21         1.5980    5.2470   -1.2030 ca        1 ZY0     -0.126000
     22 C22         0.6180    4.2770   -1.0070 ca        1 ZY0     -0.122000
     23 C9          3.9750   -3.7020   -0.4790 ca        1 ZY0     -0.019300
     24 C24         8.7630    1.0940    0.8800 c3        1 ZY0     -0.091400
     25 C25         8.8690    0.0780    2.0120 c3        1 ZY0     -0.159400
     26 C26         7.4780   -0.5280    2.1630 c         1 ZY0      0.713500
     27 N27         6.5890    0.1180    1.2780 n         1 ZY0     -0.386000
     28 C28         7.2960    1.0460    0.4040 c3        1 ZY0      0.087000
     29 C30         6.3810   -3.7690   -0.2450 ca        1 ZY0      0.428200
     30 N1          6.4720   -2.5260    0.1890 nb        1 ZY0     -0.662000
     31 C33         2.6800   -4.3530   -0.8210 c3        1 ZY0     -0.050100
     32 C34        -8.6370   -0.3350    0.7460 ca        1 ZY0     -0.171300
     33 C35        -8.5800   -1.2130    1.8310 ca        1 ZY0     -0.079000
     34 C36        -7.4070   -1.3020    2.5780 ca        1 ZY0     -0.137000
     35 C37        -6.3010   -0.5200    2.2470 ca        1 ZY0     -0.078000
     36 C38        -6.3600    0.3600    1.1600 ca        1 ZY0     -0.097300
     37 C39        -7.5340    0.4500    0.4060 ca        1 ZY0     -0.079000
     38 F3        -11.0650   -0.5250    0.5980 f         1 ZY0     -0.237967
     39 F1        -10.1400    0.9900   -0.6450 f         1 ZY0     -0.237967
     40 F2         -9.9400   -1.1040   -1.1610 f         1 ZY0     -0.237967
     41 C13         5.1510   -4.4110   -0.5840 ca        1 ZY0     -0.252300
     42 H2          1.8970   -1.9690   -0.2030 ha        1 ZY0      0.143000
     43 H4          4.2150    1.3340    1.3320 ha        1 ZY0      0.169000
     44 H8          0.9560   -0.0640   -1.1210 hn        1 ZY0      0.316500
     45 H10        -0.3170    2.1000    0.4770 h1        1 ZY0      0.100700
     46 H111       -0.5660    1.4640   -2.5670 hc        1 ZY0      0.051700
     47 H112       -1.5440    2.6840   -1.6510 hc        1 ZY0      0.051700
     48 H12        -1.3880   -0.2680    0.6950 h1        1 ZY0      0.103700
     49 H13        -2.1900    0.1890   -1.9720 ho        1 ZY0      0.397000
     50 H151       -2.5510    2.0120    1.0760 h1        1 ZY0      0.038700
     51 H152       -3.1390    1.9420   -0.6470 h1        1 ZY0      0.038700
     52 H18         1.3300    2.2440   -3.6580 ha        1 ZY0      0.130500
     53 H22        -0.0730    4.3590   -0.1550 ha        1 ZY0      0.130500
     54 H16        -4.0460   -0.3230    0.1520 hn        1 ZY0      0.374800
     55 H171       -5.0620    1.9960    1.6430 h1        1 ZY0      0.041200
     56 H172       -5.4200    1.8060   -0.1290 h1        1 ZY0      0.041200
     57 H19         3.0750    3.9810   -4.0050 ha        1 ZY0      0.132500
     58 H20         3.2540    5.9110   -2.4320 ha        1 ZY0      0.132000
     59 H21         1.6760    6.0950   -0.5060 ha        1 ZY0      0.132500
     60 H331        2.8020   -5.4700   -0.7710 hc        1 ZY0      0.056200
     61 H332        1.9050   -4.0810   -0.0540 hc        1 ZY0      0.056200
     62 HA          5.1660   -5.4570   -0.9190 ha        1 ZY0      0.146000
     63 H251        9.5930   -0.7400    1.7740 hc        1 ZY0      0.081200
     64 H252        9.1720    0.5530    2.9760 hc        1 ZY0      0.081200
     65 H30         7.3320   -4.3240   -0.3390 h4        1 ZY0      0.025100
     66 H321        2.9260   -4.2930   -2.9780 hc        1 ZY0      0.039367
     67 H322        1.2150   -4.4700   -2.4070 hc        1 ZY0      0.039367
     68 H323        2.0540   -2.8680   -2.2810 hc        1 ZY0      0.039367
     69 H35        -9.4590   -1.8230    2.0910 ha        1 ZY0      0.152000
     70 H39        -7.5980    1.1400   -0.4510 ha        1 ZY0      0.149000
     71 H36        -7.3550   -1.9920    3.4340 ha        1 ZY0      0.144000
     72 H37        -5.3750   -0.5920    2.8410 ha        1 ZY0      0.157000
     73 H241        9.0210    2.1210    1.2350 hc        1 ZY0      0.055700
     74 H242        9.4500    0.8350    0.0390 hc        1 ZY0      0.055700
     75 H281        6.8130    2.0570    0.4900 h1        1 ZY0      0.048700
     76 H282        7.2380    0.7170   -0.6690 h1        1 ZY0      0.048700
     77 O1          7.1610   -1.3970    2.9810 o         1 ZY0     -0.594500
     78 C8         -9.9080   -0.2440   -0.0880 c3        1 ZY0      0.687200
     79 C32         2.1930   -3.9730   -2.1990 c3        1 ZY0     -0.091100
@<TRIPOS>BOND
     1    1    2 ar  
     2    1    6 ar  
     3    1   23 ar  
     4    2    3 ar  
     5    2   42 1   
     6    3    4 ar  
     7    3    7 1   
     8    4    5 ar  
     9    4   43 1   
    10    5    6 ar  
    11    5   27 1   
    12    6   30 ar  
    13    7    8 1   
    14    7    9 2   
    15    8   10 1   
    16    8   44 1   
    17   10   11 1   
    18   10   12 1   
    19   10   45 1   
    20   11   14 1   
    21   11   46 1   
    22   11   47 1   
    23   12   13 1   
    24   12   15 1   
    25   12   48 1   
    26   13   49 1   
    27   14   18 ar  
    28   14   22 ar  
    29   15   16 1   
    30   15   50 1   
    31   15   51 1   
    32   16   17 1   
    33   16   54 1   
    34   17   36 1   
    35   17   55 1   
    36   17   56 1   
    37   18   19 ar  
    38   18   52 1   
    39   19   20 ar  
    40   19   57 1   
    41   20   21 ar  
    42   20   58 1   
    43   21   22 ar  
    44   21   59 1   
    45   22   53 1   
    46   23   31 1   
    47   23   41 ar  
    48   24   25 1   
    49   24   28 1   
    50   24   73 1   
    51   24   74 1   
    52   25   26 1   
    53   25   63 1   
    54   25   64 1   
    55   26   27 1   
    56   26   77 2   
    57   27   28 1   
    58   28   75 1   
    59   28   76 1   
    60   29   30 ar  
    61   29   41 ar  
    62   29   65 1   
    63   31   60 1   
    64   31   61 1   
    65   31   79 1   
    66   32   33 ar  
    67   32   37 ar  
    68   32   78 1   
    69   33   34 ar  
    70   33   69 1   
    71   34   35 ar  
    72   34   71 1   
    73   35   36 ar  
    74   35   72 1   
    75   36   37 ar  
    76   37   70 1   
    77   38   78 1   
    78   39   78 1   
    79   40   78 1   
    80   41   62 1   
    81   66   79 1   
    82   67   79 1   
    83   68   79 1   
@<TRIPOS>SUBSTRUCTURE
     1 ZY0         1 TEMP              0 ****  ****    0 ROOT
