@<TRIPOS>MOLECULE
ZY0
   81    85     1     0     0
SMALL
bcc


@<TRIPOS>ATOM
      1 C1         -0.6160   -0.3000   -0.5530 ca        1 ZY0     -0.157300
      2 C2          0.6120   -0.5420   -1.2120 ca        1 ZY0     -0.004000
      3 C3          1.7970   -0.3660   -0.5230 ca        1 ZY0     -0.196600
      4 C4          1.8050    0.1210    0.8050 ca        1 ZY0     -0.225000
      5 C5          0.6310    0.3450    1.5210 ca        1 ZY0      0.098300
      6 C6         -0.6400    0.1090    0.8220 ca        1 ZY0      0.431600
      7 C7          3.0530   -0.6960   -1.1780 c         1 ZY0      0.595700
      8 N8          4.0990   -1.3670   -0.2990 n4        1 ZY0     -0.679800
      9 O9          3.3910   -0.5610   -2.3510 o         1 ZY0     -0.488100
     10 C10         5.2630   -0.5040    0.0950 c3        1 ZY0      0.106500
     11 C11         6.3550   -1.3680    0.7590 c3        1 ZY0     -0.049100
     12 C12         5.8340    0.2860   -1.1140 c3        1 ZY0      0.110100
     13 O13         6.2860   -0.5930   -2.1260 oh        1 ZY0     -0.609800
     14 C14         5.8150   -2.5150    1.5350 ca        1 ZY0     -0.187300
     15 C15         7.0640    1.1050   -0.6630 c3        1 ZY0      0.098800
     16 N16         7.7380    1.7760   -1.8060 n4        1 ZY0     -0.767000
     17 C17         9.0330    2.4340   -1.3970 c3        1 ZY0      0.184100
     18 C18         6.2150   -3.8190    1.2150 ca        1 ZY0     -0.132000
     19 C19         5.7700   -4.8960    1.9810 ca        1 ZY0     -0.112500
     20 C20         4.9250   -4.6780    3.0700 ca        1 ZY0     -0.090000
     21 C21         4.5250   -3.3800    3.3920 ca        1 ZY0     -0.112500
     22 C22         4.9680   -2.3000    2.6310 ca        1 ZY0     -0.132000
     23 C9         -1.8640   -0.4880   -1.2360 ca        1 ZY0     -0.000300
     24 C24         0.1870    1.9230    4.9190 c3        1 ZY0     -0.103400
     25 C25         1.6000    1.3640    5.0000 c3        1 ZY0     -0.151400
     26 C26         1.8680    0.7270    3.6470 c         1 ZY0      0.718500
     27 N27         0.7030    0.7690    2.8470 n         1 ZY0     -0.371000
     28 C28        -0.3950    1.3970    3.5910 c3        1 ZY0      0.092000
     29 C30        -2.9650    0.0790    0.8350 ca        1 ZY0      0.470200
     30 N1         -1.8280    0.2810    1.4850 nb        1 ZY0     -0.684000
     31 C33        -1.9170   -0.8720   -2.6750 c3        1 ZY0     -0.061100
     32 C34        11.0350    2.7510   -4.5800 ca        1 ZY0     -0.158300
     33 C35        11.0800    4.1360   -4.7540 ca        1 ZY0     -0.022000
     34 C36        10.4380    4.9680   -3.8320 ca        1 ZY0     -0.116000
     35 C37         9.7520    4.4200   -2.7500 ca        1 ZY0     -0.065000
     36 C38         9.7130    3.0290   -2.5790 ca        1 ZY0     -0.207300
     37 C39        10.3640    2.1930   -3.4930 ca        1 ZY0     -0.066000
     38 F3         11.9270    2.3650   -6.8150 f         1 ZY0     -0.218633
     39 F1         12.9820    1.4160   -5.1610 f         1 ZY0     -0.218633
     40 F2         11.0500    0.6520   -5.7980 f         1 ZY0     -0.218633
     41 C13        -3.0380   -0.2990   -0.5350 ca        1 ZY0     -0.227300
     42 H2          0.6140   -0.8930   -2.2590 ha        1 ZY0      0.170000
     43 H4          2.7790    0.3710    1.2540 ha        1 ZY0      0.152000
     44 H8          3.6540   -1.6960    0.5780 hn        1 ZY0      0.481800
     45 H10         4.8680    0.2430    0.8520 hx        1 ZY0      0.123700
     46 H111        6.9330   -0.7000    1.4550 hc        1 ZY0      0.085200
     47 H112        7.0550   -1.7410   -0.0390 hc        1 ZY0      0.085200
     48 H12         5.0410    0.9840   -1.5100 h1        1 ZY0      0.079700
     49 H13         5.5530   -0.7580   -2.7430 ho        1 ZY0      0.461000
     50 H151        7.8230    0.4200   -0.1820 hx        1 ZY0      0.122700
     51 H152        6.7410    1.8840    0.0840 hx        1 ZY0      0.122700
     52 H18         6.9000   -3.9990    0.3720 ha        1 ZY0      0.149000
     53 H22         4.6660   -1.2770    2.9140 ha        1 ZY0      0.149000
     54 H16         7.1180    2.4820   -2.2190 hn        1 ZY0      0.461300
     55 H171        9.6820    1.6390   -0.9250 hx        1 ZY0      0.112700
     56 H172        8.7900    3.2180   -0.6230 hx        1 ZY0      0.112700
     57 H19         6.0970   -5.9180    1.7320 ha        1 ZY0      0.161500
     58 H20         4.5840   -5.5290    3.6830 ha        1 ZY0      0.165000
     59 H21         3.8680   -3.2040    4.2600 ha        1 ZY0      0.161500
     60 H331       -1.1430   -0.3000   -3.2540 hc        1 ZY0      0.068200
     61 H332       -2.9160   -0.5720   -3.1000 hc        1 ZY0      0.068200
     62 HA         -4.0230   -0.4320   -1.0100 ha        1 ZY0      0.178000
     63 H251        1.7000    0.5840    5.7970 hc        1 ZY0      0.099700
     64 H252        2.3630    2.1600    5.1910 hc        1 ZY0      0.099700
     65 H30        -3.8940    0.2260    1.4240 h4        1 ZY0      0.056100
     66 H321       -1.7770   -2.5960   -3.9710 hc        1 ZY0      0.048033
     67 H322       -2.5290   -2.9330   -2.3570 hc        1 ZY0      0.048033
     68 H323       -0.7390   -2.6940   -2.4860 hc        1 ZY0      0.048033
     69 H35        11.6220    4.5680   -5.6160 ha        1 ZY0      0.188000
     70 H39        10.3680    1.0980   -3.3590 ha        1 ZY0      0.150000
     71 H36        10.4800    6.0630   -3.9610 ha        1 ZY0      0.178000
     72 H37         9.2590    5.0860   -2.0240 ha        1 ZY0      0.150000
     73 H241       -0.4400    1.5780    5.7770 hc        1 ZY0      0.079200
     74 H242        0.1940    3.0400    4.9260 hc        1 ZY0      0.079200
     75 H281       -1.1900    0.6330    3.8120 h1        1 ZY0      0.083700
     76 H282       -0.8340    2.2360    2.9870 h1        1 ZY0      0.083700
     77 C8         11.7380    1.8210   -5.5730 c3        1 ZY0      0.690200
     78 C32        -1.7280   -2.3570   -2.8800 c3        1 ZY0     -0.095100
     79 H82         4.4720   -2.1880   -0.7980 hn        1 ZY0      0.481800
     80 H162        7.9360    1.0710   -2.5350 hn        1 ZY0      0.461300
     81 O1          2.9570    0.2390    3.2980 o         1 ZY0     -0.673500
@<TRIPOS>BOND
     1    1    2 ar  
     2    1    6 ar  
     3    1   23 ar  
     4    2    3 ar  
     5    2   42 1   
     6    3    4 ar  
     7    3    7 1   
     8    4    5 ar  
     9    4   43 1   
    10    5    6 ar  
    11    5   27 1   
    12    6   30 ar  
    13    7    8 1   
    14    7    9 2   
    15    8   10 1   
    16    8   44 1   
    17    8   79 1   
    18   10   11 1   
    19   10   12 1   
    20   10   45 1   
    21   11   14 1   
    22   11   46 1   
    23   11   47 1   
    24   12   13 1   
    25   12   15 1   
    26   12   48 1   
    27   13   49 1   
    28   14   18 ar  
    29   14   22 ar  
    30   15   16 1   
    31   15   50 1   
    32   15   51 1   
    33   16   17 1   
    34   16   54 1   
    35   16   80 1   
    36   17   36 1   
    37   17   55 1   
    38   17   56 1   
    39   18   19 ar  
    40   18   52 1   
    41   19   20 ar  
    42   19   57 1   
    43   20   21 ar  
    44   20   58 1   
    45   21   22 ar  
    46   21   59 1   
    47   22   53 1   
    48   23   31 1   
    49   23   41 ar  
    50   24   25 1   
    51   24   28 1   
    52   24   73 1   
    53   24   74 1   
    54   25   26 1   
    55   25   63 1   
    56   25   64 1   
    57   26   27 1   
    58   26   81 2   
    59   27   28 1   
    60   28   75 1   
    61   28   76 1   
    62   29   30 ar  
    63   29   41 ar  
    64   29   65 1   
    65   31   60 1   
    66   31   61 1   
    67   31   78 1   
    68   32   33 ar  
    69   32   37 ar  
    70   32   77 1   
    71   33   34 ar  
    72   33   69 1   
    73   34   35 ar  
    74   34   71 1   
    75   35   36 ar  
    76   35   72 1   
    77   36   37 ar  
    78   37   70 1   
    79   38   77 1   
    80   39   77 1   
    81   40   77 1   
    82   41   62 1   
    83   66   78 1   
    84   67   78 1   
    85   68   78 1   
@<TRIPOS>SUBSTRUCTURE
     1 ZY0         1 TEMP              0 ****  ****    0 ROOT
