@<TRIPOS>MOLECULE
ZY1
   82    86     1     0     0
SMALL
bcc


@<TRIPOS>ATOM
      1 C69        -1.3530    0.6780    4.1210 c3        1 ZY1     -0.096100
      2 C68        -0.6170   -0.0660    3.0320 c3        1 ZY1     -0.017200
      3 C58         0.8290   -0.1650    3.2870 cc        1 ZY1     -0.102400
      4 C57         1.6990    0.8850    3.5780 cd        1 ZY1     -0.069100
      5 N56         3.0110    0.3990    3.7470 na        1 ZY1     -0.045400
      6 C62         4.1690    1.1920    4.0800 c3        1 ZY1      0.085300
      7 C61         5.3290    1.0650    3.1060 c3        1 ZY1     -0.348600
      8 S60         6.1230   -0.4530    2.8360 s6        1 ZY1      1.443900
      9 O80         7.4640   -0.3080    3.2120 o         1 ZY1     -0.622300
     10 O79         5.8460   -0.8340    1.5140 o         1 ZY1     -0.622300
     11 N59         5.3660   -1.4870    3.8720 nh        1 ZY1     -0.689900
     12 C75         6.0050   -2.0140    5.0490 c3        1 ZY1      0.195100
     13 C10         4.0540   -1.9210    3.6090 ca        1 ZY1      0.144600
     14 C9          3.7230   -3.2500    3.3610 ca        1 ZY1     -0.047000
     15 C8          2.3940   -3.6420    3.0370 ca        1 ZY1     -0.249600
     16 C13         1.3450   -2.7070    3.0020 ca        1 ZY1     -0.020000
     17 C12         1.6270   -1.3790    3.2570 ca        1 ZY1     -0.092800
     18 C11         2.9910   -0.9700    3.5630 ca        1 ZY1      0.002800
     19 C1          2.2250   -5.0480    2.7430 c         1 ZY1      0.584700
     20 O7          3.0050   -5.9800    2.9240 o         1 ZY1     -0.488100
     21 N2          0.9170   -5.4410    2.0570 n4        1 ZY1     -0.683800
     22 C3          0.8460   -6.8710    1.6080 c3        1 ZY1      0.117500
     23 C5         -0.5960   -7.2400    1.2190 c3        1 ZY1     -0.051100
     24 C14        -1.6100   -6.7180    2.1750 ca        1 ZY1     -0.181300
     25 C15        -2.6730   -5.9360    1.7080 ca        1 ZY1     -0.131000
     26 C16        -3.6640   -5.5060    2.5900 ca        1 ZY1     -0.111500
     27 C17        -3.6010   -5.8520    3.9390 ca        1 ZY1     -0.089000
     28 C18        -2.5420   -6.6330    4.4090 ca        1 ZY1     -0.111500
     29 C19        -1.5520   -7.0680    3.5310 ca        1 ZY1     -0.131000
     30 O47         6.9260  -11.6050   -2.7130 os        1 ZY1     -0.318900
     31 C4          1.8400   -7.1440    0.4460 c3        1 ZY1      0.102100
     32 C48         7.9100  -12.0770   -3.6360 c3        1 ZY1      0.105700
     33 O21         1.5360   -6.3090   -0.6570 oh        1 ZY1     -0.603800
     34 C6          1.6820   -8.6020   -0.0310 c3        1 ZY1      0.092800
     35 N20         2.6090   -8.9360   -1.1440 n4        1 ZY1     -0.768000
     36 C37         2.3890  -10.3380   -1.6650 c3        1 ZY1      0.184100
     37 C39         3.4200  -10.6690   -2.6860 ca        1 ZY1     -0.167300
     38 C42         4.7160  -10.9820   -2.2640 ca        1 ZY1     -0.160000
     39 C43         5.6810  -11.3350   -3.2240 ca        1 ZY1      0.153100
     40 C44         5.3430  -11.3820   -4.5880 ca        1 ZY1     -0.149000
     41 C45         4.0460  -11.0690   -4.9830 ca        1 ZY1     -0.076000
     42 C46         3.0810  -10.7040   -4.0410 ca        1 ZY1     -0.130000
     43 H2          0.7680   -4.8290    1.2480 hn        1 ZY1      0.471300
     44 H3          1.1710   -7.5020    2.4930 hx        1 ZY1      0.126700
     45 H51C       -0.6630   -8.3630    1.2080 hc        1 ZY1      0.085700
     46 H52C       -0.8040   -6.8670    0.1790 hc        1 ZY1      0.085700
     47 H61C        0.6310   -8.7640   -0.4130 hx        1 ZY1      0.123200
     48 H62C        1.8790   -9.3010    0.8310 hx        1 ZY1      0.123200
     49 H21         2.2230   -5.6310   -0.7320 ho        1 ZY1      0.442000
     50 H20         2.4660   -8.2650   -1.9130 hn        1 ZY1      0.458300
     51 H9          4.5050   -4.0290    3.4050 ha        1 ZY1      0.169000
     52 H13         0.3020   -2.9900    2.7940 ha        1 ZY1      0.131000
     53 H15        -2.7460   -5.6790    0.6390 ha        1 ZY1      0.137500
     54 H19        -0.7430   -7.7160    3.9010 ha        1 ZY1      0.137500
     55 H16        -4.5070   -4.9030    2.2130 ha        1 ZY1      0.163500
     56 H17        -4.3920   -5.5220    4.6330 ha        1 ZY1      0.167000
     57 H18        -2.5000   -6.9210    5.4730 ha        1 ZY1      0.163500
     58 H371        1.3490  -10.3840   -2.0980 hx        1 ZY1      0.110700
     59 H372        2.4570  -11.0390   -0.7830 hx        1 ZY1      0.110700
     60 H42         4.9940  -10.9910   -1.2010 ha        1 ZY1      0.147000
     61 H46         2.0580  -10.4720   -4.3720 ha        1 ZY1      0.145000
     62 H44         6.0930  -11.6710   -5.3420 ha        1 ZY1      0.171000
     63 H45         3.7760  -11.1130   -6.0510 ha        1 ZY1      0.168000
     64 H481        8.7970  -12.2700   -2.9790 h1        1 ZY1      0.064700
     65 H482        8.1420  -11.2890   -4.3930 h1        1 ZY1      0.064700
     66 H483        7.5680  -13.0180   -4.1290 h1        1 ZY1      0.064700
     67 H57         1.4850    1.9530    3.6850 h4        1 ZY1      0.202000
     68 H621        4.5130    0.8990    5.1170 h1        1 ZY1      0.087700
     69 H622        3.8410    2.2720    4.1160 h1        1 ZY1      0.087700
     70 H681       -1.0480   -1.0990    2.9290 hc        1 ZY1      0.050200
     71 H682       -0.7800    0.4580    2.0480 hc        1 ZY1      0.050200
     72 H751        5.4740   -1.6650    5.9750 h1        1 ZY1      0.063367
     73 H752        5.9970   -3.1370    5.0350 h1        1 ZY1      0.063367
     74 H753        7.0730   -1.6610    5.0830 h1        1 ZY1      0.063367
     75 H611        4.9990    1.4650    2.1040 h1        1 ZY1      0.146700
     76 H612        6.1040    1.8040    3.4680 h1        1 ZY1      0.146700
     77 H691       -1.2490    0.1550    5.1020 hc        1 ZY1      0.048700
     78 H692       -0.9520    1.7150    4.2310 hc        1 ZY1      0.048700
     79 H693       -2.4390    0.7450    3.8670 hc        1 ZY1      0.048700
     80 H4          2.8920   -6.9740    0.8210 h1        1 ZY1      0.094700
     81 H22         0.1420   -5.2860    2.7240 hn        1 ZY1      0.471300
     82 H202        3.5860   -8.8550   -0.8350 hn        1 ZY1      0.458300
@<TRIPOS>BOND
     1    1    2 1   
     2    1   77 1   
     3    1   78 1   
     4    1   79 1   
     5    2    3 1   
     6    2   70 1   
     7    2   71 1   
     8    3    4 2   
     9    3   17 1   
    10    4    5 1   
    11    4   67 1   
    12    5    6 1   
    13    5   18 1   
    14    6    7 1   
    15    6   68 1   
    16    6   69 1   
    17    7    8 1   
    18    7   75 1   
    19    7   76 1   
    20    8    9 2   
    21    8   10 2   
    22    8   11 1   
    23   11   12 1   
    24   11   13 1   
    25   12   72 1   
    26   12   73 1   
    27   12   74 1   
    28   13   14 ar  
    29   13   18 ar  
    30   14   15 ar  
    31   14   51 1   
    32   15   16 ar  
    33   15   19 1   
    34   16   17 ar  
    35   16   52 1   
    36   17   18 ar  
    37   19   20 2   
    38   19   21 1   
    39   21   22 1   
    40   21   43 1   
    41   21   81 1   
    42   22   23 1   
    43   22   31 1   
    44   22   44 1   
    45   23   24 1   
    46   23   45 1   
    47   23   46 1   
    48   24   25 ar  
    49   24   29 ar  
    50   25   26 ar  
    51   25   53 1   
    52   26   27 ar  
    53   26   55 1   
    54   27   28 ar  
    55   27   56 1   
    56   28   29 ar  
    57   28   57 1   
    58   29   54 1   
    59   30   32 1   
    60   30   39 1   
    61   31   33 1   
    62   31   34 1   
    63   31   80 1   
    64   32   64 1   
    65   32   65 1   
    66   32   66 1   
    67   33   49 1   
    68   34   35 1   
    69   34   47 1   
    70   34   48 1   
    71   35   36 1   
    72   35   50 1   
    73   35   82 1   
    74   36   37 1   
    75   36   58 1   
    76   36   59 1   
    77   37   38 ar  
    78   37   42 ar  
    79   38   39 ar  
    80   38   60 1   
    81   39   40 ar  
    82   40   41 ar  
    83   40   62 1   
    84   41   42 ar  
    85   41   63 1   
    86   42   61 1   
@<TRIPOS>SUBSTRUCTURE
     1 ZY1         1 TEMP              0 ****  ****    0 ROOT
