@<TRIPOS>MOLECULE
ZY1
   80    84     1     0     0
SMALL
bcc


@<TRIPOS>ATOM
      1 C69         1.9400    3.3910    3.5770 c3        1 ZY1     -0.089100
      2 C68         2.3970    4.0480    2.2950 c3        1 ZY1     -0.013200
      3 C58         3.3470    3.2150    1.5420 cc        1 ZY1     -0.119400
      4 C57         4.7110    3.4500    1.3810 cd        1 ZY1     -0.098100
      5 N56         5.2880    2.4350    0.6000 na        1 ZY1     -0.081400
      6 C62         6.6520    2.3770    0.1630 c3        1 ZY1      0.099300
      7 C61         6.8400    2.3260   -1.3460 c3        1 ZY1     -0.337600
      8 S60         6.3560    0.9200   -2.2500 s6        1 ZY1      1.444900
      9 O80         7.5470    0.2670   -2.6370 o         1 ZY1     -0.639300
     10 O79         5.5400    1.3820   -3.2930 o         1 ZY1     -0.639300
     11 N59         5.5450   -0.0070   -1.1850 nh        1 ZY1     -0.688900
     12 C75         6.0260   -1.2990   -0.7750 c3        1 ZY1      0.202100
     13 C10         4.3200    0.4040   -0.6120 ca        1 ZY1      0.103600
     14 C9          3.1200   -0.2840   -0.8110 ca        1 ZY1     -0.054000
     15 C8          1.9200    0.1400   -0.2040 ca        1 ZY1     -0.157600
     16 C13         1.8630    1.2800    0.5900 ca        1 ZY1     -0.049000
     17 C12         3.0340    2.0040    0.8060 ca        1 ZY1     -0.087800
     18 C11         4.2730    1.5530    0.2210 ca        1 ZY1     -0.040200
     19 C1          0.7040   -0.6810   -0.4830 c         1 ZY1      0.680700
     20 O7          0.5160   -1.2150   -1.5960 o         1 ZY1     -0.605100
     21 N2         -0.1890   -0.8550    0.5550 n         1 ZY1     -0.563900
     22 C3         -1.4230   -1.5890    0.4110 c3        1 ZY1      0.080700
     23 C5         -1.5500   -2.7160    1.4540 c3        1 ZY1     -0.053100
     24 C14        -0.5090   -3.7670    1.3010 ca        1 ZY1     -0.078300
     25 C15         0.4330   -3.9820    2.3130 ca        1 ZY1     -0.121500
     26 C16         1.3920   -4.9850    2.1810 ca        1 ZY1     -0.127000
     27 C17         1.4190   -5.7820    1.0370 ca        1 ZY1     -0.130000
     28 C18         0.4830   -5.5720    0.0240 ca        1 ZY1     -0.127000
     29 C19        -0.4780   -4.5710    0.1550 ca        1 ZY1     -0.121500
     30 O47        -8.5470    3.1300   -1.3860 os        1 ZY1     -0.325900
     31 C4         -2.6480   -0.6350    0.4960 c3        1 ZY1      0.106100
     32 C48        -9.6890    3.9710   -1.2820 c3        1 ZY1      0.113700
     33 O21        -2.8360   -0.1350    1.8070 oh        1 ZY1     -0.598800
     34 C6         -3.9160   -1.3310   -0.0290 c3        1 ZY1      0.138800
     35 N20        -5.0170   -0.4050   -0.1950 n3        1 ZY1     -0.825200
     36 C37        -6.2850   -1.0660   -0.4400 c3        1 ZY1      0.211100
     37 C39        -7.4740   -0.1640   -0.2840 ca        1 ZY1     -0.066300
     38 C42        -7.4910    1.0920   -0.8870 ca        1 ZY1     -0.135000
     39 C43        -8.6340    1.9030   -0.7530 ca        1 ZY1      0.121100
     40 C44        -9.7480    1.4640   -0.0290 ca        1 ZY1     -0.202000
     41 C45        -9.7110    0.2020    0.5650 ca        1 ZY1     -0.098000
     42 C46        -8.5860   -0.6080    0.4450 ca        1 ZY1     -0.161000
     43 H2         -0.0400   -0.3950    1.4210 hn        1 ZY1      0.316500
     44 H3         -1.4280   -2.0570   -0.6220 h1        1 ZY1      0.100700
     45 H51C       -1.5060   -2.2810    2.4890 hc        1 ZY1      0.051200
     46 H52C       -2.5610   -3.1910    1.3290 hc        1 ZY1      0.051200
     47 H61C       -3.6920   -1.7770   -1.0390 h1        1 ZY1      0.035700
     48 H62C       -4.1800   -2.1810    0.6690 h1        1 ZY1      0.035700
     49 H21        -3.1280   -0.8700    2.3620 ho        1 ZY1      0.396000
     50 H20        -5.0750    0.2220    0.5870 hn        1 ZY1      0.374800
     51 H9          3.0870   -1.1750   -1.4630 ha        1 ZY1      0.166000
     52 H13         0.9210    1.6330    1.0370 ha        1 ZY1      0.146000
     53 H15         0.4190   -3.3570    3.2180 ha        1 ZY1      0.131000
     54 H19        -1.2100   -4.4050   -0.6490 ha        1 ZY1      0.131000
     55 H16         2.1280   -5.1470    2.9820 ha        1 ZY1      0.132000
     56 H17         2.1760   -6.5720    0.9320 ha        1 ZY1      0.131000
     57 H18         0.5030   -6.1950   -0.8820 ha        1 ZY1      0.132000
     58 H371       -6.2610   -1.4420   -1.5050 h1        1 ZY1      0.038700
     59 H372       -6.4250   -1.9710    0.2260 h1        1 ZY1      0.038700
     60 H42        -6.6300    1.4600   -1.4650 ha        1 ZY1      0.165000
     61 H46        -8.5720   -1.6000    0.9190 ha        1 ZY1      0.131000
     62 H44       -10.6420    2.0920    0.0770 ha        1 ZY1      0.137000
     63 H45       -10.5830   -0.1520    1.1350 ha        1 ZY1      0.131000
     64 H481      -10.5820    3.4840   -1.7430 h1        1 ZY1      0.043700
     65 H482       -9.8920    4.2320   -0.2150 h1        1 ZY1      0.043700
     66 H483       -9.3930    4.8820   -1.8630 h1        1 ZY1      0.043700
     67 H57         5.3240    4.2630    1.7740 h4        1 ZY1      0.171000
     68 H621        7.1810    3.2900    0.5630 h1        1 ZY1      0.062700
     69 H622        7.1380    1.4670    0.6250 h1        1 ZY1      0.062700
     70 H681        1.5010    4.2560    1.6460 hc        1 ZY1      0.049200
     71 H682        2.8710    5.0380    2.5330 hc        1 ZY1      0.049200
     72 H751        6.9430   -1.5690   -1.3670 h1        1 ZY1      0.054700
     73 H752        6.2860   -1.2920    0.3180 h1        1 ZY1      0.054700
     74 H753        5.2390   -2.0810   -0.9470 h1        1 ZY1      0.054700
     75 H611        6.3390    3.2260   -1.8020 h1        1 ZY1      0.128700
     76 H612        7.9420    2.4750   -1.5240 h1        1 ZY1      0.128700
     77 H691        1.4470    2.4120    3.3610 hc        1 ZY1      0.035700
     78 H692        2.8040    3.2060    4.2580 hc        1 ZY1      0.035700
     79 H693        1.2070    4.0500    4.1030 hc        1 ZY1      0.035700
     80 H4         -2.4440    0.2930   -0.1170 h1        1 ZY1      0.103700
@<TRIPOS>BOND
     1    1    2 1   
     2    1   77 1   
     3    1   78 1   
     4    1   79 1   
     5    2    3 1   
     6    2   70 1   
     7    2   71 1   
     8    3    4 2   
     9    3   17 1   
    10    4    5 1   
    11    4   67 1   
    12    5    6 1   
    13    5   18 1   
    14    6    7 1   
    15    6   68 1   
    16    6   69 1   
    17    7    8 1   
    18    7   75 1   
    19    7   76 1   
    20    8    9 2   
    21    8   10 2   
    22    8   11 1   
    23   11   12 1   
    24   11   13 1   
    25   12   72 1   
    26   12   73 1   
    27   12   74 1   
    28   13   14 ar  
    29   13   18 ar  
    30   14   15 ar  
    31   14   51 1   
    32   15   16 ar  
    33   15   19 1   
    34   16   17 ar  
    35   16   52 1   
    36   17   18 ar  
    37   19   20 2   
    38   19   21 1   
    39   21   22 1   
    40   21   43 1   
    41   22   23 1   
    42   22   31 1   
    43   22   44 1   
    44   23   24 1   
    45   23   45 1   
    46   23   46 1   
    47   24   25 ar  
    48   24   29 ar  
    49   25   26 ar  
    50   25   53 1   
    51   26   27 ar  
    52   26   55 1   
    53   27   28 ar  
    54   27   56 1   
    55   28   29 ar  
    56   28   57 1   
    57   29   54 1   
    58   30   32 1   
    59   30   39 1   
    60   31   33 1   
    61   31   34 1   
    62   31   80 1   
    63   32   64 1   
    64   32   65 1   
    65   32   66 1   
    66   33   49 1   
    67   34   35 1   
    68   34   47 1   
    69   34   48 1   
    70   35   36 1   
    71   35   50 1   
    72   36   37 1   
    73   36   58 1   
    74   36   59 1   
    75   37   38 ar  
    76   37   42 ar  
    77   38   39 ar  
    78   38   60 1   
    79   39   40 ar  
    80   40   41 ar  
    81   40   62 1   
    82   41   42 ar  
    83   41   63 1   
    84   42   61 1   
@<TRIPOS>SUBSTRUCTURE
     1 ZY1         1 TEMP              0 ****  ****    0 ROOT
