@<TRIPOS>MOLECULE
ZY1
   82    86     1     0     0
SMALL
bcc


@<TRIPOS>ATOM
      1 C69        -1.4010   -0.5640    4.1640 c3        1 ZY1     -0.092100
      2 C68        -0.5600    0.0210    3.0530 c3        1 ZY1     -0.023200
      3 C58         0.8820   -0.1040    3.3080 cc        1 ZY1     -0.103400
      4 C57         1.7650    0.9330    3.6030 cd        1 ZY1     -0.068100
      5 N56         3.0690    0.4290    3.7800 na        1 ZY1     -0.046400
      6 C62         4.2370    1.2060    4.1180 c3        1 ZY1      0.085300
      7 C61         5.4000    1.0620    3.1490 c3        1 ZY1     -0.348600
      8 S60         6.1740   -0.4670    2.8850 s6        1 ZY1      1.443900
      9 O80         7.5150   -0.3400    3.2670 o         1 ZY1     -0.622300
     10 O79         5.8990   -0.8440    1.5600 o         1 ZY1     -0.622300
     11 N59         5.3970   -1.4900    3.9160 nh        1 ZY1     -0.689900
     12 C75         6.0220   -2.0250    5.0970 c3        1 ZY1      0.195100
     13 C10         4.0800   -1.9050    3.6460 ca        1 ZY1      0.143600
     14 C9          3.7320   -3.2290    3.3930 ca        1 ZY1     -0.047000
     15 C8          2.4000   -3.6020    3.0610 ca        1 ZY1     -0.249600
     16 C13         1.3650   -2.6520    3.0230 ca        1 ZY1     -0.020000
     17 C12         1.6640   -1.3290    3.2830 ca        1 ZY1     -0.091800
     18 C11         3.0310   -0.9400    3.5950 ca        1 ZY1      0.003800
     19 C1          2.2140   -5.0040    2.7610 c         1 ZY1      0.584700
     20 O7          2.9780   -5.9480    2.9450 o         1 ZY1     -0.487100
     21 N2          0.9070   -5.3750    2.0610 ny        1 ZY1     -0.682800
     22 C3          0.8240   -6.7990    1.5930 c3        1 ZY1      0.117500
     23 C5         -0.6180   -7.1480    1.1870 c3        1 ZY1     -0.051100
     24 C14        -1.6350   -6.6300    2.1400 ca        1 ZY1     -0.181300
     25 C15        -2.6880   -5.8330    1.6750 ca        1 ZY1     -0.131000
     26 C16        -3.6830   -5.4060    2.5540 ca        1 ZY1     -0.111500
     27 C17        -3.6330   -5.7690    3.9000 ca        1 ZY1     -0.089000
     28 C18        -2.5840   -6.5640    4.3690 ca        1 ZY1     -0.111500
     29 C19        -1.5900   -6.9960    3.4930 ca        1 ZY1     -0.131000
     30 O47         6.8970  -11.5400   -2.7310 os        1 ZY1     -0.318900
     31 C4          1.8260   -7.0660    0.4360 c3        1 ZY1      0.102100
     32 C48         7.8860  -12.0100   -3.6500 c3        1 ZY1      0.105700
     33 O21         1.5390   -6.2150   -0.6590 oh        1 ZY1     -0.603800
     34 C6          1.6590   -8.5180   -0.0600 c3        1 ZY1      0.092800
     35 N20         2.5920   -8.8460   -1.1690 ny        1 ZY1     -0.768000
     36 C37         2.3640  -10.2390   -1.7090 c3        1 ZY1      0.184100
     37 C39         3.4010  -10.5680   -2.7240 ca        1 ZY1     -0.167300
     38 C42         4.6890  -10.8990   -2.2950 ca        1 ZY1     -0.160000
     39 C43         5.6600  -11.2510   -3.2500 ca        1 ZY1      0.153100
     40 C44         5.3350  -11.2780   -4.6170 ca        1 ZY1     -0.149000
     41 C45         4.0440  -10.9470   -5.0200 ca        1 ZY1     -0.076000
     42 C46         3.0750  -10.5840   -4.0830 ca        1 ZY1     -0.130000
     43 H2          0.1280   -5.2220    2.7250 hn        1 ZY1      0.471300
     44 H3          1.1350   -7.4440    2.4720 hx        1 ZY1      0.127700
     45 H51C       -0.6960   -8.2700    1.1590 hc        1 ZY1      0.085700
     46 H52C       -0.8130   -6.7580    0.1500 hc        1 ZY1      0.085700
     47 H61C        1.8420   -9.2280    0.7950 hx        1 ZY1      0.123200
     48 H62C        0.6100   -8.6650   -0.4530 hx        1 ZY1      0.123200
     49 H21         2.2320   -5.5420   -0.7190 ho        1 ZY1      0.442000
     50 H20         3.5670   -8.7790   -0.8510 hn        1 ZY1      0.458300
     51 H9          4.5040   -4.0190    3.4410 ha        1 ZY1      0.169000
     52 H13         0.3180   -2.9180    2.8110 ha        1 ZY1      0.132000
     53 H15        -2.7500   -5.5620    0.6090 ha        1 ZY1      0.137500
     54 H19        -0.7890   -7.6550    3.8620 ha        1 ZY1      0.137500
     55 H16        -4.5180   -4.7920    2.1790 ha        1 ZY1      0.163500
     56 H17        -4.4270   -5.4410    4.5910 ha        1 ZY1      0.167000
     57 H18        -2.5520   -6.8650    5.4290 ha        1 ZY1      0.163500
     58 H371        1.3270  -10.2700   -2.1520 hx        1 ZY1      0.110700
     59 H372        2.4160  -10.9520   -0.8360 hx        1 ZY1      0.110700
     60 H42         4.9570  -10.9250   -1.2280 ha        1 ZY1      0.147000
     61 H46         2.0570  -10.3370   -4.4200 ha        1 ZY1      0.145000
     62 H44         6.0880  -11.5650   -5.3670 ha        1 ZY1      0.171000
     63 H45         3.7840  -10.9750   -6.0910 ha        1 ZY1      0.168000
     64 H481        7.5380  -12.9420   -4.1570 h1        1 ZY1      0.064700
     65 H482        8.1320  -11.2160   -4.3950 h1        1 ZY1      0.064700
     66 H483        8.7640  -12.2210   -2.9870 h1        1 ZY1      0.064700
     67 H57         1.5660    2.0050    3.7070 h4        1 ZY1      0.202000
     68 H621        4.5710    0.9090    5.1560 h1        1 ZY1      0.087700
     69 H622        3.9240    2.2910    4.1520 h1        1 ZY1      0.087700
     70 H681       -0.8070   -0.4940    2.0830 hc        1 ZY1      0.059700
     71 H682       -0.8240    1.1070    2.9240 hc        1 ZY1      0.059700
     72 H751        5.4910   -1.6680    6.0200 h1        1 ZY1      0.063367
     73 H752        7.0950   -1.6880    5.1360 h1        1 ZY1      0.063367
     74 H753        5.9980   -3.1480    5.0830 h1        1 ZY1      0.063367
     75 H611        5.0800    1.4660    2.1450 h1        1 ZY1      0.146700
     76 H612        6.1830    1.7900    3.5150 h1        1 ZY1      0.146700
     77 H691       -1.1770   -1.6500    4.2980 hc        1 ZY1      0.042033
     78 H692       -2.4850   -0.4500    3.9200 hc        1 ZY1      0.042033
     79 H693       -1.2000   -0.0430    5.1300 hc        1 ZY1      0.042033
     80 H4          2.8760   -6.9110    0.8220 h1        1 ZY1      0.094700
     81 H22         0.7690   -4.7510    1.2590 hn        1 ZY1      0.471300
     82 H202        2.4620   -8.1650   -1.9300 hn        1 ZY1      0.458300
@<TRIPOS>BOND
     1    1    2 1   
     2    1   77 1   
     3    1   78 1   
     4    1   79 1   
     5    2    3 1   
     6    2   70 1   
     7    2   71 1   
     8    3    4 2   
     9    3   17 1   
    10    4    5 1   
    11    4   67 1   
    12    5    6 1   
    13    5   18 1   
    14    6    7 1   
    15    6   68 1   
    16    6   69 1   
    17    7    8 1   
    18    7   75 1   
    19    7   76 1   
    20    8    9 2   
    21    8   10 2   
    22    8   11 1   
    23   11   12 1   
    24   11   13 1   
    25   12   72 1   
    26   12   73 1   
    27   12   74 1   
    28   13   14 ar  
    29   13   18 ar  
    30   14   15 ar  
    31   14   51 1   
    32   15   16 ar  
    33   15   19 1   
    34   16   17 ar  
    35   16   52 1   
    36   17   18 ar  
    37   19   20 2   
    38   19   21 1   
    39   21   22 1   
    40   21   43 1   
    41   21   81 1   
    42   22   23 1   
    43   22   31 1   
    44   22   44 1   
    45   23   24 1   
    46   23   45 1   
    47   23   46 1   
    48   24   25 ar  
    49   24   29 ar  
    50   25   26 ar  
    51   25   53 1   
    52   26   27 ar  
    53   26   55 1   
    54   27   28 ar  
    55   27   56 1   
    56   28   29 ar  
    57   28   57 1   
    58   29   54 1   
    59   30   32 1   
    60   30   39 1   
    61   31   33 1   
    62   31   34 1   
    63   31   80 1   
    64   32   64 1   
    65   32   65 1   
    66   32   66 1   
    67   33   49 1   
    68   34   35 1   
    69   34   47 1   
    70   34   48 1   
    71   35   36 1   
    72   35   50 1   
    73   35   82 1   
    74   36   37 1   
    75   36   58 1   
    76   36   59 1   
    77   37   38 ar  
    78   37   42 ar  
    79   38   39 ar  
    80   38   60 1   
    81   39   40 ar  
    82   40   41 ar  
    83   40   62 1   
    84   41   42 ar  
    85   41   63 1   
    86   42   61 1   
@<TRIPOS>SUBSTRUCTURE
     1 ZY1         1 TEMP              0 ****  ****    0 ROOT
