@<TRIPOS>MOLECULE
ZY2
   86    90     1     0     0
SMALL
bcc


@<TRIPOS>ATOM
      1 C1          0.8260    0.8490   -0.8320 c         1 ZY2      0.596700
      2 N2          1.8290   -0.3000   -0.6770 n4        1 ZY2     -0.689800
      3 C3          2.5000   -0.3840    0.6610 c3        1 ZY2      0.123500
      4 C4          3.5910    0.7120    0.8080 c3        1 ZY2      0.100100
      5 C5          3.0480   -1.8060    0.8940 c3        1 ZY2     -0.050100
      6 C6          4.4720    0.4280    2.0410 c3        1 ZY2      0.090800
      7 O7          1.0000    1.7880   -0.0590 o         1 ZY2     -0.508100
      8 C8         -0.1880    0.6300   -1.8300 ca        1 ZY2     -0.271600
      9 C9         -0.0410   -0.2670   -2.8940 ca        1 ZY2     -0.033000
     10 C10        -1.1070   -0.5640   -3.7410 ca        1 ZY2      0.033600
     11 C11        -2.4090    0.0260   -3.5140 ca        1 ZY2      0.271600
     12 C12        -2.4690    1.1380   -2.5560 ca        1 ZY2      0.082600
     13 C13        -1.3890    1.3690   -1.7130 ca        1 ZY2     -0.077000
     14 C14         2.0060   -2.8440    0.6650 ca        1 ZY2     -0.168300
     15 C15         1.8460   -3.4180   -0.6050 ca        1 ZY2     -0.141000
     16 C16         0.8500   -4.3670   -0.8260 ca        1 ZY2     -0.096500
     17 C17         0.0350   -4.7800    0.2310 ca        1 ZY2     -0.094000
     18 C18         0.2120   -4.2360    1.5030 ca        1 ZY2     -0.096500
     19 C19         1.1890   -3.2640    1.7200 ca        1 ZY2     -0.141000
     20 N20         5.5010    1.4800    2.2530 n4        1 ZY2     -0.768000
     21 O21         4.4500    0.7020   -0.3210 oh        1 ZY2     -0.606800
     22 C37         6.4130    1.1560    3.4130 c3        1 ZY2      0.183100
     23 C39         7.3500    2.2860    3.6570 ca        1 ZY2     -0.167300
     24 C42         6.8750    3.4360    4.2930 ca        1 ZY2     -0.160000
     25 C43         7.7690    4.4890    4.5620 ca        1 ZY2      0.153100
     26 C44         9.1240    4.3790    4.2050 ca        1 ZY2     -0.150000
     27 C45         9.5740    3.2220    3.5750 ca        1 ZY2     -0.076000
     28 C46         8.6950    2.1750    3.2910 ca        1 ZY2     -0.130000
     29 O47         7.2020    5.5810    5.1700 os        1 ZY2     -0.319900
     30 C48         8.0910    6.6280    5.5660 c3        1 ZY2      0.105700
     31 N56        -3.5540   -0.4380   -4.0930 nh        1 ZY2     -0.626000
     32 C57        -4.8520    1.2840   -2.7990 c3        1 ZY2      0.168800
     33 N1         -3.6010    1.9780   -2.5740 nh        1 ZY2     -0.631000
     34 N59        -0.8790   -1.4450   -4.8210 nh        1 ZY2     -0.693900
     35 S60        -1.2990   -3.0180   -4.6600 s6        1 ZY2      1.452900
     36 C61        -3.0050   -2.8760   -4.4470 c3        1 ZY2     -0.345600
     37 C62        -3.6480   -1.5980   -4.9650 c3        1 ZY2      0.249800
     38 C68        -3.6340    3.0750   -1.6200 c3        1 ZY2      0.190800
     39 C69        -4.8180    4.0160   -1.7660 c3        1 ZY2     -0.107100
     40 C75        -0.3630   -0.8740   -6.0350 c3        1 ZY2      0.202100
     41 O79        -0.7530   -3.5400   -3.4690 o         1 ZY2     -0.639800
     42 O80        -1.0340   -3.7250   -5.8380 o         1 ZY2     -0.639800
     43 C2         -4.7770    0.3480   -4.0140 c3        1 ZY2      0.189800
     44 H2          1.3130   -1.1860   -0.8360 hn        1 ZY2      0.471300
     45 H3          1.7020   -0.1700    1.4370 hx        1 ZY2      0.122700
     46 H4          3.0710    1.7090    0.9210 h1        1 ZY2      0.101700
     47 H51C        3.3930   -1.8670    1.9620 hc        1 ZY2      0.080200
     48 H52C        3.9360   -1.9800    0.2280 hc        1 ZY2      0.080200
     49 H61C        3.8220    0.3620    2.9590 hx        1 ZY2      0.123200
     50 H62C        5.0230   -0.5470    1.8950 hx        1 ZY2      0.123200
     51 H21         4.2860    1.5050   -0.8370 ho        1 ZY2      0.441000
     52 H20         6.0660    1.5740    1.3970 hn        1 ZY2      0.457300
     53 H9          0.9330   -0.7420   -3.1040 ha        1 ZY2      0.131000
     54 H13        -1.4400    2.1350   -0.9190 ha        1 ZY2      0.166000
     55 H15         2.5300   -3.1520   -1.4250 ha        1 ZY2      0.130000
     56 H19         1.3220   -2.8410    2.7270 ha        1 ZY2      0.130000
     57 H16         0.6900   -4.7750   -1.8400 ha        1 ZY2      0.170500
     58 H17        -0.7420   -5.5430    0.0590 ha        1 ZY2      0.163000
     59 H18        -0.4170   -4.5760    2.3420 ha        1 ZY2      0.170500
     60 H371        6.9670    0.2080    3.1590 hx        1 ZY2      0.110700
     61 H372        5.7600    0.9740    4.3150 hx        1 ZY2      0.110700
     62 H42         5.8290    3.5300    4.6170 ha        1 ZY2      0.147000
     63 H46         9.0720    1.2640    2.8040 ha        1 ZY2      0.145000
     64 H44         9.8300    5.1950    4.4260 ha        1 ZY2      0.171000
     65 H45        10.6380    3.1300    3.3010 ha        1 ZY2      0.167000
     66 H481        8.5690    7.0910    4.6700 h1        1 ZY2      0.064367
     67 H482        7.4090    7.3570    6.0750 h1        1 ZY2      0.064367
     68 H483        8.8610    6.2420    6.2770 h1        1 ZY2      0.064367
     69 H621       -4.7480   -1.8120   -5.1210 h1        1 ZY2      0.080200
     70 H622       -3.2240   -1.3360   -5.9800 h1        1 ZY2      0.080200
     71 H221       -5.6600   -0.3520   -3.9540 h1        1 ZY2      0.081700
     72 H222       -4.8670    0.9540   -4.9630 h1        1 ZY2      0.081700
     73 H571       -5.6540    2.0470   -3.0150 h1        1 ZY2      0.072200
     74 H572       -5.1650    0.6950   -1.8890 h1        1 ZY2      0.072200
     75 H681       -2.6910    3.6740   -1.7850 h1        1 ZY2      0.043200
     76 H682       -3.6190    2.6810   -0.5600 h1        1 ZY2      0.043200
     77 H751       -1.0840   -0.1260   -6.4620 h1        1 ZY2      0.060700
     78 H752        0.6130   -0.3550   -5.8380 h1        1 ZY2      0.060700
     79 H753       -0.1970   -1.6940   -6.7880 h1        1 ZY2      0.060700
     80 H611       -3.5030   -3.7220   -5.0050 h1        1 ZY2      0.143200
     81 H612       -3.2860   -3.0390   -3.3720 h1        1 ZY2      0.143200
     82 H691       -4.9410    4.3630   -2.8210 hc        1 ZY2      0.057700
     83 H692       -4.6330    4.9100   -1.1200 hc        1 ZY2      0.057700
     84 H693       -5.7670    3.5340   -1.4300 hc        1 ZY2      0.057700
     85 H22         2.5500   -0.2180   -1.4020 hn        1 ZY2      0.471300
     86 H202        5.0550    2.3880    2.4350 hn        1 ZY2      0.457300
@<TRIPOS>BOND
     1    1    2 1   
     2    1    7 2   
     3    1    8 1   
     4    2    3 1   
     5    2   44 1   
     6    2   85 1   
     7    3    4 1   
     8    3    5 1   
     9    3   45 1   
    10    4    6 1   
    11    4   21 1   
    12    4   46 1   
    13    5   14 1   
    14    5   47 1   
    15    5   48 1   
    16    6   20 1   
    17    6   49 1   
    18    6   50 1   
    19    8    9 ar  
    20    8   13 ar  
    21    9   10 ar  
    22    9   53 1   
    23   10   11 ar  
    24   10   34 1   
    25   11   12 ar  
    26   11   31 1   
    27   12   13 ar  
    28   12   33 1   
    29   13   54 1   
    30   14   15 ar  
    31   14   19 ar  
    32   15   16 ar  
    33   15   55 1   
    34   16   17 ar  
    35   16   57 1   
    36   17   18 ar  
    37   17   58 1   
    38   18   19 ar  
    39   18   59 1   
    40   19   56 1   
    41   20   22 1   
    42   20   52 1   
    43   20   86 1   
    44   21   51 1   
    45   22   23 1   
    46   22   60 1   
    47   22   61 1   
    48   23   24 ar  
    49   23   28 ar  
    50   24   25 ar  
    51   24   62 1   
    52   25   26 ar  
    53   25   29 1   
    54   26   27 ar  
    55   26   64 1   
    56   27   28 ar  
    57   27   65 1   
    58   28   63 1   
    59   29   30 1   
    60   30   66 1   
    61   30   67 1   
    62   30   68 1   
    63   31   37 1   
    64   31   43 1   
    65   32   33 1   
    66   32   43 1   
    67   32   73 1   
    68   32   74 1   
    69   33   38 1   
    70   34   35 1   
    71   34   40 1   
    72   35   36 1   
    73   35   41 2   
    74   35   42 2   
    75   36   37 1   
    76   36   80 1   
    77   36   81 1   
    78   37   69 1   
    79   37   70 1   
    80   38   39 1   
    81   38   75 1   
    82   38   76 1   
    83   39   82 1   
    84   39   83 1   
    85   39   84 1   
    86   40   77 1   
    87   40   78 1   
    88   40   79 1   
    89   43   71 1   
    90   43   72 1   
@<TRIPOS>SUBSTRUCTURE
     1 ZY2         1 TEMP              0 ****  ****    0 ROOT
