@<TRIPOS>MOLECULE
ZY2
   84    88     1     0     0
SMALL
bcc


@<TRIPOS>ATOM
      1 C1          0.5470    1.1330    0.7570 c         1 ZY2      0.681700
      2 N2         -0.2330    1.0120   -0.3760 n         1 ZY2     -0.561900
      3 C3         -1.4990    1.6850   -0.5310 c3        1 ZY2      0.080700
      4 C4         -2.6760    0.6700   -0.4790 c3        1 ZY2      0.107100
      5 C5         -1.5580    2.5100   -1.8320 c3        1 ZY2     -0.054100
      6 C6         -4.0150    1.4000   -0.2740 c3        1 ZY2      0.138800
      7 O7          0.2130    1.8750    1.7030 o         1 ZY2     -0.608100
      8 C8          1.8240    0.3580    0.7850 ca        1 ZY2     -0.124600
      9 C9          1.8960   -0.9480    0.3240 ca        1 ZY2     -0.126000
     10 C10         3.1070   -1.6670    0.3830 ca        1 ZY2      0.131600
     11 C11         4.2740   -1.0500    0.9360 ca        1 ZY2      0.120600
     12 C12         4.1850    0.3190    1.3720 ca        1 ZY2      0.108600
     13 C13         2.9540    0.9900    1.3010 ca        1 ZY2     -0.121000
     14 C14        -0.5810    3.6300   -1.8470 ca        1 ZY2     -0.079300
     15 C15         0.4900    3.6250   -2.7480 ca        1 ZY2     -0.121500
     16 C16         1.3900    4.6890   -2.7760 ca        1 ZY2     -0.126500
     17 C17         1.2300    5.7660   -1.9060 ca        1 ZY2     -0.130000
     18 C18         0.1650    5.7770   -1.0040 ca        1 ZY2     -0.126500
     19 C19        -0.7370    4.7150   -0.9750 ca        1 ZY2     -0.121500
     20 N20        -5.0920    0.4850    0.0380 n3        1 ZY2     -0.825200
     21 O21        -2.7100   -0.1590   -1.6260 oh        1 ZY2     -0.597800
     22 C37        -6.4020    1.1050   -0.0230 c3        1 ZY2      0.211100
     23 C39        -7.5350    0.1200   -0.0220 ca        1 ZY2     -0.066300
     24 C42        -7.5690   -0.9140    0.9110 ca        1 ZY2     -0.135000
     25 C43        -8.6610   -1.8040    0.9110 ca        1 ZY2      0.120100
     26 C44        -9.7060   -1.6590   -0.0070 ca        1 ZY2     -0.201000
     27 C45        -9.6530   -0.6160   -0.9320 ca        1 ZY2     -0.098000
     28 C46        -8.5790    0.2680   -0.9460 ca        1 ZY2     -0.161000
     29 O47        -8.5960   -2.7930    1.8750 os        1 ZY2     -0.325900
     30 C48        -9.6820   -3.7120    1.9040 c3        1 ZY2      0.113700
     31 N56         5.5110   -1.7300    0.9350 nh        1 ZY2     -0.680000
     32 C57         6.5600    0.5320    1.2500 c3        1 ZY2      0.169800
     33 N1          5.3380    0.9450    1.9200 nh        1 ZY2     -0.626000
     34 N59         3.1150   -2.9990   -0.0960 nh        1 ZY2     -0.681900
     35 S60         4.2980   -3.6520   -1.0230 s6        1 ZY2      1.457900
     36 C61         5.4970   -4.0560    0.1490 c3        1 ZY2     -0.325600
     37 C62         5.5400   -3.1210    1.3530 c3        1 ZY2      0.241800
     38 C68         5.2240    2.3710    2.1860 c3        1 ZY2      0.180800
     39 C69         6.4760    3.0270    2.7430 c3        1 ZY2     -0.101100
     40 C75         1.9710   -3.8020    0.2490 c3        1 ZY2      0.198100
     41 O79         4.8290   -2.7510   -1.9550 o         1 ZY2     -0.642800
     42 O80         3.8400   -4.8770   -1.5600 o         1 ZY2     -0.642800
     43 C2          6.7130   -0.9950    1.2690 c3        1 ZY2      0.207800
     44 H2          0.0440    0.3980   -1.1040 hn        1 ZY2      0.319500
     45 H3         -1.6240    2.3940    0.3450 h1        1 ZY2      0.099700
     46 H4         -2.5060   -0.0550    0.3710 h1        1 ZY2      0.102700
     47 H51C       -1.3840    1.8380   -2.7150 hc        1 ZY2      0.052200
     48 H52C       -2.5940    2.9330   -1.9270 hc        1 ZY2      0.052200
     49 H61C       -3.9110    2.1120    0.5930 h1        1 ZY2      0.035700
     50 H62C       -4.2380    2.0170   -1.1970 h1        1 ZY2      0.035700
     51 H21        -2.9520    0.3930   -2.3800 ho        1 ZY2      0.397000
     52 H20        -5.0450   -0.3310   -0.5450 hn        1 ZY2      0.375800
     53 H9          0.9960   -1.4370   -0.0830 ha        1 ZY2      0.145000
     54 H13         2.8380    2.0260    1.6590 ha        1 ZY2      0.161000
     55 H15         0.6240    2.7780   -3.4370 ha        1 ZY2      0.131500
     56 H19        -1.5730    4.7240   -0.2590 ha        1 ZY2      0.131500
     57 H16         2.2290    4.6760   -3.4870 ha        1 ZY2      0.132000
     58 H17         1.9400    6.6050   -1.9290 ha        1 ZY2      0.131000
     59 H18         0.0370    6.6230   -0.3140 ha        1 ZY2      0.132000
     60 H371       -6.5000    1.7610    0.8920 h1        1 ZY2      0.038200
     61 H372       -6.5090    1.7810   -0.9260 h1        1 ZY2      0.038200
     62 H42        -6.7610   -1.0470    1.6460 ha        1 ZY2      0.164000
     63 H46        -8.5500    1.0840   -1.6820 ha        1 ZY2      0.131000
     64 H44       -10.5600   -2.3500   -0.0100 ha        1 ZY2      0.137000
     65 H45       -10.4720   -0.4950   -1.6570 ha        1 ZY2      0.132000
     66 H481      -10.6420   -3.1830    2.1200 h1        1 ZY2      0.044033
     67 H482       -9.7520   -4.2710    0.9390 h1        1 ZY2      0.044033
     68 H483       -9.4150   -4.4030    2.7430 h1        1 ZY2      0.044033
     69 H621        6.4870   -3.3310    1.9290 h1        1 ZY2      0.056700
     70 H622        4.6810   -3.3550    2.0460 h1        1 ZY2      0.056700
     71 H221        7.0900   -1.2960    2.2910 h1        1 ZY2      0.047200
     72 H222        7.4970   -1.2810    0.5100 h1        1 ZY2      0.047200
     73 H571        6.5960    0.9020    0.1840 h1        1 ZY2      0.053200
     74 H572        7.4410    0.9640    1.8000 h1        1 ZY2      0.053200
     75 H681        4.9120    2.9340    1.2570 h1        1 ZY2      0.045700
     76 H682        4.4050    2.4850    2.9550 h1        1 ZY2      0.045700
     77 H751        1.1380   -3.6460   -0.4890 h1        1 ZY2      0.053033
     78 H752        2.2570   -4.8900    0.2340 h1        1 ZY2      0.053033
     79 H753        1.5950   -3.5400    1.2740 h1        1 ZY2      0.053033
     80 H611        5.3530   -5.1000    0.5310 h1        1 ZY2      0.119200
     81 H612        6.5040   -4.0480   -0.3490 h1        1 ZY2      0.119200
     82 H691        6.8890    2.4570    3.6090 hc        1 ZY2      0.043367
     83 H692        7.2690    3.1230    1.9630 hc        1 ZY2      0.043367
     84 H693        6.2050    4.0540    3.0930 hc        1 ZY2      0.043367
@<TRIPOS>BOND
     1    1    2 1   
     2    1    7 2   
     3    1    8 1   
     4    2    3 1   
     5    2   44 1   
     6    3    4 1   
     7    3    5 1   
     8    3   45 1   
     9    4    6 1   
    10    4   21 1   
    11    4   46 1   
    12    5   14 1   
    13    5   47 1   
    14    5   48 1   
    15    6   20 1   
    16    6   49 1   
    17    6   50 1   
    18    8    9 ar  
    19    8   13 ar  
    20    9   10 ar  
    21    9   53 1   
    22   10   11 ar  
    23   10   34 1   
    24   11   12 ar  
    25   11   31 1   
    26   12   13 ar  
    27   12   33 1   
    28   13   54 1   
    29   14   15 ar  
    30   14   19 ar  
    31   15   16 ar  
    32   15   55 1   
    33   16   17 ar  
    34   16   57 1   
    35   17   18 ar  
    36   17   58 1   
    37   18   19 ar  
    38   18   59 1   
    39   19   56 1   
    40   20   22 1   
    41   20   52 1   
    42   21   51 1   
    43   22   23 1   
    44   22   60 1   
    45   22   61 1   
    46   23   24 ar  
    47   23   28 ar  
    48   24   25 ar  
    49   24   62 1   
    50   25   26 ar  
    51   25   29 1   
    52   26   27 ar  
    53   26   64 1   
    54   27   28 ar  
    55   27   65 1   
    56   28   63 1   
    57   29   30 1   
    58   30   66 1   
    59   30   67 1   
    60   30   68 1   
    61   31   37 1   
    62   31   43 1   
    63   32   33 1   
    64   32   43 1   
    65   32   73 1   
    66   32   74 1   
    67   33   38 1   
    68   34   35 1   
    69   34   40 1   
    70   35   36 1   
    71   35   41 2   
    72   35   42 2   
    73   36   37 1   
    74   36   80 1   
    75   36   81 1   
    76   37   69 1   
    77   37   70 1   
    78   38   39 1   
    79   38   75 1   
    80   38   76 1   
    81   39   82 1   
    82   39   83 1   
    83   39   84 1   
    84   40   77 1   
    85   40   78 1   
    86   40   79 1   
    87   43   71 1   
    88   43   72 1   
@<TRIPOS>SUBSTRUCTURE
     1 ZY2         1 TEMP              0 ****  ****    0 ROOT
