@<TRIPOS>MOLECULE
ZY2
   86    90     1     0     0
SMALL
bcc


@<TRIPOS>ATOM
      1 C1          0.8310    0.8380   -0.8450 c         1 ZY2      0.596700
      2 N2          1.8240   -0.3120   -0.6520 ny        1 ZY2     -0.689800
      3 C3          2.4930   -0.3600    0.6890 c3        1 ZY2      0.123500
      4 C4          3.5940    0.7320    0.8010 c3        1 ZY2      0.100100
      5 C5          3.0300   -1.7780    0.9680 c3        1 ZY2     -0.050100
      6 C6          4.4710    0.4800    2.0440 c3        1 ZY2      0.090800
      7 O7          1.0120    1.8000   -0.1020 o         1 ZY2     -0.508100
      8 C8         -0.1840    0.5970   -1.8360 ca        1 ZY2     -0.271600
      9 C9         -0.0430   -0.3350   -2.8700 ca        1 ZY2     -0.033000
     10 C10        -1.1120   -0.6500   -3.7090 ca        1 ZY2      0.033600
     11 C11        -2.4090   -0.0430   -3.5020 ca        1 ZY2      0.271600
     12 C12        -2.4600    1.0990   -2.5810 ca        1 ZY2      0.082600
     13 C13        -1.3790    1.3490   -1.7450 ca        1 ZY2     -0.077000
     14 C14         1.9800   -2.8140    0.7710 ca        1 ZY2     -0.168300
     15 C15         1.8150   -3.4280   -0.4800 ca        1 ZY2     -0.141000
     16 C16         0.8110   -4.3750   -0.6710 ca        1 ZY2     -0.096500
     17 C17        -0.0080   -4.7470    0.3980 ca        1 ZY2     -0.094000
     18 C18         0.1730   -4.1640    1.6520 ca        1 ZY2     -0.096500
     19 C19         1.1580   -3.1930    1.8380 ca        1 ZY2     -0.141000
     20 N20         5.5080    1.5300    2.2230 ny        1 ZY2     -0.768000
     21 O21         4.4530    0.6800   -0.3260 oh        1 ZY2     -0.606800
     22 C37         6.4180    1.2350    3.3930 c3        1 ZY2      0.183100
     23 C39         7.3630    2.3650    3.6030 ca        1 ZY2     -0.167300
     24 C42         6.8950    3.5380    4.2030 ca        1 ZY2     -0.160000
     25 C43         7.7960    4.5920    4.4410 ca        1 ZY2      0.153100
     26 C44         9.1500    4.4620    4.0870 ca        1 ZY2     -0.150000
     27 C45         9.5930    3.2840    3.4940 ca        1 ZY2     -0.076000
     28 C46         8.7070    2.2350    3.2410 ca        1 ZY2     -0.130000
     29 O47         7.2370    5.7060    5.0150 os        1 ZY2     -0.319900
     30 C48         8.1330    6.7590    5.3790 c3        1 ZY2      0.105700
     31 N56        -3.5580   -0.5160   -4.0670 nh        1 ZY2     -0.626000
     32 C57        -4.8420    1.2580   -2.8300 c3        1 ZY2      0.168800
     33 N1         -3.5850    1.9480   -2.6270 nh        1 ZY2     -0.631000
     34 N59        -0.8900   -1.5680   -4.7590 nh        1 ZY2     -0.693900
     35 S60        -1.3230   -3.1310   -4.5490 s6        1 ZY2      1.452900
     36 C61        -3.0280   -2.9680   -4.3430 c3        1 ZY2     -0.345600
     37 C62        -3.6610   -1.7020   -4.9010 c3        1 ZY2      0.249800
     38 C68        -3.6100    3.0760   -1.7090 c3        1 ZY2      0.190800
     39 C69        -4.7850    4.0220   -1.8870 c3        1 ZY2     -0.107100
     40 C75        -0.3690   -1.0410   -5.9910 c3        1 ZY2      0.202100
     41 O79        -0.7830   -3.6190   -3.3400 o         1 ZY2     -0.639800
     42 O80        -1.0630   -3.8780   -5.7030 o         1 ZY2     -0.639800
     43 C2         -4.7740    0.2820   -4.0150 c3        1 ZY2      0.189800
     44 H2          2.5470   -0.2600   -1.3780 hn        1 ZY2      0.471300
     45 H3          1.6960   -0.1150    1.4570 hx        1 ZY2      0.122700
     46 H4          3.0820    1.7360    0.8830 h1        1 ZY2      0.101700
     47 H51C        3.9160   -1.9800    0.3080 hc        1 ZY2      0.080200
     48 H52C        3.3730   -1.8080    2.0370 hc        1 ZY2      0.080200
     49 H61C        3.8210    0.4470    2.9630 hx        1 ZY2      0.123200
     50 H62C        5.0150   -0.5040    1.9290 hx        1 ZY2      0.123200
     51 H21         4.2950    1.4670   -0.8670 ho        1 ZY2      0.441000
     52 H20         6.0740    1.5930    1.3650 hn        1 ZY2      0.457300
     53 H9          0.9260   -0.8260   -3.0650 ha        1 ZY2      0.131000
     54 H13        -1.4240    2.1400   -0.9750 ha        1 ZY2      0.166000
     55 H15         2.5020   -3.1930   -1.3080 ha        1 ZY2      0.130000
     56 H19         1.2940   -2.7390    2.8310 ha        1 ZY2      0.130000
     57 H16         0.6490   -4.8140   -1.6720 ha        1 ZY2      0.170500
     58 H17        -0.7910   -5.5080    0.2490 ha        1 ZY2      0.163000
     59 H18        -0.4590   -4.4710    2.5010 ha        1 ZY2      0.170500
     60 H371        6.9660    0.2760    3.1680 hx        1 ZY2      0.110700
     61 H372        5.7630    1.0850    4.3000 hx        1 ZY2      0.110700
     62 H42         5.8500    3.6480    4.5240 ha        1 ZY2      0.147000
     63 H46         9.0780    1.3060    2.7820 ha        1 ZY2      0.145000
     64 H44         9.8620    5.2800    4.2840 ha        1 ZY2      0.171000
     65 H45        10.6570    3.1760    3.2230 ha        1 ZY2      0.167000
     66 H481        8.6140    7.1910    4.4690 h1        1 ZY2      0.064367
     67 H482        8.9000    6.3890    6.1020 h1        1 ZY2      0.064367
     68 H483        7.4550    7.5070    5.8650 h1        1 ZY2      0.064367
     69 H621       -3.2330   -1.4760   -5.9240 h1        1 ZY2      0.080200
     70 H622       -4.7620   -1.9120   -5.0520 h1        1 ZY2      0.080200
     71 H221       -5.6630   -0.4080   -3.9330 h1        1 ZY2      0.081700
     72 H222       -4.8580    0.8580   -4.9820 h1        1 ZY2      0.081700
     73 H571       -5.6370    2.0200   -3.0720 h1        1 ZY2      0.072200
     74 H572       -5.1610    0.7010   -1.9020 h1        1 ZY2      0.072200
     75 H681       -2.6610    3.6610   -1.8920 h1        1 ZY2      0.043200
     76 H682       -3.6000    2.7160   -0.6370 h1        1 ZY2      0.043200
     77 H751       -0.2080   -1.8860   -6.7170 h1        1 ZY2      0.060700
     78 H752        0.6110   -0.5240   -5.8100 h1        1 ZY2      0.060700
     79 H753       -1.0830   -0.3010   -6.4430 h1        1 ZY2      0.060700
     80 H611       -3.5330   -3.8280   -4.8740 h1        1 ZY2      0.143200
     81 H612       -3.3120   -3.0940   -3.2630 h1        1 ZY2      0.143200
     82 H691       -5.7390    3.5590   -1.5370 hc        1 ZY2      0.057700
     83 H692       -4.9040    4.3360   -2.9520 hc        1 ZY2      0.057700
     84 H693       -4.5930    4.9340   -1.2700 hc        1 ZY2      0.057700
     85 H22         1.3010   -1.1990   -0.7830 hn        1 ZY2      0.471300
     86 H202        5.0690    2.4470    2.3770 hn        1 ZY2      0.457300
@<TRIPOS>BOND
     1    1    2 1   
     2    1    7 2   
     3    1    8 1   
     4    2    3 1   
     5    2   44 1   
     6    2   85 1   
     7    3    4 1   
     8    3    5 1   
     9    3   45 1   
    10    4    6 1   
    11    4   21 1   
    12    4   46 1   
    13    5   14 1   
    14    5   47 1   
    15    5   48 1   
    16    6   20 1   
    17    6   49 1   
    18    6   50 1   
    19    8    9 ar  
    20    8   13 ar  
    21    9   10 ar  
    22    9   53 1   
    23   10   11 ar  
    24   10   34 1   
    25   11   12 ar  
    26   11   31 1   
    27   12   13 ar  
    28   12   33 1   
    29   13   54 1   
    30   14   15 ar  
    31   14   19 ar  
    32   15   16 ar  
    33   15   55 1   
    34   16   17 ar  
    35   16   57 1   
    36   17   18 ar  
    37   17   58 1   
    38   18   19 ar  
    39   18   59 1   
    40   19   56 1   
    41   20   22 1   
    42   20   52 1   
    43   20   86 1   
    44   21   51 1   
    45   22   23 1   
    46   22   60 1   
    47   22   61 1   
    48   23   24 ar  
    49   23   28 ar  
    50   24   25 ar  
    51   24   62 1   
    52   25   26 ar  
    53   25   29 1   
    54   26   27 ar  
    55   26   64 1   
    56   27   28 ar  
    57   27   65 1   
    58   28   63 1   
    59   29   30 1   
    60   30   66 1   
    61   30   67 1   
    62   30   68 1   
    63   31   37 1   
    64   31   43 1   
    65   32   33 1   
    66   32   43 1   
    67   32   73 1   
    68   32   74 1   
    69   33   38 1   
    70   34   35 1   
    71   34   40 1   
    72   35   36 1   
    73   35   41 2   
    74   35   42 2   
    75   36   37 1   
    76   36   80 1   
    77   36   81 1   
    78   37   69 1   
    79   37   70 1   
    80   38   39 1   
    81   38   75 1   
    82   38   76 1   
    83   39   82 1   
    84   39   83 1   
    85   39   84 1   
    86   40   77 1   
    87   40   78 1   
    88   40   79 1   
    89   43   71 1   
    90   43   72 1   
@<TRIPOS>SUBSTRUCTURE
     1 ZY2         1 TEMP              0 ****  ****    0 ROOT
