@<TRIPOS>MOLECULE
ZY3
   84    87     1     0     0
SMALL
bcc


@<TRIPOS>ATOM
      1 O3          3.8230   -1.5480   -1.3050 o         1 ZY3     -0.424100
      2 C13         3.3090   -0.6510   -0.6500 c         1 ZY3      0.577700
      3 C5          3.3960   -0.4560    0.8090 ca        1 ZY3     -0.153600
      4 C6          2.2980   -0.0590    1.5700 ca        1 ZY3     -0.109000
      5 C7          2.3970    0.0830    2.9760 ca        1 ZY3      0.239600
      6 C12         3.6120   -0.2990    3.6320 ca        1 ZY3     -0.007300
      7 C11         3.7520   -0.3610    5.1190 c3        1 ZY3     -0.094100
      8 C10         2.4940   -0.5760    5.9470 c3        1 ZY3     -0.039400
      9 C9          1.7700    0.7110    6.2590 c3        1 ZY3     -0.352600
     10 S           1.5420    1.7490    4.9350 s6        1 ZY3      1.448900
     11 O1          0.3660    2.4810    5.0610 o         1 ZY3     -0.612300
     12 O2          2.7500    2.4150    4.6690 o         1 ZY3     -0.612300
     13 N2          1.3300    0.6280    3.6830 nh        1 ZY3     -0.648900
     14 C8         -0.0080    0.3060    3.2540 c3        1 ZY3      0.173100
     15 C4          4.6280   -0.7100    1.4200 ca        1 ZY3     -0.078000
     16 C3          4.7300   -0.6020    2.8170 ca        1 ZY3     -0.007400
     17 N1          6.0570   -0.8170    3.4100 n4        1 ZY3     -0.647400
     18 C2          6.7750    0.4830    3.6830 c3        1 ZY3      0.117800
     19 C1          8.1200    0.2560    4.3350 c3        1 ZY3     -0.148100
     20 N3          2.5510    0.3920   -1.4340 n4        1 ZY3     -0.681800
     21 C14         1.5540   -0.1700   -2.4230 c3        1 ZY3      0.135500
     22 C15         0.4810    0.8870   -2.7410 c3        1 ZY3     -0.054100
     23 C16        -0.0460    1.5700   -1.5300 ca        1 ZY3     -0.193300
     24 C21         0.4080    2.8550   -1.1980 ca        1 ZY3     -0.133000
     25 C20        -0.1590    3.5450   -0.1280 ca        1 ZY3     -0.116000
     26 C19        -1.1840    2.9580    0.6190 ca        1 ZY3     -0.086000
     27 C18        -1.6370    1.6780    0.2930 ca        1 ZY3     -0.116000
     28 C17        -1.0740    0.9860   -0.7780 ca        1 ZY3     -0.133000
     29 C22         2.2680   -0.6720   -3.7140 c3        1 ZY3      0.102100
     30 O4          3.1220    0.3650   -4.1650 oh        1 ZY3     -0.603800
     31 C23         1.2240   -0.9710   -4.8100 c3        1 ZY3      0.076800
     32 N4          1.8200   -1.5000   -6.0620 n4        1 ZY3     -0.774000
     33 C24         0.7690   -1.7510   -7.1300 c3        1 ZY3      0.190100
     34 C25         1.4030   -2.3740   -8.3200 ca        1 ZY3     -0.177300
     35 C31         1.7500   -3.7290   -8.2730 ca        1 ZY3     -0.165000
     36 C29         2.2970   -4.3360   -9.4160 ca        1 ZY3      0.156100
     37 O5          2.6250   -5.6580   -9.2630 os        1 ZY3     -0.320900
     38 C30         3.0490   -6.3570  -10.4380 c3        1 ZY3      0.104700
     39 C28         2.4840   -3.5910  -10.5950 ca        1 ZY3     -0.141000
     40 C27         2.1310   -2.2460  -10.6190 ca        1 ZY3     -0.074000
     41 C26         1.5990   -1.6270   -9.4850 ca        1 ZY3     -0.126000
     42 H3          2.0420    1.0240   -0.7890 hn        1 ZY3      0.485300
     43 H6          1.3240    0.1400    1.0860 ha        1 ZY3      0.166000
     44 H4          5.4930   -0.9990    0.7970 ha        1 ZY3      0.175000
     45 H111        4.2560    0.5910    5.4620 hc        1 ZY3      0.087200
     46 H112        4.4200   -1.2260    5.3950 hc        1 ZY3      0.087200
     47 H101        2.8020   -1.0530    6.9210 hc        1 ZY3      0.087200
     48 H102        1.8100   -1.3100    5.4450 hc        1 ZY3      0.087200
     49 H91C        2.3450    1.2570    7.0650 h1        1 ZY3      0.158200
     50 H92C        0.7950    0.4470    6.7620 h1        1 ZY3      0.158200
     51 H81C       -0.7240    0.5340    4.0940 h1        1 ZY3      0.070033
     52 H82C       -0.0980   -0.7820    2.9940 h1        1 ZY3      0.070033
     53 H83C       -0.3110    0.9250    2.3630 h1        1 ZY3      0.070033
     54 H1          5.9690   -1.3400    4.2940 hn        1 ZY3      0.464300
     55 H21C        6.8940    1.0140    2.6960 hx        1 ZY3      0.113200
     56 H22C        6.1080    1.1060    4.3490 hx        1 ZY3      0.113200
     57 H11C        8.0280   -0.2500    5.3270 hc        1 ZY3      0.093700
     58 H12C        8.8090   -0.3360    3.6840 hc        1 ZY3      0.093700
     59 H13C        8.5890    1.2620    4.5070 hc        1 ZY3      0.093700
     60 H14         1.0680   -1.0610   -1.9250 hx        1 ZY3      0.114700
     61 H151        0.9060    1.6410   -3.4590 hc        1 ZY3      0.096700
     62 H152       -0.3680    0.3540   -3.2540 hc        1 ZY3      0.096700
     63 H22         2.8510   -1.6060   -3.4630 h1        1 ZY3      0.093700
     64 H21         1.1730    3.3510   -1.8170 ha        1 ZY3      0.141000
     65 H17        -1.4690   -0.0030   -1.0560 ha        1 ZY3      0.141000
     66 H20         0.1810    4.5670    0.1120 ha        1 ZY3      0.171500
     67 H19        -1.6520    3.5180    1.4470 ha        1 ZY3      0.179000
     68 H18        -2.4690    1.2280    0.8600 ha        1 ZY3      0.171500
     69 HA          3.9730   -0.0210   -4.4200 ho        1 ZY3      0.448000
     70 H231        0.6830   -0.0160   -5.0850 hx        1 ZY3      0.126200
     71 H232        0.4780   -1.7220   -4.4210 hx        1 ZY3      0.126200
     72 HB          2.3110   -2.3870   -5.8870 hn        1 ZY3      0.455800
     73 H241       -0.0070   -2.4350   -6.6790 hx        1 ZY3      0.111700
     74 H242        0.2960   -0.7590   -7.3820 hx        1 ZY3      0.111700
     75 H31         1.5700   -4.3420   -7.3790 ha        1 ZY3      0.144000
     76 H26         1.3120   -0.5650   -9.5290 ha        1 ZY3      0.146000
     77 H28         2.8970   -4.0680  -11.5000 ha        1 ZY3      0.177000
     78 H301        3.1830   -7.4070  -10.0690 h1        1 ZY3      0.067700
     79 H302        2.2610   -6.3120  -11.2280 h1        1 ZY3      0.067700
     80 H303        4.0160   -5.9390  -10.8090 h1        1 ZY3      0.067700
     81 H27         2.2670   -1.6620  -11.5460 ha        1 ZY3      0.173000
     82 H12         6.6310   -1.3850    2.7720 hn        1 ZY3      0.464300
     83 H32         3.2290    0.9620   -1.9680 hn        1 ZY3      0.485300
     84 H42         2.5050   -0.8270   -6.4290 hn        1 ZY3      0.455800
@<TRIPOS>BOND
     1    1    2 2   
     2    2    3 1   
     3    2   20 1   
     4    3    4 ar  
     5    3   15 ar  
     6    4    5 ar  
     7    4   43 1   
     8    5    6 ar  
     9    5   13 1   
    10    6    7 1   
    11    6   16 ar  
    12    7    8 1   
    13    7   45 1   
    14    7   46 1   
    15    8    9 1   
    16    8   47 1   
    17    8   48 1   
    18    9   10 1   
    19    9   49 1   
    20    9   50 1   
    21   10   11 2   
    22   10   12 2   
    23   10   13 1   
    24   13   14 1   
    25   14   51 1   
    26   14   52 1   
    27   14   53 1   
    28   15   16 ar  
    29   15   44 1   
    30   16   17 1   
    31   17   18 1   
    32   17   54 1   
    33   17   82 1   
    34   18   19 1   
    35   18   55 1   
    36   18   56 1   
    37   19   57 1   
    38   19   58 1   
    39   19   59 1   
    40   20   21 1   
    41   20   42 1   
    42   20   83 1   
    43   21   22 1   
    44   21   29 1   
    45   21   60 1   
    46   22   23 1   
    47   22   61 1   
    48   22   62 1   
    49   23   24 ar  
    50   23   28 ar  
    51   24   25 ar  
    52   24   64 1   
    53   25   26 ar  
    54   25   66 1   
    55   26   27 ar  
    56   26   67 1   
    57   27   28 ar  
    58   27   68 1   
    59   28   65 1   
    60   29   30 1   
    61   29   31 1   
    62   29   63 1   
    63   30   69 1   
    64   31   32 1   
    65   31   70 1   
    66   31   71 1   
    67   32   33 1   
    68   32   72 1   
    69   32   84 1   
    70   33   34 1   
    71   33   73 1   
    72   33   74 1   
    73   34   35 ar  
    74   34   41 ar  
    75   35   36 ar  
    76   35   75 1   
    77   36   37 1   
    78   36   39 ar  
    79   37   38 1   
    80   38   78 1   
    81   38   79 1   
    82   38   80 1   
    83   39   40 ar  
    84   39   77 1   
    85   40   41 ar  
    86   40   81 1   
    87   41   76 1   
@<TRIPOS>SUBSTRUCTURE
     1 ZY3         1 TEMP              0 ****  ****    0 ROOT
