@<TRIPOS>MOLECULE
ZY3
   81    84     1     0     0
SMALL
bcc


@<TRIPOS>ATOM
      1 O3          0.4790   -1.0730   -1.9050 o         1 ZY3     -0.599100
      2 C13         0.7090   -0.4750   -0.8350 c         1 ZY3      0.678700
      3 C5          1.9220    0.3820   -0.6590 ca        1 ZY3     -0.093600
      4 C6          3.1550   -0.1350   -1.0310 ca        1 ZY3     -0.118000
      5 C7          4.3220    0.6500   -0.9000 ca        1 ZY3      0.169600
      6 C12         4.2440    1.9740   -0.4160 ca        1 ZY3     -0.124300
      7 C11         5.4050    2.9040   -0.2850 c3        1 ZY3     -0.045100
      8 C10         6.7590    2.5280   -0.8470 c3        1 ZY3     -0.031400
      9 C9          7.4500    1.4290   -0.0810 c3        1 ZY3     -0.323600
     10 S           6.7710   -0.1510   -0.2070 s6        1 ZY3      1.447900
     11 O1          7.7630   -0.9910   -0.7630 o         1 ZY3     -0.646800
     12 O2          6.3070   -0.5170    1.0700 o         1 ZY3     -0.646800
     13 N2          5.5530    0.0490   -1.2700 nh        1 ZY3     -0.691900
     14 C8          5.6790   -0.3350   -2.6500 c3        1 ZY3      0.201100
     15 C4          1.8190    1.6700   -0.1430 ca        1 ZY3     -0.171000
     16 C3          2.9670    2.4790   -0.0070 ca        1 ZY3      0.158600
     17 N1          2.8430    3.8010    0.4500 nh        1 ZY3     -0.734600
     18 C2          1.6230    4.2030    1.1160 c3        1 ZY3      0.183800
     19 C1          1.7400    5.5480    1.8160 c3        1 ZY3     -0.107100
     20 N3         -0.1360   -0.5740    0.2520 n         1 ZY3     -0.562900
     21 C14        -1.3230   -1.3930    0.2530 c3        1 ZY3      0.080700
     22 C15        -1.2920   -2.4590    1.3670 c3        1 ZY3     -0.055100
     23 C16        -0.2170   -3.4660    1.1630 ca        1 ZY3     -0.084300
     24 C21         0.8980   -3.4950    2.0090 ca        1 ZY3     -0.122000
     25 C20         1.8960   -4.4510    1.8230 ca        1 ZY3     -0.125500
     26 C19         1.7880   -5.3860    0.7940 ca        1 ZY3     -0.128000
     27 C18         0.6770   -5.3620   -0.0510 ca        1 ZY3     -0.125500
     28 C17        -0.3210   -4.4080    0.1320 ca        1 ZY3     -0.122000
     29 C22        -2.5990   -0.5130    0.3840 c3        1 ZY3      0.110100
     30 O4         -2.7360    0.0270    1.6850 oh        1 ZY3     -0.598800
     31 C23        -3.8480   -1.3090   -0.0330 c3        1 ZY3      0.137800
     32 N4         -5.0190   -0.4660   -0.1430 n3        1 ZY3     -0.825200
     33 C24        -6.2530   -1.2180   -0.2760 c3        1 ZY3      0.210100
     34 C25        -7.4880   -0.3920   -0.0630 ca        1 ZY3     -0.066300
     35 C31        -7.6340    0.8380   -0.7010 ca        1 ZY3     -0.135000
     36 C29        -8.8180    1.5750   -0.5090 ca        1 ZY3      0.120100
     37 O5         -8.8610    2.7810   -1.1830 os        1 ZY3     -0.325900
     38 C30       -10.0490    3.5460   -1.0250 c3        1 ZY3      0.113700
     39 C28        -9.8450    1.0870    0.3060 ca        1 ZY3     -0.201000
     40 C27        -9.6800   -0.1480    0.9340 ca        1 ZY3     -0.098000
     41 C26        -8.5130   -0.8850    0.7570 ca        1 ZY3     -0.161000
     42 H3          0.0800   -0.0900    1.0890 hn        1 ZY3      0.318500
     43 H6          3.2070   -1.1620   -1.4310 ha        1 ZY3      0.161000
     44 H4          0.8250    2.0560    0.1340 ha        1 ZY3      0.146000
     45 H111        5.1240    3.8700   -0.7990 hc        1 ZY3      0.056700
     46 H112        5.5460    3.1320    0.8110 hc        1 ZY3      0.056700
     47 H101        6.6790    2.2690   -1.9360 hc        1 ZY3      0.053200
     48 H102        7.4040    3.4500   -0.7940 hc        1 ZY3      0.053200
     49 H91C        8.5210    1.3920   -0.4230 h1        1 ZY3      0.119200
     50 H92C        7.4930    1.7250    1.0030 h1        1 ZY3      0.119200
     51 H81C        5.7270    0.5740   -3.3090 h1        1 ZY3      0.055033
     52 H82C        6.6160   -0.9410   -2.7880 h1        1 ZY3      0.055033
     53 H83C        4.7990   -0.9560   -2.9700 h1        1 ZY3      0.055033
     54 H1          3.6640    4.1550    0.8990 hn        1 ZY3      0.399800
     55 H21C        0.8150    4.2690    0.3300 h1        1 ZY3      0.042200
     56 H22C        1.2960    3.4310    1.8750 h1        1 ZY3      0.042200
     57 H11C        2.5010    5.5150    2.6320 hc        1 ZY3      0.045367
     58 H12C        2.0220    6.3540    1.0970 hc        1 ZY3      0.045367
     59 H13C        0.7490    5.8020    2.2640 hc        1 ZY3      0.045367
     60 H14        -1.3770   -1.9260   -0.7460 h1        1 ZY3      0.100700
     61 H151       -1.1660   -1.9600    2.3660 hc        1 ZY3      0.051200
     62 H152       -2.2850   -2.9830    1.3740 hc        1 ZY3      0.051200
     63 H22        -2.4950    0.4000   -0.2750 h1        1 ZY3      0.102700
     64 H21         0.9910   -2.7590    2.8210 ha        1 ZY3      0.129500
     65 H17        -1.1910   -4.3870   -0.5400 ha        1 ZY3      0.129500
     66 H20         2.7720   -4.4630    2.4880 ha        1 ZY3      0.134000
     67 H19         2.5760   -6.1380    0.6470 ha        1 ZY3      0.133000
     68 H18         0.5910   -6.0960   -0.8660 ha        1 ZY3      0.134000
     69 HA         -2.9350   -0.7030    2.2850 ho        1 ZY3      0.397000
     70 H231       -3.6640   -1.7690   -1.0440 h1        1 ZY3      0.036200
     71 H232       -4.0030   -2.1540    0.7030 h1        1 ZY3      0.036200
     72 HB         -5.0660    0.1820    0.6230 hn        1 ZY3      0.374800
     73 H241       -6.2770   -1.6280   -1.3290 h1        1 ZY3      0.039200
     74 H242       -6.2830   -2.1070    0.4250 h1        1 ZY3      0.039200
     75 H31        -6.8430    1.2410   -1.3500 ha        1 ZY3      0.164000
     76 H26        -8.3970   -1.8560    1.2600 ha        1 ZY3      0.132000
     77 H28       -10.7720    1.6570    0.4560 ha        1 ZY3      0.137000
     78 H301      -10.9360    2.9830   -1.4050 h1        1 ZY3      0.043700
     79 H302      -10.1950    3.8310    0.0450 h1        1 ZY3      0.043700
     80 H303       -9.8590    4.4540   -1.6520 h1        1 ZY3      0.043700
     81 H27       -10.4830   -0.5400    1.5760 ha        1 ZY3      0.132000
@<TRIPOS>BOND
     1    1    2 2   
     2    2    3 1   
     3    2   20 1   
     4    3    4 ar  
     5    3   15 ar  
     6    4    5 ar  
     7    4   43 1   
     8    5    6 ar  
     9    5   13 1   
    10    6    7 1   
    11    6   16 ar  
    12    7    8 1   
    13    7   45 1   
    14    7   46 1   
    15    8    9 1   
    16    8   47 1   
    17    8   48 1   
    18    9   10 1   
    19    9   49 1   
    20    9   50 1   
    21   10   11 2   
    22   10   12 2   
    23   10   13 1   
    24   13   14 1   
    25   14   51 1   
    26   14   52 1   
    27   14   53 1   
    28   15   16 ar  
    29   15   44 1   
    30   16   17 1   
    31   17   18 1   
    32   17   54 1   
    33   18   19 1   
    34   18   55 1   
    35   18   56 1   
    36   19   57 1   
    37   19   58 1   
    38   19   59 1   
    39   20   21 1   
    40   20   42 1   
    41   21   22 1   
    42   21   29 1   
    43   21   60 1   
    44   22   23 1   
    45   22   61 1   
    46   22   62 1   
    47   23   24 ar  
    48   23   28 ar  
    49   24   25 ar  
    50   24   64 1   
    51   25   26 ar  
    52   25   66 1   
    53   26   27 ar  
    54   26   67 1   
    55   27   28 ar  
    56   27   68 1   
    57   28   65 1   
    58   29   30 1   
    59   29   31 1   
    60   29   63 1   
    61   30   69 1   
    62   31   32 1   
    63   31   70 1   
    64   31   71 1   
    65   32   33 1   
    66   32   72 1   
    67   33   34 1   
    68   33   73 1   
    69   33   74 1   
    70   34   35 ar  
    71   34   41 ar  
    72   35   36 ar  
    73   35   75 1   
    74   36   37 1   
    75   36   39 ar  
    76   37   38 1   
    77   38   78 1   
    78   38   79 1   
    79   38   80 1   
    80   39   40 ar  
    81   39   77 1   
    82   40   41 ar  
    83   40   81 1   
    84   41   76 1   
@<TRIPOS>SUBSTRUCTURE
     1 ZY3         1 TEMP              0 ****  ****    0 ROOT
