@<TRIPOS>MOLECULE
ZY3
   83    86     1     0     0
SMALL
bcc


@<TRIPOS>ATOM
      1 O3          4.4650   -0.3790   -1.5790 o         1 ZY3     -0.472100
      2 C13         3.6560    0.0690   -0.7750 c         1 ZY3      0.599700
      3 C5          3.5260   -0.1530    0.6640 ca        1 ZY3     -0.152600
      4 C6          2.2790   -0.3610    1.2430 ca        1 ZY3     -0.159000
      5 C7          2.1720   -0.5100    2.6450 ca        1 ZY3      0.198600
      6 C12         3.3120   -0.4030    3.4660 ca        1 ZY3     -0.088300
      7 C11         3.2800   -0.3880    4.9570 c3        1 ZY3     -0.057100
      8 C10         1.9650   -0.3900    5.7100 c3        1 ZY3     -0.036400
      9 C9          1.0260    0.7290    5.3310 c3        1 ZY3     -0.333600
     10 S           0.0560    0.4530    3.9500 s6        1 ZY3      1.449900
     11 O1         -1.2090   -0.0170    4.3300 o         1 ZY3     -0.643800
     12 O2          0.0750    1.6130    3.1440 o         1 ZY3     -0.643800
     13 N2          0.8800   -0.7410    3.1690 nh        1 ZY3     -0.699900
     14 C8          0.3820   -2.0860    3.0590 c3        1 ZY3      0.202100
     15 C4          4.6910   -0.1470    1.4340 ca        1 ZY3     -0.166000
     16 C3          4.6100   -0.2730    2.8440 ca        1 ZY3      0.228600
     17 N1          5.7550   -0.2470    3.5990 nu        1 ZY3     -0.761600
     18 C2          7.0760   -0.1820    3.0230 c3        1 ZY3      0.209800
     19 C1          8.1820   -0.2530    4.0630 c3        1 ZY3     -0.117100
     20 N3          2.6640    1.0620   -1.3630 ny        1 ZY3     -0.687800
     21 C14         1.6380    0.4560   -2.2790 c3        1 ZY3      0.112500
     22 C15         0.6900    1.5490   -2.8060 c3        1 ZY3     -0.049100
     23 C16         0.3440    2.5710   -1.7820 ca        1 ZY3     -0.182300
     24 C21         0.4500    3.9300   -2.0950 ca        1 ZY3     -0.141500
     25 C20         0.0900    4.8950   -1.1520 ca        1 ZY3     -0.099000
     26 C19        -0.3630    4.5090    0.1080 ca        1 ZY3     -0.093000
     27 C18        -0.4720    3.1520    0.4270 ca        1 ZY3     -0.099000
     28 C17        -0.1340    2.1880   -0.5200 ca        1 ZY3     -0.141500
     29 C22         2.3080   -0.3350   -3.4370 c3        1 ZY3      0.108100
     30 O4          3.2740    0.4600   -4.0980 oh        1 ZY3     -0.607800
     31 C23         1.2540   -0.7200   -4.4970 c3        1 ZY3      0.096800
     32 N4          1.8550   -1.4440   -5.6480 ny        1 ZY3     -0.768000
     33 C24         0.8420   -1.7240   -6.7340 c3        1 ZY3      0.184100
     34 C25         1.4540   -2.5670   -7.7960 ca        1 ZY3     -0.167300
     35 C31         1.6370   -3.9320   -7.5590 ca        1 ZY3     -0.161000
     36 C29         2.1770   -4.7380   -8.5770 ca        1 ZY3      0.153100
     37 O5          2.3360   -6.0590   -8.2390 os        1 ZY3     -0.319900
     38 C30         2.7740   -6.9390   -9.2780 c3        1 ZY3      0.105700
     39 C28         2.5180   -4.1790   -9.8210 ca        1 ZY3     -0.149000
     40 C27         2.3240   -2.8170  -10.0350 ca        1 ZY3     -0.075000
     41 C26         1.8000   -2.0030   -9.0280 ca        1 ZY3     -0.129000
     42 H3          2.1560    1.5390   -0.5920 hn        1 ZY3      0.482800
     43 H6          1.3690   -0.4280    0.6260 ha        1 ZY3      0.133000
     44 H4          5.6660   -0.0330    0.9340 ha        1 ZY3      0.164000
     45 H111        3.8550   -1.2880    5.3240 hc        1 ZY3      0.073200
     46 H112        3.8360    0.5360    5.2950 hc        1 ZY3      0.073200
     47 H101        1.4540   -1.3860    5.6130 hc        1 ZY3      0.070700
     48 H102        2.2230   -0.2850    6.8030 hc        1 ZY3      0.070700
     49 H91C        1.6160    1.6800    5.2260 h1        1 ZY3      0.138700
     50 H92C        0.3460    0.9110    6.2140 h1        1 ZY3      0.138700
     51 H81C       -0.6640   -2.1300    3.4740 h1        1 ZY3      0.059033
     52 H82C        0.3590   -2.4060    1.9830 h1        1 ZY3      0.059033
     53 H83C        1.0320   -2.8020    3.6300 h1        1 ZY3      0.059033
     54 H1          5.6960   -0.4060    4.5790 hn        1 ZY3      0.453800
     55 H21C        7.1710    0.7860    2.4490 h1        1 ZY3      0.046200
     56 H22C        7.2060   -1.0320    2.2900 h1        1 ZY3      0.046200
     57 H11C        9.1650   -0.1880    3.5360 hc        1 ZY3      0.062700
     58 H12C        8.1480   -1.2140    4.6300 hc        1 ZY3      0.062700
     59 H13C        8.1140    0.5940    4.7880 hc        1 ZY3      0.062700
     60 H14         1.0450   -0.2790   -1.6540 hx        1 ZY3      0.110700
     61 H151       -0.2550    1.0390   -3.1430 hc        1 ZY3      0.083700
     62 H152        1.1640    2.0440   -3.6970 hc        1 ZY3      0.083700
     63 H22         2.7780   -1.2700   -3.0110 h1        1 ZY3      0.082700
     64 H21         0.8000    4.2470   -3.0900 ha        1 ZY3      0.130000
     65 H17        -0.2740    1.1240   -0.2790 ha        1 ZY3      0.130000
     66 H20         0.1610    5.9640   -1.4110 ha        1 ZY3      0.178000
     67 H19        -0.6440    5.2710    0.8540 ha        1 ZY3      0.167000
     68 H18        -0.8120    2.8410    1.4340 ha        1 ZY3      0.178000
     69 HA          4.1480    0.2530   -3.7270 ho        1 ZY3      0.457000
     70 H231        0.4670   -1.3720   -4.0220 hx        1 ZY3      0.122200
     71 H232        0.7670    0.2110   -4.9110 hx        1 ZY3      0.122200
     72 HB          2.6200   -0.8750   -6.0380 hn        1 ZY3      0.460300
     73 H241       -0.0300   -2.2560   -6.2530 hx        1 ZY3      0.110200
     74 H242        0.4940   -0.7330   -7.1420 hx        1 ZY3      0.110200
     75 H31         1.3420   -4.4000   -6.6090 ha        1 ZY3      0.146000
     76 H26         1.6430   -0.9310   -9.2200 ha        1 ZY3      0.145000
     77 H28         2.9290   -4.8090  -10.6260 ha        1 ZY3      0.171000
     78 H301        3.8040   -6.6640   -9.6100 h1        1 ZY3      0.064367
     79 H302        2.0580   -6.9220  -10.1350 h1        1 ZY3      0.064367
     80 H303        2.7710   -7.9400   -8.7750 h1        1 ZY3      0.064367
     81 H27         2.5820   -2.3770  -11.0130 ha        1 ZY3      0.168000
     82 H32         3.1800    1.7740   -1.8980 hn        1 ZY3      0.482800
     83 H42         2.2570   -2.3380   -5.3400 hn        1 ZY3      0.460300
@<TRIPOS>BOND
     1    1    2 2   
     2    2    3 1   
     3    2   20 1   
     4    3    4 ar  
     5    3   15 ar  
     6    4    5 ar  
     7    4   43 1   
     8    5    6 ar  
     9    5   13 1   
    10    6    7 1   
    11    6   16 ar  
    12    7    8 1   
    13    7   45 1   
    14    7   46 1   
    15    8    9 1   
    16    8   47 1   
    17    8   48 1   
    18    9   10 1   
    19    9   49 1   
    20    9   50 1   
    21   10   11 2   
    22   10   12 2   
    23   10   13 1   
    24   13   14 1   
    25   14   51 1   
    26   14   52 1   
    27   14   53 1   
    28   15   16 ar  
    29   15   44 1   
    30   16   17 1   
    31   17   18 1   
    32   17   54 1   
    33   18   19 1   
    34   18   55 1   
    35   18   56 1   
    36   19   57 1   
    37   19   58 1   
    38   19   59 1   
    39   20   21 1   
    40   20   42 1   
    41   20   82 1   
    42   21   22 1   
    43   21   29 1   
    44   21   60 1   
    45   22   23 1   
    46   22   61 1   
    47   22   62 1   
    48   23   24 ar  
    49   23   28 ar  
    50   24   25 ar  
    51   24   64 1   
    52   25   26 ar  
    53   25   66 1   
    54   26   27 ar  
    55   26   67 1   
    56   27   28 ar  
    57   27   68 1   
    58   28   65 1   
    59   29   30 1   
    60   29   31 1   
    61   29   63 1   
    62   30   69 1   
    63   31   32 1   
    64   31   70 1   
    65   31   71 1   
    66   32   33 1   
    67   32   72 1   
    68   32   83 1   
    69   33   34 1   
    70   33   73 1   
    71   33   74 1   
    72   34   35 ar  
    73   34   41 ar  
    74   35   36 ar  
    75   35   75 1   
    76   36   37 1   
    77   36   39 ar  
    78   37   38 1   
    79   38   78 1   
    80   38   79 1   
    81   38   80 1   
    82   39   40 ar  
    83   39   77 1   
    84   40   41 ar  
    85   40   81 1   
    86   41   76 1   
@<TRIPOS>SUBSTRUCTURE
     1 ZY3         1 TEMP              0 ****  ****    0 ROOT
