@<TRIPOS>MOLECULE
ZY4
   80    84     1     0     0
SMALL
bcc


@<TRIPOS>ATOM
      1 C1         -0.1970   -0.2690    0.2280 c         1 ZY4      0.600700
      2 N2          1.1690   -0.9580    0.1440 ny        1 ZY4     -0.685800
      3 C3          2.0180   -0.8350    1.3740 c3        1 ZY4      0.095500
      4 C4          2.7090    0.5620    1.4360 c3        1 ZY4      0.333600
      5 C5          3.0560   -1.9700    1.4360 c3        1 ZY4     -0.045100
      6 C6          3.7960    0.6040    2.5490 c3        1 ZY4      0.077800
      7 O7         -0.5000    0.1340    1.3460 o         1 ZY4     -0.482100
      8 C8         -0.8940   -0.1210   -1.0360 ca        1 ZY4     -0.203600
      9 C9         -1.7200    1.0280   -1.1310 ca        1 ZY4     -0.094000
     10 C10        -2.3770    1.3450   -2.3240 ca        1 ZY4      0.209600
     11 C11        -2.2420    0.4420   -3.4020 ca        1 ZY4     -0.043800
     12 C12        -1.4310   -0.7560   -3.2760 ca        1 ZY4     -0.043200
     13 C13        -0.7460   -1.0300   -2.0940 ca        1 ZY4     -0.088000
     14 C14         2.4460   -3.3030    1.1840 ca        1 ZY4     -0.185300
     15 C15         2.7070   -3.9790   -0.0150 ca        1 ZY4     -0.127000
     16 C16         2.1900   -5.2570   -0.2230 ca        1 ZY4     -0.113000
     17 C17         1.4090   -5.8660    0.7610 ca        1 ZY4     -0.085000
     18 C18         1.1460   -5.1940    1.9560 ca        1 ZY4     -0.113000
     19 C19         1.6640   -3.9190    2.1700 ca        1 ZY4     -0.127000
     20 N20         4.4080    1.9540    2.6550 ny        1 ZY4     -0.761000
     21 O21         3.3260    0.8570    0.2030 oh        1 ZY4     -0.629800
     22 C39         5.4480    2.0510    3.7540 c3        1 ZY4      0.129500
     23 C42         5.6830    3.5180    4.1300 c3        1 ZY4     -0.144400
     24 C43         6.7690    3.5890    5.2010 c3        1 ZY4      0.124400
     25 O1          7.9650    2.9720    4.7500 os        1 ZY4     -0.372600
     26 C45         7.7930    1.5960    4.4570 c3        1 ZY4      0.124400
     27 C46         6.7700    1.4010    3.3390 c3        1 ZY4     -0.144400
     28 C7         -2.7810    0.4560   -4.7320 cc        1 ZY4     -0.152400
     29 C57        -2.3140   -0.7040   -5.3650 cd        1 ZY4     -0.018100
     30 N1         -1.4890   -1.4320   -4.5040 na        1 ZY4     -0.056400
     31 N59        -3.1210    2.5220   -2.5050 nh        1 ZY4     -0.679900
     32 S60        -2.6930    3.6120   -3.6770 s6        1 ZY4      1.433900
     33 C61        -3.1040    2.8850   -5.1850 c3        1 ZY4     -0.322600
     34 C68        -0.9270   -2.7270   -4.7910 c3        1 ZY4      0.033300
     35 C69        -1.7750   -3.9100   -4.3510 c3        1 ZY4     -0.125100
     36 O79        -1.2920    3.7610   -3.6490 o         1 ZY4     -0.629800
     37 O80        -3.4670    4.7720   -3.5240 o         1 ZY4     -0.629800
     38 C20        -3.6800    1.4880   -5.2700 c3        1 ZY4      0.036800
     39 O2          1.8140    1.6330    1.6020 oh        1 ZY4     -0.629800
     40 C2         -4.2180    2.7500   -1.6030 c3        1 ZY4      0.195100
     41 H2          1.0140   -1.9650   -0.0350 hn        1 ZY4      0.475300
     42 H3          1.3250   -0.9270    2.2670 hx        1 ZY4      0.131700
     43 H51C        3.5000   -1.9650    2.4690 hc        1 ZY4      0.084700
     44 H52C        3.8780   -1.7640    0.6980 hc        1 ZY4      0.084700
     45 H61C        3.3290    0.3320    3.5360 hx        1 ZY4      0.125200
     46 H62C        4.6160   -0.1300    2.2960 hx        1 ZY4      0.125200
     47 HA          1.0530    1.3770    2.1480 ho        1 ZY4      0.476000
     48 HB          2.9250    1.6580   -0.1830 ho        1 ZY4      0.476000
     49 H20         3.6650    2.6450    2.8320 hn        1 ZY4      0.462300
     50 H9         -1.8270    1.6810   -0.2480 ha        1 ZY4      0.166000
     51 H13        -0.1500   -1.9490   -2.0050 ha        1 ZY4      0.130000
     52 H15         3.3560   -3.5230   -0.7790 ha        1 ZY4      0.137000
     53 H19         1.4750   -3.4060    3.1260 ha        1 ZY4      0.137000
     54 H16         2.4150   -5.7940   -1.1590 ha        1 ZY4      0.164500
     55 H17         1.0110   -6.8820    0.6000 ha        1 ZY4      0.169000
     56 H18         0.5400   -5.6800    2.7400 ha        1 ZY4      0.164500
     57 H39         5.0220    1.5030    4.6480 hx        1 ZY4      0.104700
     58 H421        4.7470    3.9860    4.5310 hc        1 ZY4      0.078450
     59 H422        6.0230    4.1020    3.2340 hc        1 ZY4      0.078450
     60 H461        7.1650    1.8790    2.4030 hc        1 ZY4      0.078450
     61 H462        6.6390    0.3040    3.1540 hc        1 ZY4      0.078450
     62 H431        6.4160    3.1100    6.1530 h1        1 ZY4      0.085950
     63 H432        7.0620    4.6580    5.3930 h1        1 ZY4      0.085950
     64 H451        8.8110    1.2540    4.1210 h1        1 ZY4      0.085950
     65 H452        7.4820    1.0340    5.3770 h1        1 ZY4      0.085950
     66 H57        -2.5090   -1.0570   -6.3850 h4        1 ZY4      0.201000
     67 H201       -3.9100    1.2600   -6.3480 hc        1 ZY4      0.073700
     68 H202       -4.6600    1.4480   -4.7140 hc        1 ZY4      0.073700
     69 H681       -0.7630   -2.7850   -5.9070 h1        1 ZY4      0.068700
     70 H682        0.0810   -2.7820   -4.2870 h1        1 ZY4      0.068700
     71 H21C       -3.8630    2.7570   -0.5380 h1        1 ZY4      0.062367
     72 H22C       -4.9950    1.9470   -1.7160 h1        1 ZY4      0.062367
     73 H23C       -4.6870    3.7480   -1.8330 h1        1 ZY4      0.062367
     74 H611       -2.1840    2.9090   -5.8380 h1        1 ZY4      0.137200
     75 H612       -3.8450    3.5630   -5.7030 h1        1 ZY4      0.137200
     76 H691       -1.2460   -4.8510   -4.6420 hc        1 ZY4      0.060033
     77 H692       -1.9300   -3.9120   -3.2460 hc        1 ZY4      0.060033
     78 H693       -2.7750   -3.9010   -4.8480 hc        1 ZY4      0.060033
     79 H22         1.6810   -0.5660   -0.6570 hn        1 ZY4      0.475300
     80 H203        4.8470    2.1870    1.7540 hn        1 ZY4      0.462300
@<TRIPOS>BOND
     1    1    2 1   
     2    1    7 2   
     3    1    8 1   
     4    2    3 1   
     5    2   41 1   
     6    2   79 1   
     7    3    4 1   
     8    3    5 1   
     9    3   42 1   
    10    4    6 1   
    11    4   21 1   
    12    4   39 1   
    13    5   14 1   
    14    5   43 1   
    15    5   44 1   
    16    6   20 1   
    17    6   45 1   
    18    6   46 1   
    19    8    9 ar  
    20    8   13 ar  
    21    9   10 ar  
    22    9   50 1   
    23   10   11 ar  
    24   10   31 1   
    25   11   12 ar  
    26   11   28 1   
    27   12   13 ar  
    28   12   30 1   
    29   13   51 1   
    30   14   15 ar  
    31   14   19 ar  
    32   15   16 ar  
    33   15   52 1   
    34   16   17 ar  
    35   16   54 1   
    36   17   18 ar  
    37   17   55 1   
    38   18   19 ar  
    39   18   56 1   
    40   19   53 1   
    41   20   22 1   
    42   20   49 1   
    43   20   80 1   
    44   21   48 1   
    45   22   23 1   
    46   22   27 1   
    47   22   57 1   
    48   23   24 1   
    49   23   58 1   
    50   23   59 1   
    51   24   25 1   
    52   24   62 1   
    53   24   63 1   
    54   25   26 1   
    55   26   27 1   
    56   26   64 1   
    57   26   65 1   
    58   27   60 1   
    59   27   61 1   
    60   28   29 2   
    61   28   38 1   
    62   29   30 1   
    63   29   66 1   
    64   30   34 1   
    65   31   32 1   
    66   31   40 1   
    67   32   33 1   
    68   32   36 2   
    69   32   37 2   
    70   33   38 1   
    71   33   74 1   
    72   33   75 1   
    73   34   35 1   
    74   34   69 1   
    75   34   70 1   
    76   35   76 1   
    77   35   77 1   
    78   35   78 1   
    79   38   67 1   
    80   38   68 1   
    81   39   47 1   
    82   40   71 1   
    83   40   72 1   
    84   40   73 1   
@<TRIPOS>SUBSTRUCTURE
     1 ZY4         1 TEMP              0 ****  ****    0 ROOT
