@<TRIPOS>MOLECULE
ZY4
   78    82     1     0     0
SMALL
bcc


@<TRIPOS>ATOM
      1 C1          0.1450    0.6020    0.3140 c         1 ZY4      0.671700
      2 N2         -0.7370    0.4120   -0.7470 n         1 ZY4     -0.526900
      3 C3         -2.1300    0.7640   -0.6210 c3        1 ZY4      0.087700
      4 C4         -3.0790   -0.4850   -0.5540 c3        1 ZY4      0.319600
      5 C5         -2.5920    1.6660   -1.7870 c3        1 ZY4     -0.045100
      6 C6         -4.3990   -0.1000    0.1660 c3        1 ZY4      0.108800
      7 O7         -0.1260    1.3620    1.2620 o         1 ZY4     -0.585100
      8 C8          1.4670   -0.0870    0.2060 ca        1 ZY4     -0.109600
      9 C9          2.6220    0.6840    0.4350 ca        1 ZY4     -0.105000
     10 C10         3.8960    0.1100    0.3510 ca        1 ZY4      0.173600
     11 C11         3.9780   -1.2620    0.0360 ca        1 ZY4     -0.098800
     12 C12         2.7840   -2.0420   -0.1630 ca        1 ZY4     -0.033200
     13 C13         1.5160   -1.4460   -0.0840 ca        1 ZY4     -0.114000
     14 C14        -1.9650    3.0130   -1.7440 ca        1 ZY4     -0.076300
     15 C15        -1.0470    3.3990   -2.7280 ca        1 ZY4     -0.118000
     16 C16        -0.4800    4.6720   -2.6990 ca        1 ZY4     -0.126500
     17 C17        -0.8240    5.5700   -1.6890 ca        1 ZY4     -0.127000
     18 C18        -1.7370    5.1900   -0.7050 ca        1 ZY4     -0.126500
     19 C19        -2.3060    3.9190   -0.7320 ca        1 ZY4     -0.118000
     20 N20        -5.3660   -1.1750    0.1640 n3        1 ZY4     -0.826200
     21 O21        -3.3030   -1.0620   -1.8300 oh        1 ZY4     -0.610300
     22 C39        -6.6250   -0.8560    0.8200 c3        1 ZY4      0.180500
     23 C42        -7.4790   -2.1220    1.0090 c3        1 ZY4     -0.129400
     24 C43        -8.7580   -1.7750    1.7490 c3        1 ZY4      0.128400
     25 O1         -9.5100   -0.7720    1.0750 os        1 ZY4     -0.413600
     26 C45        -8.7750    0.4300    0.8840 c3        1 ZY4      0.128400
     27 C46        -7.4920    0.1960    0.1080 c3        1 ZY4     -0.129400
     28 C7          5.1010   -2.1580   -0.1250 cc        1 ZY4     -0.159400
     29 C57         4.5750   -3.4180   -0.4050 cd        1 ZY4     -0.078100
     30 N1          3.1750   -3.3680   -0.4080 na        1 ZY4     -0.071400
     31 N59         5.0850    0.8470    0.5560 nh        1 ZY4     -0.683900
     32 S60         6.1750    0.4610    1.7120 s6        1 ZY4      1.435900
     33 C61         6.8180   -1.0970    1.3120 c3        1 ZY4     -0.307600
     34 C68         2.3050   -4.4530   -0.7600 c3        1 ZY4      0.041300
     35 C69         2.0580   -4.6300   -2.2520 c3        1 ZY4     -0.121100
     36 O79         5.5690    0.3290    2.9740 o         1 ZY4     -0.645300
     37 O80         7.2570    1.3720    1.6470 o         1 ZY4     -0.645300
     38 C20         6.5100   -1.7580   -0.0130 c3        1 ZY4      0.047800
     39 O2         -2.4180   -1.5350    0.1100 oh        1 ZY4     -0.610300
     40 C2          5.2690    1.9830   -0.3060 c3        1 ZY4      0.201100
     41 H2         -0.5530   -0.3480   -1.3640 hn        1 ZY4      0.309500
     42 H3         -2.2660    1.3360    0.3480 h1        1 ZY4      0.103700
     43 H51C       -2.3600    1.1640   -2.7660 hc        1 ZY4      0.049200
     44 H52C       -3.7070    1.7840   -1.7230 hc        1 ZY4      0.049200
     45 H61C       -4.1370    0.1290    1.2380 h1        1 ZY4      0.050200
     46 H62C       -4.7970    0.8450   -0.3040 h1        1 ZY4      0.050200
     47 HA         -2.9900   -2.3140    0.0580 ho        1 ZY4      0.425000
     48 HB         -3.8450   -0.4560   -2.3450 ho        1 ZY4      0.425000
     49 H20        -5.5220   -1.5120   -0.7680 hn        1 ZY4      0.364800
     50 H9          2.4970    1.7480    0.6940 ha        1 ZY4      0.162000
     51 H13         0.6000   -2.0380   -0.2260 ha        1 ZY4      0.150000
     52 H15        -0.7670    2.6930   -3.5230 ha        1 ZY4      0.129500
     53 H19        -3.0190    3.6210    0.0510 ha        1 ZY4      0.129500
     54 H16         0.2420    4.9670   -3.4750 ha        1 ZY4      0.131500
     55 H17        -0.3740    6.5730   -1.6660 ha        1 ZY4      0.132000
     56 H18        -2.0050    5.8930    0.0980 ha        1 ZY4      0.131500
     57 H39        -6.3670   -0.4550    1.8460 h1        1 ZY4      0.062700
     58 H421       -7.7330   -2.5620    0.0100 hc        1 ZY4      0.054950
     59 H422       -6.9100   -2.8880    1.5930 hc        1 ZY4      0.054950
     60 H461       -6.9390    1.1660    0.0210 hc        1 ZY4      0.054950
     61 H462       -7.7420   -0.1570   -0.9260 hc        1 ZY4      0.054950
     62 H431       -9.4520   -2.6560    1.7840 h1        1 ZY4      0.049950
     63 H432       -8.5280   -1.4320    2.7930 h1        1 ZY4      0.049950
     64 H451       -9.4790    1.0910    0.3110 h1        1 ZY4      0.049950
     65 H452       -8.5500    0.8940    1.8820 h1        1 ZY4      0.049950
     66 H57         5.0960   -4.3600   -0.5900 h4        1 ZY4      0.170000
     67 H201        7.1680   -2.6630   -0.1280 hc        1 ZY4      0.052200
     68 H202        6.7680   -1.0580   -0.8550 hc        1 ZY4      0.052200
     69 H681        2.7590   -5.4020   -0.3500 h1        1 ZY4      0.062200
     70 H682        1.3170   -4.2840   -0.2420 h1        1 ZY4      0.062200
     71 H21C        4.4100    2.6990   -0.2020 h1        1 ZY4      0.053700
     72 H22C        6.2210    2.5170   -0.0360 h1        1 ZY4      0.053700
     73 H23C        5.3290    1.6540   -1.3790 h1        1 ZY4      0.053700
     74 H611        7.9400   -1.0160    1.3830 h1        1 ZY4      0.119700
     75 H612        6.5160   -1.8150    2.1260 h1        1 ZY4      0.119700
     76 H691        1.5750   -3.7240   -2.6910 hc        1 ZY4      0.048700
     77 H692        3.0110   -4.8220   -2.7990 hc        1 ZY4      0.048700
     78 H693        1.3770   -5.5030   -2.3980 hc        1 ZY4      0.048700
@<TRIPOS>BOND
     1    1    2 1   
     2    1    7 2   
     3    1    8 1   
     4    2    3 1   
     5    2   41 1   
     6    3    4 1   
     7    3    5 1   
     8    3   42 1   
     9    4    6 1   
    10    4   21 1   
    11    4   39 1   
    12    5   14 1   
    13    5   43 1   
    14    5   44 1   
    15    6   20 1   
    16    6   45 1   
    17    6   46 1   
    18    8    9 ar  
    19    8   13 ar  
    20    9   10 ar  
    21    9   50 1   
    22   10   11 ar  
    23   10   31 1   
    24   11   12 ar  
    25   11   28 1   
    26   12   13 ar  
    27   12   30 1   
    28   13   51 1   
    29   14   15 ar  
    30   14   19 ar  
    31   15   16 ar  
    32   15   52 1   
    33   16   17 ar  
    34   16   54 1   
    35   17   18 ar  
    36   17   55 1   
    37   18   19 ar  
    38   18   56 1   
    39   19   53 1   
    40   20   22 1   
    41   20   49 1   
    42   21   48 1   
    43   22   23 1   
    44   22   27 1   
    45   22   57 1   
    46   23   24 1   
    47   23   58 1   
    48   23   59 1   
    49   24   25 1   
    50   24   62 1   
    51   24   63 1   
    52   25   26 1   
    53   26   27 1   
    54   26   64 1   
    55   26   65 1   
    56   27   60 1   
    57   27   61 1   
    58   28   29 2   
    59   28   38 1   
    60   29   30 1   
    61   29   66 1   
    62   30   34 1   
    63   31   32 1   
    64   31   40 1   
    65   32   33 1   
    66   32   36 2   
    67   32   37 2   
    68   33   38 1   
    69   33   74 1   
    70   33   75 1   
    71   34   35 1   
    72   34   69 1   
    73   34   70 1   
    74   35   76 1   
    75   35   77 1   
    76   35   78 1   
    77   38   67 1   
    78   38   68 1   
    79   39   47 1   
    80   40   71 1   
    81   40   72 1   
    82   40   73 1   
@<TRIPOS>SUBSTRUCTURE
     1 ZY4         1 TEMP              0 ****  ****    0 ROOT
