@<TRIPOS>MOLECULE
ZY4
   80    84     1     0     0
SMALL
bcc


@<TRIPOS>ATOM
      1 C1         -0.1900   -0.3100    0.2340 c         1 ZY4      0.600700
      2 N2          1.1890   -0.9700    0.1160 n4        1 ZY4     -0.685800
      3 C3          2.0480   -0.8660    1.3400 c3        1 ZY4      0.095500
      4 C4          2.7120    0.5430    1.4370 c3        1 ZY4      0.333600
      5 C5          3.1100   -1.9810    1.3580 c3        1 ZY4     -0.045100
      6 C6          3.8110    0.5730    2.5390 c3        1 ZY4      0.077800
      7 O7         -0.4890    0.0520    1.3670 o         1 ZY4     -0.482100
      8 C8         -0.9020   -0.1370   -1.0180 ca        1 ZY4     -0.203600
      9 C9         -1.7500    0.9980   -1.0700 ca        1 ZY4     -0.094000
     10 C10        -2.4240    1.3390   -2.2470 ca        1 ZY4      0.209600
     11 C11        -2.2830    0.4720   -3.3530 ca        1 ZY4     -0.043800
     12 C12        -1.4480   -0.7140   -3.2720 ca        1 ZY4     -0.043200
     13 C13        -0.7470   -1.0110   -2.1050 ca        1 ZY4     -0.088000
     14 C14         2.5240   -3.3180    1.0730 ca        1 ZY4     -0.185300
     15 C15         2.7850   -3.9530   -0.1480 ca        1 ZY4     -0.127000
     16 C16         2.2910   -5.2340   -0.3890 ca        1 ZY4     -0.113000
     17 C17         1.5330   -5.8880    0.5840 ca        1 ZY4     -0.085000
     18 C18         1.2700   -5.2570    1.8020 ca        1 ZY4     -0.113000
     19 C19         1.7650   -3.9780    2.0480 ca        1 ZY4     -0.127000
     20 N20         4.3960    1.9320    2.6780 n4        1 ZY4     -0.761000
     21 O21         3.3090    0.8860    0.2070 oh        1 ZY4     -0.629800
     22 C39         5.4460    2.0180    3.7680 c3        1 ZY4      0.129500
     23 C42         5.6560    3.4780    4.1850 c3        1 ZY4     -0.144400
     24 C43         6.7530    3.5390    5.2460 c3        1 ZY4      0.124400
     25 O1          7.9550    2.9610    4.7640 os        1 ZY4     -0.372600
     26 C45         7.8080    1.5910    4.4320 c3        1 ZY4      0.124400
     27 C46         6.7760    1.4080    3.3200 c3        1 ZY4     -0.144400
     28 C7         -2.8350    0.5170   -4.6770 cc        1 ZY4     -0.152400
     29 C57        -2.3520   -0.6140   -5.3500 cd        1 ZY4     -0.018100
     30 N1         -1.5060   -1.3520   -4.5200 na        1 ZY4     -0.056400
     31 N59        -3.1910    2.5070   -2.3840 nh        1 ZY4     -0.679900
     32 S60        -2.7950    3.6400   -3.5260 s6        1 ZY4      1.433900
     33 C61        -3.2080    2.9520   -5.0510 c3        1 ZY4     -0.322600
     34 C68        -0.9220   -2.6270   -4.8510 c3        1 ZY4      0.033300
     35 C69        -1.7440   -3.8390   -4.4420 c3        1 ZY4     -0.125100
     36 O79        -1.3970    3.8150   -3.5060 o         1 ZY4     -0.629800
     37 O80        -3.5890    4.7810   -3.3300 o         1 ZY4     -0.629800
     38 C20        -3.7590    1.5490   -5.1740 c3        1 ZY4      0.036800
     39 O2          1.7980    1.5890    1.6440 oh        1 ZY4     -0.629800
     40 C2         -4.2840    2.6870   -1.4660 c3        1 ZY4      0.195100
     41 H2          1.6840   -0.5450   -0.6790 hn        1 ZY4      0.475300
     42 H3          1.3670   -0.9980    2.2380 hx        1 ZY4      0.131700
     43 H51C        3.9190   -1.7370    0.6170 hc        1 ZY4      0.084700
     44 H52C        3.5650   -1.9980    2.3850 hc        1 ZY4      0.084700
     45 H61C        3.3600    0.2630    3.5220 hx        1 ZY4      0.125200
     46 H62C        4.6410   -0.1360    2.2560 hx        1 ZY4      0.125200
     47 HA          1.0480    1.3020    2.1900 ho        1 ZY4      0.476500
     48 HB          2.8880    1.6890   -0.1510 ho        1 ZY4      0.476500
     49 H20         3.6420    2.6030    2.8840 hn        1 ZY4      0.462300
     50 H9         -1.8600    1.6220   -0.1660 ha        1 ZY4      0.166000
     51 H13        -0.1330   -1.9200   -2.0500 ha        1 ZY4      0.130000
     52 H15         3.4160   -3.4620   -0.9060 ha        1 ZY4      0.137000
     53 H19         1.5760   -3.4980    3.0200 ha        1 ZY4      0.137000
     54 H16         2.5170   -5.7400   -1.3420 ha        1 ZY4      0.164500
     55 H17         1.1550   -6.9070    0.3980 ha        1 ZY4      0.169000
     56 H18         0.6830   -5.7780    2.5770 ha        1 ZY4      0.164500
     57 H39         5.0420    1.4360    4.6500 hx        1 ZY4      0.104700
     58 H421        5.9740    4.0950    3.3030 hc        1 ZY4      0.078450
     59 H422        4.7150    3.9150    4.6100 hc        1 ZY4      0.078450
     60 H461        7.1510    1.9210    2.3950 hc        1 ZY4      0.078450
     61 H462        6.6660    0.3150    3.1040 hc        1 ZY4      0.078450
     62 H431        6.4200    3.0260    6.1870 h1        1 ZY4      0.085950
     63 H432        7.0260    4.6080    5.4660 h1        1 ZY4      0.085950
     64 H451        7.5190    0.9960    5.3380 h1        1 ZY4      0.085950
     65 H452        8.8280    1.2800    4.0760 h1        1 ZY4      0.085950
     66 H57        -2.5510   -0.9380   -6.3780 h4        1 ZY4      0.201000
     67 H201       -4.7320    1.4730   -4.6120 hc        1 ZY4      0.073700
     68 H202       -3.9940    1.3490   -6.2570 hc        1 ZY4      0.073700
     69 H681        0.0900   -2.6790   -4.3580 h1        1 ZY4      0.068700
     70 H682       -0.7670   -2.6470   -5.9700 h1        1 ZY4      0.068700
     71 H21C       -5.0470    1.8730   -1.5970 h1        1 ZY4      0.062367
     72 H22C       -3.9190    2.6670   -0.4040 h1        1 ZY4      0.062367
     73 H23C       -4.7740    3.6820   -1.6600 h1        1 ZY4      0.062367
     74 H611       -2.2940    3.0140   -5.7120 h1        1 ZY4      0.137200
     75 H612       -3.9660    3.6320   -5.5410 h1        1 ZY4      0.137200
     76 H691       -2.7490   -3.8320   -4.9300 hc        1 ZY4      0.060033
     77 H692       -1.2010   -4.7600   -4.7660 hc        1 ZY4      0.060033
     78 H693       -1.8890   -3.8780   -3.3360 hc        1 ZY4      0.060033
     79 H22         1.0510   -1.9740   -0.0910 hn        1 ZY4      0.475300
     80 H203        4.8200    2.2010    1.7800 hn        1 ZY4      0.462300
@<TRIPOS>BOND
     1    1    2 1   
     2    1    7 2   
     3    1    8 1   
     4    2    3 1   
     5    2   41 1   
     6    2   79 1   
     7    3    4 1   
     8    3    5 1   
     9    3   42 1   
    10    4    6 1   
    11    4   21 1   
    12    4   39 1   
    13    5   14 1   
    14    5   43 1   
    15    5   44 1   
    16    6   20 1   
    17    6   45 1   
    18    6   46 1   
    19    8    9 ar  
    20    8   13 ar  
    21    9   10 ar  
    22    9   50 1   
    23   10   11 ar  
    24   10   31 1   
    25   11   12 ar  
    26   11   28 1   
    27   12   13 ar  
    28   12   30 1   
    29   13   51 1   
    30   14   15 ar  
    31   14   19 ar  
    32   15   16 ar  
    33   15   52 1   
    34   16   17 ar  
    35   16   54 1   
    36   17   18 ar  
    37   17   55 1   
    38   18   19 ar  
    39   18   56 1   
    40   19   53 1   
    41   20   22 1   
    42   20   49 1   
    43   20   80 1   
    44   21   48 1   
    45   22   23 1   
    46   22   27 1   
    47   22   57 1   
    48   23   24 1   
    49   23   58 1   
    50   23   59 1   
    51   24   25 1   
    52   24   62 1   
    53   24   63 1   
    54   25   26 1   
    55   26   27 1   
    56   26   64 1   
    57   26   65 1   
    58   27   60 1   
    59   27   61 1   
    60   28   29 2   
    61   28   38 1   
    62   29   30 1   
    63   29   66 1   
    64   30   34 1   
    65   31   32 1   
    66   31   40 1   
    67   32   33 1   
    68   32   36 2   
    69   32   37 2   
    70   33   38 1   
    71   33   74 1   
    72   33   75 1   
    73   34   35 1   
    74   34   69 1   
    75   34   70 1   
    76   35   76 1   
    77   35   77 1   
    78   35   78 1   
    79   38   67 1   
    80   38   68 1   
    81   39   47 1   
    82   40   71 1   
    83   40   72 1   
    84   40   73 1   
@<TRIPOS>SUBSTRUCTURE
     1 ZY4         1 TEMP              0 ****  ****    0 ROOT
