@<TRIPOS>MOLECULE
ZY5
   40    42     1     0     0
SMALL
bcc


@<TRIPOS>ATOM
      1 C7          0.1030    0.0870   -0.1360 ce        1 ZY5     -0.052200
      2 C4          1.5520    0.0700   -0.0450 ca        1 ZY5     -0.125800
      3 C3          2.1710    0.0870    1.2330 ca        1 ZY5      0.174100
      4 O21         1.3060    0.1490    2.3050 os        1 ZY5     -0.319900
      5 C22         1.8990    0.1640    3.6000 c3        1 ZY5      0.110700
      6 C2          3.5610    0.0450    1.3690 ca        1 ZY5     -0.240000
      7 C5          2.3720   -0.0190   -1.1730 ca        1 ZY5     -0.052000
      8 C6          3.7590   -0.0700   -1.0640 ca        1 ZY5     -0.252000
      9 C1          4.3460   -0.0320    0.2070 ca        1 ZY5      0.167100
     10 O20         5.7060   -0.0720    0.3990 oh        1 ZY5     -0.495100
     11 C8         -0.6410    0.7690   -1.0260 cf        1 ZY5     -0.219800
     12 C13        -0.0820    1.6950   -2.0520 c3        1 ZY5     -0.044200
     13 C12        -0.9120    2.9580   -2.1650 c3        1 ZY5     -0.104400
     14 C11        -2.3920    2.6360   -2.3490 c3        1 ZY5      0.100800
     15 N10        -2.9150    1.5200   -1.6170 n2        1 ZY5     -0.578900
     16 C9         -2.1250    0.6780   -1.0270 cf        1 ZY5      0.513200
     17 C14        -2.7240   -0.4680   -0.3090 ca        1 ZY5     -0.244200
     18 C19        -3.7500   -0.2620    0.6410 ca        1 ZY5      0.428200
     19 N18        -4.3440   -1.2630    1.3170 nb        1 ZY5     -0.670000
     20 C17        -3.9360   -2.5200    1.0550 ca        1 ZY5      0.398200
     21 C16        -2.9290   -2.8280    0.1210 ca        1 ZY5     -0.253300
     22 C15        -2.3170   -1.7830   -0.5700 ca        1 ZY5     -0.077000
     23 H7         -0.3960   -0.5230    0.6430 ha        1 ZY5      0.147000
     24 H5          1.9070   -0.0630   -2.1720 ha        1 ZY5      0.141000
     25 H2          4.0560    0.0680    2.3480 ha        1 ZY5      0.158000
     26 H221        2.5450    1.0660    3.7270 h1        1 ZY5      0.049367
     27 H222        2.4860   -0.7690    3.7750 h1        1 ZY5      0.049367
     28 H223        1.0150    0.2100    4.2850 h1        1 ZY5      0.049367
     29 H6          4.3850   -0.1420   -1.9640 ha        1 ZY5      0.137000
     30 H20         6.1290   -0.1250   -0.4710 ho        1 ZY5      0.423000
     31 H131       -0.0580    1.1680   -3.0450 hc        1 ZY5      0.052700
     32 H132        0.9750    1.9750   -1.7930 hc        1 ZY5      0.052700
     33 H121       -0.7760    3.5750   -1.2380 hc        1 ZY5      0.050700
     34 H122       -0.5540    3.5690   -3.0320 hc        1 ZY5      0.050700
     35 H111       -2.5980    2.4340   -3.4410 h1        1 ZY5      0.065700
     36 H112       -3.0070    3.5330   -2.0520 h1        1 ZY5      0.065700
     37 H19        -4.1130    0.7570    0.8650 h4        1 ZY5      0.035100
     38 H15        -1.5260   -1.9830   -1.3070 ha        1 ZY5      0.143000
     39 H17        -4.4450   -3.3180    1.6230 h4        1 ZY5      0.021100
     40 H16        -2.6380   -3.8710   -0.0580 ha        1 ZY5      0.143000
@<TRIPOS>BOND
     1    1    2 1   
     2    1   11 2   
     3    1   23 1   
     4    2    3 ar  
     5    2    7 ar  
     6    3    4 1   
     7    3    6 ar  
     8    4    5 1   
     9    5   26 1   
    10    5   27 1   
    11    5   28 1   
    12    6    9 ar  
    13    6   25 1   
    14    7    8 ar  
    15    7   24 1   
    16    8    9 ar  
    17    8   29 1   
    18    9   10 1   
    19   10   30 1   
    20   11   12 1   
    21   11   16 1   
    22   12   13 1   
    23   12   31 1   
    24   12   32 1   
    25   13   14 1   
    26   13   33 1   
    27   13   34 1   
    28   14   15 1   
    29   14   35 1   
    30   14   36 1   
    31   15   16 2   
    32   16   17 1   
    33   17   18 ar  
    34   17   22 ar  
    35   18   19 ar  
    36   18   37 1   
    37   19   20 ar  
    38   20   21 ar  
    39   20   39 1   
    40   21   22 ar  
    41   21   40 1   
    42   22   38 1   
@<TRIPOS>SUBSTRUCTURE
     1 ZY5         1 TEMP              0 ****  ****    0 ROOT
