@<TRIPOS>MOLECULE
ZY5
   40    42     1     0     0
SMALL
bcc


@<TRIPOS>ATOM
      1 C7         -0.1640    0.0320    0.0820 ce        1 ZY5     -0.052200
      2 C4         -1.6040   -0.0180    0.2600 ca        1 ZY5     -0.125800
      3 C3         -2.3690   -0.9530   -0.4870 ca        1 ZY5      0.174100
      4 O21        -1.6470   -1.7350   -1.3640 os        1 ZY5     -0.319900
      5 C22        -2.3860   -2.6850   -2.1240 c3        1 ZY5      0.110700
      6 C2         -3.7520   -1.0530   -0.3290 ca        1 ZY5     -0.240000
      7 C5         -2.2720    0.7890    1.1860 ca        1 ZY5     -0.052000
      8 C6         -3.6490    0.7020    1.3680 ca        1 ZY5     -0.252000
      9 C1         -4.3830   -0.2150    0.6050 ca        1 ZY5      0.167100
     10 O20        -5.7450   -0.3560    0.7210 oh        1 ZY5     -0.495100
     11 C8          0.6070    1.1330    0.0380 cf        1 ZY5     -0.219800
     12 C13         0.0800    2.5270    0.1020 c3        1 ZY5     -0.044200
     13 C12         0.7840    3.4280   -0.8930 c3        1 ZY5     -0.104400
     14 C11         2.3010    3.3230   -0.7630 c3        1 ZY5      0.100800
     15 N10         2.8450    2.0240   -0.4890 n2        1 ZY5     -0.578900
     16 C9          2.0810    1.0430   -0.1240 cf        1 ZY5      0.513200
     17 C14         2.7050   -0.2660    0.1700 ca        1 ZY5     -0.244200
     18 C19         3.5860   -0.8650   -0.7590 ca        1 ZY5      0.428200
     19 N18         4.1950   -2.0460   -0.5460 nb        1 ZY5     -0.670000
     20 C17         3.9510   -2.6690    0.6230 ca        1 ZY5      0.398200
     21 C16         3.1000   -2.1510    1.6150 ca        1 ZY5     -0.253300
     22 C15         2.4690   -0.9290    1.3810 ca        1 ZY5     -0.077000
     23 H7          0.2990   -0.9670   -0.0480 ha        1 ZY5      0.147000
     24 H5         -1.6900    1.5000    1.7960 ha        1 ZY5      0.141000
     25 H2         -4.3590   -1.7620   -0.9060 ha        1 ZY5      0.158000
     26 H221       -3.1320   -2.1710   -2.7780 h1        1 ZY5      0.049367
     27 H222       -1.5990   -3.1880   -2.7410 h1        1 ZY5      0.049367
     28 H223       -2.8920   -3.4200   -1.4520 h1        1 ZY5      0.049367
     29 H6         -4.1540    1.3440    2.1030 ha        1 ZY5      0.137000
     30 H20        -6.0540    0.2720    1.3910 ho        1 ZY5      0.423000
     31 H131       -1.0220    2.5400   -0.1110 hc        1 ZY5      0.052700
     32 H132        0.2280    2.9250    1.1420 hc        1 ZY5      0.052700
     33 H121        0.4770    3.1420   -1.9330 hc        1 ZY5      0.050700
     34 H122        0.4710    4.4900   -0.7290 hc        1 ZY5      0.050700
     35 H111        2.7820    3.6780   -1.7190 h1        1 ZY5      0.065700
     36 H112        2.6540    4.0040    0.0650 h1        1 ZY5      0.065700
     37 H19         3.8130   -0.3680   -1.7200 h4        1 ZY5      0.035100
     38 H15         1.7960   -0.4900    2.1320 ha        1 ZY5      0.143000
     39 H17         4.4690   -3.6340    0.7700 h4        1 ZY5      0.021100
     40 H16         2.9390   -2.6980    2.5530 ha        1 ZY5      0.143000
@<TRIPOS>BOND
     1    1    2 1   
     2    1   11 2   
     3    1   23 1   
     4    2    3 ar  
     5    2    7 ar  
     6    3    4 1   
     7    3    6 ar  
     8    4    5 1   
     9    5   26 1   
    10    5   27 1   
    11    5   28 1   
    12    6    9 ar  
    13    6   25 1   
    14    7    8 ar  
    15    7   24 1   
    16    8    9 ar  
    17    8   29 1   
    18    9   10 1   
    19   10   30 1   
    20   11   12 1   
    21   11   16 1   
    22   12   13 1   
    23   12   31 1   
    24   12   32 1   
    25   13   14 1   
    26   13   33 1   
    27   13   34 1   
    28   14   15 1   
    29   14   35 1   
    30   14   36 1   
    31   15   16 2   
    32   16   17 1   
    33   17   18 ar  
    34   17   22 ar  
    35   18   19 ar  
    36   18   37 1   
    37   19   20 ar  
    38   20   21 ar  
    39   20   39 1   
    40   21   22 ar  
    41   21   40 1   
    42   22   38 1   
@<TRIPOS>SUBSTRUCTURE
     1 ZY5         1 TEMP              0 ****  ****    0 ROOT
