@<TRIPOS>MOLECULE
ZY5
   40    42     1     0     0
SMALL
bcc


@<TRIPOS>ATOM
      1 C7          0.1010    0.0850   -0.1340 ce        1 ZY5     -0.052200
      2 C4          1.5500    0.0680   -0.0400 ca        1 ZY5     -0.125800
      3 C3          2.1680    0.0910    1.2390 ca        1 ZY5      0.174100
      4 O21         1.3010    0.1580    2.3090 os        1 ZY5     -0.319900
      5 C22         1.8920    0.1790    3.6050 c3        1 ZY5      0.110700
      6 C2          3.5570    0.0500    1.3760 ca        1 ZY5     -0.240000
      7 C5          2.3720   -0.0260   -1.1670 ca        1 ZY5     -0.052000
      8 C6          3.7580   -0.0760   -1.0560 ca        1 ZY5     -0.252000
      9 C1          4.3430   -0.0320    0.2160 ca        1 ZY5      0.167100
     10 O20         5.7040   -0.0710    0.4090 oh        1 ZY5     -0.495100
     11 C8         -0.6420    0.7620   -1.0270 cf        1 ZY5     -0.219800
     12 C13        -0.0810    1.6830   -2.0570 c3        1 ZY5     -0.044200
     13 C12        -0.9110    2.9460   -2.1770 c3        1 ZY5     -0.104400
     14 C11        -2.3910    2.6230   -2.3620 c3        1 ZY5      0.100800
     15 N10        -2.9150    1.5100   -1.6240 n2        1 ZY5     -0.578900
     16 C9         -2.1250    0.6710   -1.0290 cf        1 ZY5      0.513200
     17 C14        -2.7250   -0.4710   -0.3060 ca        1 ZY5     -0.244200
     18 C19        -3.7520   -0.2610    0.6410 ca        1 ZY5      0.428200
     19 N18        -4.3480   -1.2580    1.3210 nb        1 ZY5     -0.670000
     20 C17        -3.9390   -2.5160    1.0660 ca        1 ZY5      0.398200
     21 C16        -2.9320   -2.8290    0.1350 ca        1 ZY5     -0.253300
     22 C15        -2.3180   -1.7870   -0.5600 ca        1 ZY5     -0.077000
     23 H7         -0.3990   -0.5210    0.6490 ha        1 ZY5      0.147000
     24 H5          1.9080   -0.0740   -2.1660 ha        1 ZY5      0.141000
     25 H2          4.0510    0.0780    2.3560 ha        1 ZY5      0.158000
     26 H221        1.0070    0.2290    4.2890 h1        1 ZY5      0.049367
     27 H222        2.4800   -0.7540    3.7850 h1        1 ZY5      0.049367
     28 H223        2.5380    1.0820    3.7280 h1        1 ZY5      0.049367
     29 H6          4.3850   -0.1520   -1.9540 ha        1 ZY5      0.137000
     30 H20         6.1270   -0.1280   -0.4600 ho        1 ZY5      0.423000
     31 H131        0.9750    1.9650   -1.7980 hc        1 ZY5      0.052700
     32 H132       -0.0560    1.1520   -3.0470 hc        1 ZY5      0.052700
     33 H121       -0.5520    3.5530   -3.0470 hc        1 ZY5      0.050700
     34 H122       -0.7760    3.5670   -1.2530 hc        1 ZY5      0.050700
     35 H111       -2.5960    2.4150   -3.4530 h1        1 ZY5      0.065700
     36 H112       -3.0070    3.5220   -2.0700 h1        1 ZY5      0.065700
     37 H19        -4.1160    0.7600    0.8600 h4        1 ZY5      0.035100
     38 H15        -1.5270   -1.9910   -1.2960 ha        1 ZY5      0.143000
     39 H17        -4.4490   -3.3120    1.6370 h4        1 ZY5      0.021100
     40 H16        -2.6400   -3.8730   -0.0390 ha        1 ZY5      0.143000
@<TRIPOS>BOND
     1    1    2 1   
     2    1   11 2   
     3    1   23 1   
     4    2    3 ar  
     5    2    7 ar  
     6    3    4 1   
     7    3    6 ar  
     8    4    5 1   
     9    5   26 1   
    10    5   27 1   
    11    5   28 1   
    12    6    9 ar  
    13    6   25 1   
    14    7    8 ar  
    15    7   24 1   
    16    8    9 ar  
    17    8   29 1   
    18    9   10 1   
    19   10   30 1   
    20   11   12 1   
    21   11   16 1   
    22   12   13 1   
    23   12   31 1   
    24   12   32 1   
    25   13   14 1   
    26   13   33 1   
    27   13   34 1   
    28   14   15 1   
    29   14   35 1   
    30   14   36 1   
    31   15   16 2   
    32   16   17 1   
    33   17   18 ar  
    34   17   22 ar  
    35   18   19 ar  
    36   18   37 1   
    37   19   20 ar  
    38   20   21 ar  
    39   20   39 1   
    40   21   22 ar  
    41   21   40 1   
    42   22   38 1   
@<TRIPOS>SUBSTRUCTURE
     1 ZY5         1 TEMP              0 ****  ****    0 ROOT
