@<TRIPOS>MOLECULE
ZY6
   42    45     1     0     0
SMALL
bcc


@<TRIPOS>ATOM
      1 CAE        -2.0580   -2.4950    1.1450 ca        1 ZY6     -0.109000
      2 CAC        -1.9800   -3.8860    1.1150 ca        1 ZY6     -0.134000
      3 CAB        -1.4680   -4.5350   -0.0090 ca        1 ZY6     -0.125000
      4 CAD        -1.0350   -3.7870   -1.1030 ca        1 ZY6     -0.134000
      5 CAF        -1.1090   -2.3950   -1.0780 ca        1 ZY6     -0.109000
      6 CAQ        -1.6190   -1.7370    0.0490 cp        1 ZY6     -0.025000
      7 CAR        -1.7280   -0.2810    0.0920 cp        1 ZY6     -0.163300
      8 CAG        -3.0120    0.2730    0.3970 ca        1 ZY6      0.437200
      9 NAN        -3.3140    1.5670    0.4930 nb        1 ZY6     -0.661000
     10 CAU        -2.2550    2.4040    0.2770 ca        1 ZY6      0.422800
     11 NAO        -2.2020    3.8120    0.3120 na        1 ZY6     -0.115800
     12 NAM        -0.9700    4.2610    0.0540 nc        1 ZY6     -0.501100
     13 CAH        -0.1570    3.2060   -0.1570 cd        1 ZY6      0.349800
     14 CAT        -0.9040    1.9660   -0.0350 ca        1 ZY6     -0.347200
     15 CAS        -0.6410    0.5830   -0.1340 ca        1 ZY6      0.205600
     16 NAV         0.6560    0.0570   -0.4340 nh        1 ZY6     -0.622000
     17 CAL         1.6160    0.2880    0.6430 c3        1 ZY6      0.139800
     18 CAK         1.1590    0.4850   -1.7370 c3        1 ZY6      0.134800
     19 CAJ         2.5700   -0.0510   -2.0110 c3        1 ZY6      0.125400
     20 OAP         3.4640    0.2580   -0.9500 os        1 ZY6     -0.401600
     21 CAW         3.0110   -0.2720    0.2980 c3        1 ZY6      0.138100
     22 CAI         4.0270    0.1930    1.3580 c3        1 ZY6      0.164800
     23 NAA         5.1730   -0.6720    1.4640 n3        1 ZY6     -0.911800
     24 HAE        -2.4610   -1.9860    2.0340 ha        1 ZY6      0.134500
     25 HAC        -2.3220   -4.4720    1.9810 ha        1 ZY6      0.132000
     26 HAB        -1.4080   -5.6320   -0.0320 ha        1 ZY6      0.131000
     27 HAD        -0.6330   -4.2960   -1.9920 ha        1 ZY6      0.132000
     28 HAF        -0.7630   -1.8110   -1.9430 ha        1 ZY6      0.134500
     29 HAG        -3.8580   -0.4210    0.5720 h4        1 ZY6      0.034100
     30 HAO        -2.9550    4.4350    0.4800 hn        1 ZY6      0.337700
     31 HAH         0.9050    3.3250   -0.3800 h4        1 ZY6      0.060800
     32 HAL1        1.7180    1.3870    0.8790 h1        1 ZY6      0.049200
     33 HAL2        1.2320   -0.2380    1.5600 h1        1 ZY6      0.049200
     34 HAK1        0.4590    0.0840   -2.5210 h1        1 ZY6      0.046700
     35 HAK2        1.1780    1.6100   -1.8280 h1        1 ZY6      0.046700
     36 HAW         2.9630   -1.3940    0.2250 h1        1 ZY6      0.058700
     37 HAJ1        2.5470   -1.1600   -2.1790 h1        1 ZY6      0.057200
     38 HAJ2        3.0090    0.4660   -2.9050 h1        1 ZY6      0.057200
     39 HAI1        4.3960    1.2170    1.0630 h1        1 ZY6      0.038200
     40 HAI2        3.4670    0.2970    2.3360 h1        1 ZY6      0.038200
     41 HAA1        5.7990   -0.3380    2.1690 hn        1 ZY6      0.351800
     42 HAA2        4.9050   -1.6130    1.6720 hn        1 ZY6      0.351800
@<TRIPOS>BOND
     1    1    2 ar  
     2    1    6 ar  
     3    1   24 1   
     4    2    3 ar  
     5    2   25 1   
     6    3    4 ar  
     7    3   26 1   
     8    4    5 ar  
     9    4   27 1   
    10    5    6 ar  
    11    5   28 1   
    12    6    7 1   
    13    7    8 ar  
    14    7   15 ar  
    15    8    9 ar  
    16    8   29 1   
    17    9   10 ar  
    18   10   11 1   
    19   10   14 ar  
    20   11   12 1   
    21   11   30 1   
    22   12   13 2   
    23   13   14 1   
    24   13   31 1   
    25   14   15 ar  
    26   15   16 1   
    27   16   17 1   
    28   16   18 1   
    29   17   21 1   
    30   17   32 1   
    31   17   33 1   
    32   18   19 1   
    33   18   34 1   
    34   18   35 1   
    35   19   20 1   
    36   19   37 1   
    37   19   38 1   
    38   20   21 1   
    39   21   22 1   
    40   21   36 1   
    41   22   23 1   
    42   22   39 1   
    43   22   40 1   
    44   23   41 1   
    45   23   42 1   
@<TRIPOS>SUBSTRUCTURE
     1 ZY6         1 TEMP              0 ****  ****    0 ROOT
