@<TRIPOS>MOLECULE
ZY6
   43    46     1     0     0
SMALL
bcc


@<TRIPOS>ATOM
      1 CAE        -0.0480    0.0510   -0.0140 ca        1 ZY6     -0.112000
      2 CAC         1.3430    0.1130   -0.0620 ca        1 ZY6     -0.132500
      3 CAB         2.0840    0.1460    1.1200 ca        1 ZY6     -0.118000
      4 CAD         1.4300    0.1150    2.3510 ca        1 ZY6     -0.132500
      5 CAF         0.0390    0.0490    2.4050 ca        1 ZY6     -0.112000
      6 CAQ        -0.7110    0.0140    1.2220 cp        1 ZY6     -0.042000
      7 CAR        -2.1710   -0.0250    1.2550 cp        1 ZY6     -0.140300
      8 CAG        -2.8750    1.0100    0.5540 ca        1 ZY6      0.440200
      9 NAN        -4.1960    1.1420    0.4630 nb        1 ZY6     -0.635000
     10 CAU        -4.9060    0.1720    1.1170 ca        1 ZY6      0.424800
     11 NAO        -6.3000   -0.0070    1.2180 na        1 ZY6     -0.098800
     12 NAM        -6.6020   -1.0810    1.9460 nc        1 ZY6     -0.478100
     13 CAH        -5.4560   -1.6740    2.3490 cd        1 ZY6      0.325800
     14 CAT        -4.3120   -0.9290    1.8590 ca        1 ZY6     -0.347200
     15 CAS        -2.9040   -1.0170    1.9230 ca        1 ZY6      0.169600
     16 NAV        -2.2280   -2.0720    2.6200 nh        1 ZY6     -0.612000
     17 CAL        -2.4170   -3.3710    1.9870 c3        1 ZY6      0.152800
     18 CAK        -2.5270   -2.1150    4.0490 c3        1 ZY6      0.130800
     19 CAJ        -1.7370   -3.2190    4.7550 c3        1 ZY6      0.136400
     20 OAP        -1.8980   -4.4900    4.1150 os        1 ZY6     -0.468600
     21 CAW        -1.5970   -4.4490    2.7210 c3        1 ZY6      0.117100
     22 CAI        -1.9880   -5.8290    2.1630 c3        1 ZY6      0.097800
     23 NAA        -1.3590   -6.9380    2.9380 n4        1 ZY6     -0.832600
     24 HAE        -0.6300    0.0370   -0.9480 ha        1 ZY6      0.134000
     25 HAC         1.8560    0.1460   -1.0350 ha        1 ZY6      0.139000
     26 HAB         3.1820    0.2060    1.0800 ha        1 ZY6      0.141000
     27 HAD         2.0120    0.1570    3.2840 ha        1 ZY6      0.139000
     28 HAF        -0.4740    0.0350    3.3780 ha        1 ZY6      0.134000
     29 HAG        -2.2850    1.7900    0.0320 h4        1 ZY6      0.047100
     30 HAO        -7.0080    0.5920    0.8570 hn        1 ZY6      0.349700
     31 HAH        -5.4620   -2.5750    2.9610 h4        1 ZY6      0.047800
     32 HAL1       -2.0540   -3.2970    0.9240 h1        1 ZY6      0.062200
     33 HAL2       -3.5030   -3.6820    1.9750 h1        1 ZY6      0.062200
     34 HAK1       -3.6280   -2.2690    4.2450 h1        1 ZY6      0.069200
     35 HAK2       -2.2280   -1.1230    4.4910 h1        1 ZY6      0.069200
     36 HAW        -0.4950   -4.2590    2.5880 h1        1 ZY6      0.080700
     37 HAJ1       -0.6430   -2.9730    4.7950 h1        1 ZY6      0.075700
     38 HAJ2       -2.1400   -3.3910    5.7890 h1        1 ZY6      0.075700
     39 HAI1       -3.1070   -5.9610    2.2280 hx        1 ZY6      0.119200
     40 HAI2       -1.6610   -5.9030    1.0880 hx        1 ZY6      0.119200
     41 HAA1       -0.3410   -6.9070    2.8390 hn        1 ZY6      0.467133
     42 HAA2       -1.7070   -7.8430    2.6120 hn        1 ZY6      0.467133
     43 HAA3       -1.5920   -6.8170    3.9350 hn        1 ZY6      0.467133
@<TRIPOS>BOND
     1    1    2 ar  
     2    1    6 ar  
     3    1   24 1   
     4    2    3 ar  
     5    2   25 1   
     6    3    4 ar  
     7    3   26 1   
     8    4    5 ar  
     9    4   27 1   
    10    5    6 ar  
    11    5   28 1   
    12    6    7 1   
    13    7    8 ar  
    14    7   15 ar  
    15    8    9 ar  
    16    8   29 1   
    17    9   10 ar  
    18   10   11 1   
    19   10   14 ar  
    20   11   12 1   
    21   11   30 1   
    22   12   13 2   
    23   13   14 1   
    24   13   31 1   
    25   14   15 ar  
    26   15   16 1   
    27   16   17 1   
    28   16   18 1   
    29   17   21 1   
    30   17   32 1   
    31   17   33 1   
    32   18   19 1   
    33   18   34 1   
    34   18   35 1   
    35   19   20 1   
    36   19   37 1   
    37   19   38 1   
    38   20   21 1   
    39   21   22 1   
    40   21   36 1   
    41   22   23 1   
    42   22   39 1   
    43   22   40 1   
    44   23   41 1   
    45   23   42 1   
    46   23   43 1   
@<TRIPOS>SUBSTRUCTURE
     1 ZY6         1 TEMP              0 ****  ****    0 ROOT
