@<TRIPOS>MOLECULE
ZY7
   43    45     1     0     0
SMALL
bcc


@<TRIPOS>ATOM
      1 C7          0.0750    0.0810   -0.1900 ce        1 ZY7     -0.051200
      2 C4          1.5260    0.0550   -0.1390 ca        1 ZY7     -0.124800
      3 C3          2.1820    0.0740    1.1210 ca        1 ZY7      0.171100
      4 O21         1.3480    0.1460    2.2170 os        1 ZY7     -0.320900
      5 C22         1.9780    0.1640    3.4940 c3        1 ZY7      0.110700
      6 C2          3.5730    0.0240    1.2150 ca        1 ZY7     -0.240000
      7 C5          2.3140   -0.0440   -1.2880 ca        1 ZY7     -0.055000
      8 C6          3.7050   -0.1040   -1.2200 ca        1 ZY7     -0.242000
      9 C1          4.3280   -0.0630    0.0320 ca        1 ZY7      0.167100
     10 O20         5.6930   -0.1080    0.2270 os        1 ZY7     -0.325900
     11 C8         -0.6910    0.7600   -1.0620 cf        1 ZY7     -0.221800
     12 C13        -0.1550    1.6760   -2.1100 c3        1 ZY7     -0.044200
     13 C12        -0.9810    2.9430   -2.2090 c3        1 ZY7     -0.104400
     14 C11        -2.4670    2.6280   -2.3490 c3        1 ZY7      0.100800
     15 N10        -2.9760    1.5200   -1.5940 n2        1 ZY7     -0.578900
     16 C9         -2.1740    0.6780   -1.0210 cf        1 ZY7      0.513200
     17 C14        -2.7590   -0.4590   -0.2780 ca        1 ZY7     -0.243200
     18 C19        -3.7580   -0.2410    0.6980 ca        1 ZY7      0.428200
     19 N18        -4.3390   -1.2330    1.3970 nb        1 ZY7     -0.670000
     20 C17        -3.9440   -2.4940    1.1340 ca        1 ZY7      0.398200
     21 C16        -2.9650   -2.8150    0.1760 ca        1 ZY7     -0.253300
     22 C15        -2.3660   -1.7780   -0.5390 ca        1 ZY7     -0.077000
     23 C23         6.4950   -0.1960   -0.9460 c3        1 ZY7      0.113700
     24 H7         -0.4050   -0.5210    0.6090 ha        1 ZY7      0.147000
     25 H221        2.5650   -0.7720    3.6570 h1        1 ZY7      0.048367
     26 H222        2.6330    1.0630    3.5970 h1        1 ZY7      0.048367
     27 H223        1.1150    0.2190    4.2050 h1        1 ZY7      0.048367
     28 H2          4.0960    0.0490    2.1800 ha        1 ZY7      0.157000
     29 H5          1.8220   -0.0900   -2.2730 ha        1 ZY7      0.139000
     30 H6          4.2910   -0.1840   -2.1450 ha        1 ZY7      0.141000
     31 H131        0.9100    1.9520   -1.8820 hc        1 ZY7      0.052700
     32 H132       -0.1620    1.1420   -3.0990 hc        1 ZY7      0.052700
     33 H121       -0.6440    3.5460   -3.0900 hc        1 ZY7      0.050200
     34 H122       -0.8150    3.5660   -1.2910 hc        1 ZY7      0.050200
     35 H111       -3.0690    3.5310   -2.0420 h1        1 ZY7      0.065700
     36 H112       -2.7050    2.4190   -3.4330 h1        1 ZY7      0.065700
     37 H19        -4.1090    0.7830    0.9240 h4        1 ZY7      0.035100
     38 H17        -4.4410   -3.2850    1.7220 h4        1 ZY7      0.021100
     39 H16        -2.6830   -3.8600   -0.0030 ha        1 ZY7      0.143000
     40 H15        -1.5960   -1.9880   -1.2970 ha        1 ZY7      0.144000
     41 H231        7.5400   -0.2130   -0.5450 h1        1 ZY7      0.046700
     42 H232        6.3370    0.6970   -1.5990 h1        1 ZY7      0.046700
     43 H233        6.2710   -1.1360   -1.5060 h1        1 ZY7      0.046700
@<TRIPOS>BOND
     1    1    2 1   
     2    1   11 2   
     3    1   24 1   
     4    2    3 ar  
     5    2    7 ar  
     6    3    4 1   
     7    3    6 ar  
     8    4    5 1   
     9    5   25 1   
    10    5   26 1   
    11    5   27 1   
    12    6    9 ar  
    13    6   28 1   
    14    7    8 ar  
    15    7   29 1   
    16    8    9 ar  
    17    8   30 1   
    18    9   10 1   
    19   10   23 1   
    20   11   12 1   
    21   11   16 1   
    22   12   13 1   
    23   12   31 1   
    24   12   32 1   
    25   13   14 1   
    26   13   33 1   
    27   13   34 1   
    28   14   15 1   
    29   14   35 1   
    30   14   36 1   
    31   15   16 2   
    32   16   17 1   
    33   17   18 ar  
    34   17   22 ar  
    35   18   19 ar  
    36   18   37 1   
    37   19   20 ar  
    38   20   21 ar  
    39   20   38 1   
    40   21   22 ar  
    41   21   39 1   
    42   22   40 1   
    43   23   41 1   
    44   23   42 1   
    45   23   43 1   
@<TRIPOS>SUBSTRUCTURE
     1 ZY7         1 TEMP              0 ****  ****    0 ROOT
