@<TRIPOS>MOLECULE
ZY7
   43    39     1     0     0
SMALL
bcc


@<TRIPOS>ATOM
      1 C7          0.2780   -0.2170    0.0500 c1        1 ZY7     -0.059000
      2 C4         -0.4550    1.1530    0.0020 c1        1 ZY7     -0.113000
      3 C3         -0.4040    1.9170   -1.1470 c2        1 ZY7      0.126000
      4 O21         0.1620    1.3600   -2.3600 os        1 ZY7     -0.205000
      5 C22         1.3630    2.0010   -2.7930 c3        1 ZY7     -0.079000
      6 C2         -0.9400    3.1940   -1.1550 c1        1 ZY7     -0.239000
      7 C5         -1.0420    1.6630    1.1470 c1        1 ZY7     -0.054000
      8 C6         -1.5830    2.9500    1.1410 c1        1 ZY7     -0.242000
      9 C1         -1.5330    3.7090    0.0010 c1        1 ZY7      0.122000
     10 O20        -2.1650    4.9640   -0.0340 os        1 ZY7     -0.209000
     11 C8         -0.4470   -1.3880    0.0570 c1        1 ZY7     -0.132000
     12 C13        -1.9020   -1.3650    0.0210 c2        1 ZY7     -0.127000
     13 C12        -2.4610   -2.5720   -0.5260 c3        1 ZY7     -0.183000
     14 C11        -2.0450   -3.8600    0.0810 c3        1 ZY7     -0.105000
     15 N10        -0.5810   -4.0240    0.1120 n2        1 ZY7     -0.161000
     16 C9          0.2760   -2.7730    0.1050 c2        1 ZY7      0.052000
     17 C14         1.7600   -2.8570    0.5020 c2        1 ZY7     -0.090000
     18 C19         2.7110   -3.0700   -0.4580 c2        1 ZY7     -0.052000
     19 N18         4.0080   -3.2590   -0.1010 n1        1 ZY7     -0.141000
     20 C17         4.3630   -3.2370    1.2000 c1        1 ZY7     -0.127500
     21 C16         3.4080   -3.0230    2.1710 c1        1 ZY7     -0.127500
     22 C15         2.1150   -2.8350    1.8180 c1        1 ZY7     -0.069000
     23 C23        -1.3710    6.0160    0.4680 c3        1 ZY7     -0.076000
     24 H7          1.2580   -0.2470    0.0750 ha        1 ZY7      0.147000
     25 H221        1.9380    1.3420   -3.2630 h1        1 ZY7      0.088000
     26 H222        1.1430    2.7190   -3.3930 h1        1 ZY7      0.088000
     27 H223        1.8530    2.3660   -2.0000 h1        1 ZY7      0.088000
     28 H2         -0.9020    3.7600   -2.0080 ha        1 ZY7      0.157000
     29 H5         -1.0760    1.1460    1.9240 ha        1 ZY7      0.140000
     30 H6         -1.9840    3.3000    1.9250 ha        1 ZY7      0.140000
     31 H131       -2.1770   -1.0880    0.9480 ha        1 ZY7      0.092000
     32 H132       -2.2690   -0.6380   -0.4980 ha        1 ZY7      0.092000
     33 H121       -3.4170   -2.5100   -0.4520 hc        1 ZY7      0.090000
     34 H122       -2.2310   -2.6030   -1.4920 hc        1 ZY7      0.090000
     35 H111       -2.4960   -4.0000    0.9580 h1        1 ZY7      0.104500
     36 H112       -2.4270   -4.6280   -0.4440 h1        1 ZY7      0.104500
     37 H19         2.4600   -3.0860   -1.3920 h4        1 ZY7      0.167000
     38 H17         5.2640   -3.3680    1.4470 ha        1 ZY7      0.150500
     39 H16         3.6610   -3.0070    3.1050 ha        1 ZY7      0.150500
     40 H15         1.4630   -2.6890    2.4790 ha        1 ZY7      0.144000
     41 H231       -0.8410    5.6900    1.2390 h1        1 ZY7      0.085667
     42 H232       -1.9600    6.7670    0.7640 h1        1 ZY7      0.085667
     43 H233       -0.7740    6.3280   -0.2260 h1        1 ZY7      0.085667
@<TRIPOS>BOND
     1    1   11 1   
     2    1   24 1   
     3    2    3 1   
     4    2    7 1   
     5    3    4 1   
     6    3    6 1   
     7    4    5 1   
     8    5   25 1   
     9    5   26 1   
    10    5   27 1   
    11    6   28 1   
    12    7   29 1   
    13    8    9 1   
    14    8   30 1   
    15    9   10 1   
    16   10   23 1   
    17   11   16 1   
    18   12   13 1   
    19   12   31 1   
    20   12   32 1   
    21   13   14 1   
    22   13   33 1   
    23   13   34 1   
    24   14   15 1   
    25   14   35 1   
    26   14   36 1   
    27   15   16 1   
    28   16   17 1   
    29   17   18 1   
    30   17   22 1   
    31   18   19 1   
    32   18   37 1   
    33   20   21 1   
    34   20   38 1   
    35   21   39 1   
    36   22   40 1   
    37   23   41 1   
    38   23   42 1   
    39   23   43 1   
@<TRIPOS>SUBSTRUCTURE
     1 ZY7         1 TEMP              0 ****  ****    0 ROOT
