@<TRIPOS>MOLECULE
ZY7
   43    45     1     0     0
SMALL
bcc


@<TRIPOS>ATOM
      1 C7          0.0760    0.0820   -0.1930 ce        1 ZY7     -0.051200
      2 C4          1.5270    0.0540   -0.1460 ca        1 ZY7     -0.124800
      3 C3          2.1860    0.0720    1.1120 ca        1 ZY7      0.171100
      4 O21         1.3550    0.1460    2.2100 os        1 ZY7     -0.320900
      5 C22         1.9880    0.1620    3.4860 c3        1 ZY7      0.110700
      6 C2          3.5780    0.0190    1.2030 ca        1 ZY7     -0.240000
      7 C5          2.3120   -0.0470   -1.2960 ca        1 ZY7     -0.055000
      8 C6          3.7030   -0.1090   -1.2320 ca        1 ZY7     -0.242000
      9 C1          4.3300   -0.0700    0.0180 ca        1 ZY7      0.167100
     10 O20         5.6950   -0.1170    0.2100 os        1 ZY7     -0.325900
     11 C8         -0.6900    0.7640   -1.0630 cf        1 ZY7     -0.221800
     12 C13        -0.1550    1.6790   -2.1120 c3        1 ZY7     -0.044200
     13 C12        -0.9790    2.9480   -2.2080 c3        1 ZY7     -0.104400
     14 C11        -2.4660    2.6360   -2.3450 c3        1 ZY7      0.100800
     15 N10        -2.9750    1.5280   -1.5890 n2        1 ZY7     -0.578900
     16 C9         -2.1730    0.6850   -1.0180 cf        1 ZY7      0.513200
     17 C14        -2.7590   -0.4520   -0.2740 ca        1 ZY7     -0.243200
     18 C19        -3.7560   -0.2330    0.7030 ca        1 ZY7      0.428200
     19 N18        -4.3370   -1.2240    1.4040 nb        1 ZY7     -0.670000
     20 C17        -3.9440   -2.4850    1.1390 ca        1 ZY7      0.398200
     21 C16        -2.9680   -2.8080    0.1790 ca        1 ZY7     -0.253300
     22 C15        -2.3690   -1.7710   -0.5370 ca        1 ZY7     -0.077000
     23 C23         6.4940   -0.2060   -0.9650 c3        1 ZY7      0.113700
     24 H7         -0.4030   -0.5180    0.6070 ha        1 ZY7      0.147000
     25 H221        2.6460    1.0590    3.5880 h1        1 ZY7      0.048367
     26 H222        1.1270    0.2180    4.1990 h1        1 ZY7      0.048367
     27 H223        2.5740   -0.7750    3.6470 h1        1 ZY7      0.048367
     28 H2          4.1030    0.0430    2.1670 ha        1 ZY7      0.157000
     29 H5          1.8180   -0.0920   -2.2800 ha        1 ZY7      0.139000
     30 H6          4.2870   -0.1900   -2.1590 ha        1 ZY7      0.141000
     31 H131        0.9100    1.9520   -1.8870 hc        1 ZY7      0.052700
     32 H132       -0.1660    1.1450   -3.1020 hc        1 ZY7      0.052700
     33 H121       -0.8100    3.5690   -1.2910 hc        1 ZY7      0.050200
     34 H122       -0.6440    3.5500   -3.0910 hc        1 ZY7      0.050200
     35 H111       -3.0660    3.5400   -2.0350 h1        1 ZY7      0.065700
     36 H112       -2.7080    2.4280   -3.4290 h1        1 ZY7      0.065700
     37 H19        -4.1050    0.7910    0.9310 h4        1 ZY7      0.035100
     38 H17        -4.4420   -3.2760    1.7280 h4        1 ZY7      0.021100
     39 H16        -2.6880   -3.8540   -0.0010 ha        1 ZY7      0.143000
     40 H15        -1.6010   -1.9830   -1.2960 ha        1 ZY7      0.144000
     41 H231        6.2670   -1.1460   -1.5250 h1        1 ZY7      0.046700
     42 H232        7.5400   -0.2260   -0.5670 h1        1 ZY7      0.046700
     43 H233        6.3360    0.6860   -1.6180 h1        1 ZY7      0.046700
@<TRIPOS>BOND
     1    1    2 1   
     2    1   11 2   
     3    1   24 1   
     4    2    3 ar  
     5    2    7 ar  
     6    3    4 1   
     7    3    6 ar  
     8    4    5 1   
     9    5   25 1   
    10    5   26 1   
    11    5   27 1   
    12    6    9 ar  
    13    6   28 1   
    14    7    8 ar  
    15    7   29 1   
    16    8    9 ar  
    17    8   30 1   
    18    9   10 1   
    19   10   23 1   
    20   11   12 1   
    21   11   16 1   
    22   12   13 1   
    23   12   31 1   
    24   12   32 1   
    25   13   14 1   
    26   13   33 1   
    27   13   34 1   
    28   14   15 1   
    29   14   35 1   
    30   14   36 1   
    31   15   16 2   
    32   16   17 1   
    33   17   18 ar  
    34   17   22 ar  
    35   18   19 ar  
    36   18   37 1   
    37   19   20 ar  
    38   20   21 ar  
    39   20   38 1   
    40   21   22 ar  
    41   21   39 1   
    42   22   40 1   
    43   23   41 1   
    44   23   42 1   
    45   23   43 1   
@<TRIPOS>SUBSTRUCTURE
     1 ZY7         1 TEMP              0 ****  ****    0 ROOT
