@<TRIPOS>MOLECULE
ZY7
   43    45     1     0     0
SMALL
bcc


@<TRIPOS>ATOM
      1 C7          0.1410    0.0510    0.0110 ce        1 ZY7     -0.051200
      2 C4         -1.3050   -0.0120    0.1270 ca        1 ZY7     -0.124800
      3 C3         -2.0220   -0.9960   -0.6040 ca        1 ZY7      0.171100
      4 O21        -1.2510   -1.8120   -1.4050 os        1 ZY7     -0.320900
      5 C22        -1.9440   -2.8110   -2.1470 c3        1 ZY7      0.110700
      6 C2         -3.4090   -1.1080   -0.5010 ca        1 ZY7     -0.240000
      7 C5         -2.0260    0.8290    0.9770 ca        1 ZY7     -0.055000
      8 C6         -3.4100    0.7320    1.1040 ca        1 ZY7     -0.242000
      9 C1         -4.0970   -0.2330    0.3590 ca        1 ZY7      0.167100
     10 O20        -5.4630   -0.4210    0.3930 os        1 ZY7     -0.325900
     11 C8          0.8980    1.1610   -0.0550 cf        1 ZY7     -0.221800
     12 C13         0.3510    2.5480   -0.0850 c3        1 ZY7     -0.044200
     13 C12         1.0880    3.4090   -1.0920 c3        1 ZY7     -0.104400
     14 C11         2.5980    3.3340   -0.8890 c3        1 ZY7      0.100800
     15 N10         3.1470    2.0590   -0.5250 n2        1 ZY7     -0.578900
     16 C9          2.3800    1.0850   -0.1450 cf        1 ZY7      0.513200
     17 C14         3.0070   -0.1970    0.2420 ca        1 ZY7     -0.243200
     18 C19         3.9390   -0.8270   -0.6140 ca        1 ZY7      0.428200
     19 N18         4.5540   -1.9850   -0.3140 nb        1 ZY7     -0.670000
     20 C17         4.2640   -2.5550    0.8720 ca        1 ZY7      0.398200
     21 C16         3.3590   -2.0020    1.7960 ca        1 ZY7     -0.253300
     22 C15         2.7230   -0.8030    1.4720 ca        1 ZY7     -0.077000
     23 C23        -6.1970    0.4460    1.2520 c3        1 ZY7      0.113700
     24 H7          0.6230   -0.9460   -0.0480 ha        1 ZY7      0.147000
     25 H221       -1.1230   -3.3340   -2.7010 h1        1 ZY7      0.048367
     26 H222       -2.4700   -3.5180   -1.4600 h1        1 ZY7      0.048367
     27 H223       -2.6660   -2.3440   -2.8590 h1        1 ZY7      0.048367
     28 H2         -3.9800   -1.8570   -1.0670 ha        1 ZY7      0.157000
     29 H5         -1.4830    1.5810    1.5740 ha        1 ZY7      0.139000
     30 H6         -3.9420    1.4100    1.7840 ha        1 ZY7      0.141000
     31 H131       -0.7410    2.5330   -0.3490 hc        1 ZY7      0.052700
     32 H132        0.4460    3.0000    0.9390 hc        1 ZY7      0.052700
     33 H121        0.8320    3.0670   -2.1290 hc        1 ZY7      0.050200
     34 H122        0.7530    4.4730   -0.9960 hc        1 ZY7      0.050200
     35 H111        3.1170    3.6490   -1.8390 h1        1 ZY7      0.065700
     36 H112        2.9040    4.0610   -0.0810 h1        1 ZY7      0.065700
     37 H19         4.2050   -0.3740   -1.5870 h4        1 ZY7      0.035100
     38 H17         4.7870   -3.5020    1.0900 h4        1 ZY7      0.021100
     39 H16         3.1620   -2.5050    2.7510 ha        1 ZY7      0.143000
     40 H15         2.0090   -0.3390    2.1680 ha        1 ZY7      0.144000
     41 H231       -5.8780    0.3100    2.3140 h1        1 ZY7      0.046700
     42 H232       -6.0710    1.5100    0.9370 h1        1 ZY7      0.046700
     43 H233       -7.2560    0.1140    1.1110 h1        1 ZY7      0.046700
@<TRIPOS>BOND
     1    1    2 1   
     2    1   11 2   
     3    1   24 1   
     4    2    3 ar  
     5    2    7 ar  
     6    3    4 1   
     7    3    6 ar  
     8    4    5 1   
     9    5   25 1   
    10    5   26 1   
    11    5   27 1   
    12    6    9 ar  
    13    6   28 1   
    14    7    8 ar  
    15    7   29 1   
    16    8    9 ar  
    17    8   30 1   
    18    9   10 1   
    19   10   23 1   
    20   11   12 1   
    21   11   16 1   
    22   12   13 1   
    23   12   31 1   
    24   12   32 1   
    25   13   14 1   
    26   13   33 1   
    27   13   34 1   
    28   14   15 1   
    29   14   35 1   
    30   14   36 1   
    31   15   16 2   
    32   16   17 1   
    33   17   18 ar  
    34   17   22 ar  
    35   18   19 ar  
    36   18   37 1   
    37   19   20 ar  
    38   20   21 ar  
    39   20   38 1   
    40   21   22 ar  
    41   21   39 1   
    42   22   40 1   
    43   23   41 1   
    44   23   42 1   
    45   23   43 1   
@<TRIPOS>SUBSTRUCTURE
     1 ZY7         1 TEMP              0 ****  ****    0 ROOT
