@<TRIPOS>MOLECULE
ZYA
   52    53     1     0     0
SMALL
bcc


@<TRIPOS>ATOM
      1 C1         -1.3740   -0.3740   -0.5960 c         1 ZYA      0.731100
      2 O1         -1.2420   -0.2500   -1.8250 o         1 ZYA     -0.584000
      3 O2         -2.5130   -0.9710   -0.1000 os        1 ZYA     -0.436900
      4 C2         -3.5090   -1.2870   -1.0960 c3        1 ZYA      0.196700
      5 C3         -4.6940   -1.8440   -0.3840 ca        1 ZYA     -0.097300
      6 C4         -5.9730   -1.5790   -0.8860 ca        1 ZYA     -0.111500
      7 C5         -7.0940   -2.1250   -0.2630 ca        1 ZYA     -0.131500
      8 C6         -6.9450   -2.9290    0.8670 ca        1 ZYA     -0.124000
      9 C7         -5.6720   -3.1880    1.3740 ca        1 ZYA     -0.131500
     10 C8         -4.5470   -2.6500    0.7490 ca        1 ZYA     -0.111500
     11 N1         -0.5280    0.0770    0.4070 n         1 ZYA     -0.502900
     12 CA1         0.8350    0.4130    0.0690 c3        1 ZYA      0.039700
     13 C           1.7940   -0.7820    0.3200 c         1 ZYA      0.628100
     14 O           1.6410   -1.5330    1.3050 o         1 ZYA     -0.616100
     15 CB1         1.3810    1.5830    0.9130 c3        1 ZYA     -0.030100
     16 CG          0.7030    2.8660    0.5940 ca        1 ZYA     -0.125300
     17 CD1        -0.4750    3.2290    1.2550 ca        1 ZYA     -0.079000
     18 CD2         1.2500    3.7320   -0.3630 ca        1 ZYA     -0.079000
     19 CE1        -1.1060    4.4370    0.9700 ca        1 ZYA     -0.184000
     20 CE2         0.6360    4.9430   -0.6630 ca        1 ZYA     -0.184000
     21 CZ         -0.5470    5.2920    0.0090 ca        1 ZYA      0.130100
     22 OH         -1.1090    6.5020   -0.3250 oh        1 ZYA     -0.496100
     23 N2          2.8130   -0.9670   -0.5850 n         1 ZYA     -0.553900
     24 CA2         3.8140   -1.9940   -0.4270 c3        1 ZYA      0.006700
     25 CT          5.1990   -1.4080   -0.1260 c         1 ZYA      0.512100
     26 OT          5.6140   -0.3690   -0.6360 o         1 ZYA     -0.493100
     27 CB2         3.9550   -2.8830   -1.6670 c3        1 ZYA     -0.108100
     28 CM          6.0060   -2.2370    0.8560 c3        1 ZYA      0.066900
     29 F1          7.3080   -1.8060    0.9860 f         1 ZYA     -0.219300
     30 H21        -3.0710   -2.0420   -1.8040 h1        1 ZYA      0.065200
     31 H22        -3.7600   -0.3520   -1.6640 h1        1 ZYA      0.065200
     32 H4         -6.0940   -0.9400   -1.7740 ha        1 ZYA      0.139000
     33 H5         -8.0970   -1.9190   -0.6630 ha        1 ZYA      0.133000
     34 H6         -7.8310   -3.3570    1.3580 ha        1 ZYA      0.132000
     35 H7         -5.5520   -3.8190    2.2670 ha        1 ZYA      0.133000
     36 H8         -3.5400   -2.8470    1.1480 ha        1 ZYA      0.139000
     37 HN1        -0.6750   -0.2960    1.3210 hn        1 ZYA      0.330500
     38 HA1         0.8540    0.7120   -1.0240 h1        1 ZYA      0.107700
     39 HB11        1.2680    1.3460    2.0050 hc        1 ZYA      0.065200
     40 HB12        2.4800    1.6690    0.6980 hc        1 ZYA      0.065200
     41 HD1        -0.9110    2.5520    2.0050 ha        1 ZYA      0.135500
     42 HD2         2.1780    3.4550   -0.8850 ha        1 ZYA      0.135500
     43 HE1        -2.0320    4.7160    1.4910 ha        1 ZYA      0.144000
     44 HE2         1.0580    5.6280   -1.4120 ha        1 ZYA      0.144000
     45 HO         -1.9180    6.6100    0.1960 ho        1 ZYA      0.420000
     46 HN2         2.9490   -0.3190   -1.3250 hn        1 ZYA      0.328500
     47 HA2         3.5040   -2.6440    0.4490 h1        1 ZYA      0.102700
     48 HB21        2.9820   -3.3770   -1.9020 hc        1 ZYA      0.054033
     49 HB22        4.2790   -2.2860   -2.5530 hc        1 ZYA      0.054033
     50 HB23        4.7190   -3.6710   -1.4640 hc        1 ZYA      0.054033
     51 HM1         6.0080   -3.3090    0.5060 h1        1 ZYA      0.070700
     52 HM2         5.4980   -2.1810    1.8610 h1        1 ZYA      0.070700
@<TRIPOS>BOND
     1    1    2 2   
     2    1    3 1   
     3    1   11 1   
     4    3    4 1   
     5    4    5 1   
     6    4   30 1   
     7    4   31 1   
     8    5    6 ar  
     9    5   10 ar  
    10    6    7 ar  
    11    6   32 1   
    12    7    8 ar  
    13    7   33 1   
    14    8    9 ar  
    15    8   34 1   
    16    9   10 ar  
    17    9   35 1   
    18   10   36 1   
    19   11   12 1   
    20   11   37 1   
    21   12   13 1   
    22   12   15 1   
    23   12   38 1   
    24   13   14 2   
    25   13   23 1   
    26   15   16 1   
    27   15   39 1   
    28   15   40 1   
    29   16   17 ar  
    30   16   18 ar  
    31   17   19 ar  
    32   17   41 1   
    33   18   20 ar  
    34   18   42 1   
    35   19   21 ar  
    36   19   43 1   
    37   20   21 ar  
    38   20   44 1   
    39   21   22 1   
    40   22   45 1   
    41   23   24 1   
    42   23   46 1   
    43   24   25 1   
    44   24   27 1   
    45   24   47 1   
    46   25   26 2   
    47   25   28 1   
    48   27   48 1   
    49   27   49 1   
    50   27   50 1   
    51   28   29 1   
    52   28   51 1   
    53   28   52 1   
@<TRIPOS>SUBSTRUCTURE
     1 ZYA         1 TEMP              0 ****  ****    0 ROOT
