@<TRIPOS>MOLECULE
ZYB
   19    19     1     0     0
SMALL
bcc


@<TRIPOS>ATOM
      1 F           0.0280    0.0750   -0.0020 f         1 ZYB     -0.098900
      2 C2          1.3740    0.0290   -0.0080 ca        1 ZYB      0.197900
      3 C1          2.0620   -0.5130    1.1010 ca        1 ZYB     -0.161500
      4 C3          2.0910    0.5180   -1.1190 ca        1 ZYB     -0.161500
      5 C4          3.4800    0.4690   -1.1160 ca        1 ZYB     -0.061500
      6 C5          4.1590   -0.0560   -0.0090 ca        1 ZYB     -0.229900
      7 C           3.4480   -0.5570    1.0910 ca        1 ZYB     -0.061500
      8 C6          5.6330   -0.1230   -0.0210 ce        1 ZYB      0.485800
      9 N           6.2580    0.7280    1.0420 n4        1 ZYB     -0.825600
     10 N1          6.2840   -0.8530   -0.8910 n2        1 ZYB     -0.308200
     11 O           7.5810   -0.8520   -0.8640 oh        1 ZYB     -0.349500
     12 H1          1.4890   -0.9060    1.9560 ha        1 ZYB      0.181000
     13 H3          1.5440    0.9270   -1.9840 ha        1 ZYB      0.181000
     14 H           3.9770   -1.0140    1.9430 ha        1 ZYB      0.150000
     15 H4          4.0390    0.8360   -1.9920 ha        1 ZYB      0.150000
     16 HN1         5.6880    0.6600    1.8930 hn        1 ZYB      0.468133
     17 HN2         6.2670    1.7030    0.7220 hn        1 ZYB      0.468133
     18 HB          7.8640   -1.4690   -1.5840 ho        1 ZYB      0.507000
     19 HN3         7.2180    0.4310    1.2450 hn        1 ZYB      0.468133
@<TRIPOS>BOND
     1    1    2 1   
     2    2    3 ar  
     3    2    4 ar  
     4    3    7 ar  
     5    3   12 1   
     6    4    5 ar  
     7    4   13 1   
     8    5    6 ar  
     9    5   15 1   
    10    6    7 ar  
    11    6    8 1   
    12    7   14 1   
    13    8    9 1   
    14    8   10 2   
    15    9   16 1   
    16    9   17 1   
    17    9   19 1   
    18   10   11 1   
    19   11   18 1   
@<TRIPOS>SUBSTRUCTURE
     1 ZYB         1 TEMP              0 ****  ****    0 ROOT
