@<TRIPOS>MOLECULE
ZYB
   19    19     1     0     0
SMALL
bcc


@<TRIPOS>ATOM
      1 F           0.0310   -0.1640    0.1720 f         1 ZYB     -0.098900
      2 C2          1.3760   -0.1330    0.1110 ca        1 ZYB      0.197900
      3 C1          2.1390   -0.6580    1.1770 ca        1 ZYB     -0.161500
      4 C3          2.0170    0.4200   -1.0170 ca        1 ZYB     -0.161500
      5 C4          3.4050    0.4510   -1.0730 ca        1 ZYB     -0.061500
      6 C5          4.1590   -0.0590   -0.0070 ca        1 ZYB     -0.229900
      7 C           3.5250   -0.6230    1.1090 ca        1 ZYB     -0.061500
      8 C6          5.6320   -0.0410   -0.0820 ce        1 ZYB      0.485800
      9 N           6.2530    0.8220    0.9750 nz        1 ZYB     -0.825600
     10 N1          6.2860   -0.7140   -0.9940 n2        1 ZYB     -0.308200
     11 O           7.5810   -0.6390   -1.0210 oh        1 ZYB     -0.349500
     12 H1          1.6260   -1.1020    2.0460 ha        1 ZYB      0.181000
     13 H3          1.4110    0.8160   -1.8490 ha        1 ZYB      0.181000
     14 H           4.1140   -1.0670    1.9270 ha        1 ZYB      0.150000
     15 H4          3.9050    0.8680   -1.9620 ha        1 ZYB      0.150000
     16 HN1         6.1920    1.8030    0.6790 hn        1 ZYB      0.468133
     17 HN2         7.2370    0.5770    1.1300 hn        1 ZYB      0.468133
     18 HB          7.8680   -1.2240   -1.7660 ho        1 ZYB      0.507000
     19 HN3         5.7250    0.7020    1.8470 hn        1 ZYB      0.468133
@<TRIPOS>BOND
     1    1    2 1   
     2    2    3 ar  
     3    2    4 ar  
     4    3    7 ar  
     5    3   12 1   
     6    4    5 ar  
     7    4   13 1   
     8    5    6 ar  
     9    5   15 1   
    10    6    7 ar  
    11    6    8 1   
    12    7   14 1   
    13    8    9 1   
    14    8   10 2   
    15    9   16 1   
    16    9   17 1   
    17    9   19 1   
    18   10   11 1   
    19   11   18 1   
@<TRIPOS>SUBSTRUCTURE
     1 ZYB         1 TEMP              0 ****  ****    0 ROOT
