@<TRIPOS>MOLECULE
ZYC
   30    30     1     0     0
SMALL
bcc


@<TRIPOS>ATOM
      1 CAA         0.0070    0.1840    0.0770 c3        1 ZYC     -0.100100
      2 CAB         9.9130    0.1970    4.8580 c3        1 ZYC      0.108700
      3 OAC         4.0580   -0.1840    0.3280 o         1 ZYC     -0.553000
      4 OAD         7.5580   -0.1340    8.1430 oh        1 ZYC     -0.470100
      5 CAE         3.8670   -0.0540    2.7570 ce        1 ZYC     -0.220200
      6 CAF         5.1740   -0.1750    3.0440 cf        1 ZYC     -0.015200
      7 CAG         4.9520   -0.2840    5.5270 ca        1 ZYC     -0.094000
      8 CAH         5.5330   -0.2770    6.7940 ca        1 ZYC     -0.198000
      9 CAI         7.1390   -0.0480    4.5100 ca        1 ZYC     -0.153000
     10 CAJ         1.5020    0.0380   -0.0710 c3        1 ZYC      0.139400
     11 OAK         9.0840    0.0830    6.0100 os        1 ZYC     -0.302900
     12 OAL         2.0410    0.0480    1.2630 os        1 ZYC     -0.439900
     13 CAM         3.4010   -0.0750    1.3690 c         1 ZYC      0.633300
     14 CAN         5.7420   -0.1690    4.3790 ca        1 ZYC     -0.085800
     15 CAO         6.9170   -0.1510    6.9290 ca        1 ZYC      0.122100
     16 CAP         7.7300   -0.0350    5.7700 ca        1 ZYC      0.097100
     17 HAA        -0.2450    1.1400    0.5950 hc        1 ZYC      0.047367
     18 HAAA       -0.4600    0.1830   -0.9370 hc        1 ZYC      0.047367
     19 HAAB       -0.4120   -0.6600    0.6740 hc        1 ZYC      0.047367
     20 HAB        10.9420    0.2790    5.2910 h1        1 ZYC      0.046367
     21 HABA        9.8260   -0.7120    4.2160 h1        1 ZYC      0.046367
     22 HABB        9.6570    1.1150    4.2750 h1        1 ZYC      0.046367
     23 HOAD        6.8830   -0.2210    8.8330 ho        1 ZYC      0.418000
     24 HAE         3.0810    0.0700    3.5180 ha        1 ZYC      0.154000
     25 HAF         5.9020   -0.2840    2.2150 ha        1 ZYC      0.147000
     26 HAG         3.8600   -0.3900    5.4410 ha        1 ZYC      0.140000
     27 HAH         4.9020   -0.3700    7.6900 ha        1 ZYC      0.140000
     28 HAI         7.7570    0.0400    3.6040 ha        1 ZYC      0.146000
     29 HAJ         1.9520    0.8880   -0.6470 h1        1 ZYC      0.051700
     30 HAJA        1.7830   -0.9280   -0.5660 h1        1 ZYC      0.051700
@<TRIPOS>BOND
     1    1   10 1   
     2    1   17 1   
     3    1   18 1   
     4    1   19 1   
     5    2   11 1   
     6    2   20 1   
     7    2   21 1   
     8    2   22 1   
     9    3   13 2   
    10    4   15 1   
    11    4   23 1   
    12    5    6 2   
    13    5   13 1   
    14    5   24 1   
    15    6   14 1   
    16    6   25 1   
    17    7    8 ar  
    18    7   14 ar  
    19    7   26 1   
    20    8   15 ar  
    21    8   27 1   
    22    9   14 ar  
    23    9   16 ar  
    24    9   28 1   
    25   10   12 1   
    26   10   29 1   
    27   10   30 1   
    28   11   16 1   
    29   12   13 1   
    30   15   16 ar  
@<TRIPOS>SUBSTRUCTURE
     1 ZYC         1 TEMP              0 ****  ****    0 ROOT
