@<TRIPOS>MOLECULE
ZYC
   30    30     1     0     0
SMALL
bcc


@<TRIPOS>ATOM
      1 CAA         6.4380    0.8300   -0.1430 c3        1 ZYC     -0.100100
      2 CAB        -4.1000   -2.3780   -0.2130 c3        1 ZYC      0.120700
      3 OAC         3.2840   -1.7160    0.2780 o         1 ZYC     -0.554000
      4 OAD        -4.5320    1.7620   -0.1160 oh        1 ZYC     -0.490100
      5 CAE         1.7800    0.1880    0.0180 ce        1 ZYC     -0.220200
      6 CAF         0.6230   -0.4840    0.1460 cf        1 ZYC     -0.016200
      7 CAG        -0.9030    1.4930    0.1120 ca        1 ZYC     -0.095000
      8 CAH        -2.1850    2.0320    0.0470 ca        1 ZYC     -0.146000
      9 CAI        -1.8100   -0.7520   -0.0170 ca        1 ZYC     -0.137000
     10 CAJ         5.4380   -0.2860    0.0360 c3        1 ZYC      0.139400
     11 OAK        -4.2610   -0.9640   -0.1860 os        1 ZYC     -0.348900
     12 OAL         4.1370    0.3260   -0.0350 os        1 ZYC     -0.438900
     13 CAM         3.0640   -0.5130    0.1040 c         1 ZYC      0.633300
     14 CAN        -0.7000    0.1080    0.0780 ca        1 ZYC     -0.089800
     15 CAO        -3.2920    1.1810   -0.0540 ca        1 ZYC      0.131100
     16 CAP        -3.0950   -0.2220   -0.0860 ca        1 ZYC      0.038100
     17 HAA         6.2940    1.3320   -1.1290 hc        1 ZYC      0.047700
     18 HAAA        6.3210    1.5950    0.6610 hc        1 ZYC      0.047700
     19 HAAB        7.4690    0.4040   -0.0960 hc        1 ZYC      0.047700
     20 HAB        -3.6220   -2.7370    0.7300 h1        1 ZYC      0.048033
     21 HABA       -5.1510   -2.7560   -0.2940 h1        1 ZYC      0.048033
     22 HABB       -3.4990   -2.6880   -1.1030 h1        1 ZYC      0.048033
     23 HOAD       -5.1960    1.0570   -0.1820 ho        1 ZYC      0.440000
     24 HAE         1.8430    1.2720   -0.1580 ha        1 ZYC      0.155000
     25 HAF         0.6500   -1.5800    0.3100 ha        1 ZYC      0.146000
     26 HAG        -0.0430    2.1740    0.1960 ha        1 ZYC      0.141000
     27 HAH        -2.3460    3.1200    0.0750 ha        1 ZYC      0.157000
     28 HAI        -1.6520   -1.8400   -0.0400 ha        1 ZYC      0.144000
     29 HAJ         5.5170   -1.0560   -0.7750 h1        1 ZYC      0.051700
     30 HAJA        5.5430   -0.7900    1.0320 h1        1 ZYC      0.051700
@<TRIPOS>BOND
     1    1   10 1   
     2    1   17 1   
     3    1   18 1   
     4    1   19 1   
     5    2   11 1   
     6    2   20 1   
     7    2   21 1   
     8    2   22 1   
     9    3   13 2   
    10    4   15 1   
    11    4   23 1   
    12    5    6 2   
    13    5   13 1   
    14    5   24 1   
    15    6   14 1   
    16    6   25 1   
    17    7    8 ar  
    18    7   14 ar  
    19    7   26 1   
    20    8   15 ar  
    21    8   27 1   
    22    9   14 ar  
    23    9   16 ar  
    24    9   28 1   
    25   10   12 1   
    26   10   29 1   
    27   10   30 1   
    28   11   16 1   
    29   12   13 1   
    30   15   16 ar  
@<TRIPOS>SUBSTRUCTURE
     1 ZYC         1 TEMP              0 ****  ****    0 ROOT
