@<TRIPOS>MOLECULE
ZYD
   74    73     1     0     0
SMALL
bcc


@<TRIPOS>ATOM
      1 C1          4.2770   -0.8030   -5.4900 c3        1 ZYD      0.073000
      2 O1          4.6270   -2.1880   -5.5660 oh        1 ZYD     -0.327000
      3 C2          3.2620   -0.3810   -6.7360 c3        1 ZYD     -0.187000
      4 O2          1.2960   -0.2820   -7.8250 oh        1 ZYD     -0.330000
      5 C3          2.0820   -0.7880   -6.6290 c3        1 ZYD      0.035000
      6 O3         -0.7260    4.7420    5.2280 oh        1 ZYD     -0.325000
      7 C4          1.2830   -0.3060   -5.2360 c3        1 ZYD     -0.120000
      8 C5          2.0500   -0.5700   -4.0600 c2        1 ZYD     -0.068000
      9 C6          1.4360   -0.8830   -2.8360 c1        1 ZYD     -0.116000
     10 C7         -0.0920   -0.9470   -2.7390 c1        1 ZYD     -0.152000
     11 C8         -0.7080   -2.0960   -2.2780 c1        1 ZYD     -0.063000
     12 C9          0.0400   -3.1810   -1.9060 c2        1 ZYD     -0.128000
     13 C10         3.7160   -0.4870   -4.2050 c2        1 ZYD     -0.115000
     14 C11         0.1630   -3.1810   -0.3960 c3        1 ZYD     -0.152000
     15 C12        -1.2840   -3.0300    0.3600 c3        1 ZYD     -0.143000
     16 C13        -1.9150   -2.0800   -0.0310 c3        1 ZYD     -0.045000
     17 C14        -2.0750   -2.0080   -1.4960 c3        1 ZYD     -0.082000
     18 C15        -2.6390   -0.8790   -1.6320 c3        1 ZYD     -0.152000
     19 C16        -3.2410   -0.8750   -0.8660 c3        1 ZYD     -0.159000
     20 C17        -2.4640   -2.0700    0.1640 c3        1 ZYD     -0.153000
     21 C18        -1.1870   -0.7660    0.4620 c3        1 ZYD     -0.148000
     22 C19         4.5040   -0.1360   -3.1510 c1        1 ZYD     -0.200000
     23 C20        -1.4770   -0.5520    1.9970 c3        1 ZYD     -0.156000
     24 C21        -0.7970    0.7660    2.4800 c3        1 ZYD     -0.158000
     25 C22        -1.0000    0.9210    4.0230 c3        1 ZYD     -0.157000
     26 C23        -0.6300    2.3560    4.4490 c3        1 ZYD     -0.157000
     27 C24        -0.6880    2.4690    5.9850 c3        1 ZYD     -0.143000
     28 C25        -0.7730    3.9380    6.3830 c3        1 ZYD      0.076000
     29 C26         0.4050    4.2900    7.2970 c3        1 ZYD     -0.241000
     30 C27        -2.0780    4.1890    7.1210 c3        1 ZYD     -0.241000
     31 H1          5.1580   -0.3800   -5.6000 h1        1 ZYD      0.077000
     32 HO1         5.4570   -2.2670   -5.8660 ho        1 ZYD      0.204000
     33 H2          3.2440    0.6000   -6.8000 hc        1 ZYD      0.098000
     34 H2A         3.6340   -0.7350   -7.5660 hc        1 ZYD      0.098000
     35 HO2         1.2770   -0.9110   -8.4560 ho        1 ZYD      0.200000
     36 H3          2.0910   -1.7690   -6.6570 h1        1 ZYD      0.093000
     37 HO3        -0.7820    5.5960    5.4590 ho        1 ZYD      0.196000
     38 H4          1.0330    0.6400   -5.2090 hc        1 ZYD      0.104000
     39 H4A         0.4030   -0.7310   -5.2210 hc        1 ZYD      0.104000
     40 H6          1.9840   -1.0590   -2.0450 ha        1 ZYD      0.123000
     41 H7         -0.6270   -0.1810   -3.0010 ha        1 ZYD      0.130000
     42 H9         -0.3480   -4.0290   -2.2180 ha        1 ZYD      0.088000
     43 H9A         0.9150   -3.1870   -2.3570 ha        1 ZYD      0.088000
     44 H11         0.7310   -2.4440   -0.1300 hc        1 ZYD      0.080500
     45 H11A        0.5820   -4.0200   -0.1130 hc        1 ZYD      0.080500
     46 H12        -1.8100   -3.8460    0.2040 hc        1 ZYD      0.081500
     47 H12A       -1.1290   -2.9320    1.3210 hc        1 ZYD      0.081500
     48 H14        -2.6770   -2.7170   -1.7980 hc        1 ZYD      0.096000
     49 H15        -3.1420   -0.8360   -2.4760 hc        1 ZYD      0.085000
     50 H15A       -1.9870   -0.1520   -1.5700 hc        1 ZYD      0.085000
     51 H16        -4.1410   -1.1620   -1.1220 hc        1 ZYD      0.080500
     52 H16A       -3.2570    0.0050   -0.4350 hc        1 ZYD      0.080500
     53 H17        -2.8890   -2.9540    0.0510 hc        1 ZYD      0.083500
     54 H17A       -2.4930   -1.7860    1.1090 hc        1 ZYD      0.083500
     55 H18        -0.2270   -0.8550    0.3220 hc        1 ZYD      0.085000
     56 H18A       -1.5190   -0.0020   -0.0420 hc        1 ZYD      0.085000
     57 H19         4.0960    0.0760   -2.2780 DU        1 ZYD      0.123000
     58 H19A        5.4820   -0.0940   -3.2600 ha        1 ZYD      0.115000
     59 H20        -2.4450   -0.4910    2.1420 hc        1 ZYD      0.078000
     60 H20A       -1.1190   -1.3080    2.5050 hc        1 ZYD      0.078000
     61 H21        -1.2050    1.5370    2.0160 hc        1 ZYD      0.079500
     62 H21A        0.1590    0.7320    2.2790 hc        1 ZYD      0.079500
     63 H22        -1.9300    0.7470    4.2470 hc        1 ZYD      0.077500
     64 H22A       -0.4260    0.2820    4.4940 hc        1 ZYD      0.077500
     65 H23         0.2710    2.5640    4.1430 hc        1 ZYD      0.087500
     66 H23A       -1.2650    2.9900    4.0500 hc        1 ZYD      0.087500
     67 H24        -1.4740    1.9960    6.3160 hc        1 ZYD      0.086500
     68 H24A        0.1160    2.0730    6.3710 hc        1 ZYD      0.086500
     69 H26         0.2960    5.2070    7.6340 hc        1 ZYD      0.081667
     70 H26A        0.4300    3.6670    8.0510 hc        1 ZYD      0.081667
     71 H26B        1.2400    4.2250    6.7930 hc        1 ZYD      0.081667
     72 H27        -2.1870    5.1530    7.2720 hc        1 ZYD      0.081667
     73 H27A       -2.0610    3.7190    7.9890 hc        1 ZYD      0.081667
     74 H27B       -2.8250    3.8560    6.5840 hc        1 ZYD      0.081667
@<TRIPOS>BOND
     1    1    2 1   
     2    1    3 1   
     3    1   13 1   
     4    1   31 1   
     5    2   32 1   
     6    3    5 1   
     7    3   33 1   
     8    3   34 1   
     9    4    5 1   
    10    4   35 1   
    11    5    7 1   
    12    5   36 1   
    13    6   28 1   
    14    6   37 1   
    15    7    8 1   
    16    7   38 1   
    17    7   39 1   
    18    8    9 1   
    19    8   13 1   
    20    9   40 1   
    21   10   11 1   
    22   10   41 1   
    23   11   17 1   
    24   12   14 1   
    25   12   42 1   
    26   12   43 1   
    27   13   22 1   
    28   14   15 1   
    29   14   44 1   
    30   14   45 1   
    31   15   16 1   
    32   15   46 1   
    33   15   47 1   
    34   16   17 1   
    35   16   20 1   
    36   16   21 1   
    37   17   18 1   
    38   17   48 1   
    39   18   19 1   
    40   18   49 1   
    41   18   50 1   
    42   19   20 1   
    43   19   51 1   
    44   19   52 1   
    45   20   53 1   
    46   20   54 1   
    47   21   23 1   
    48   21   55 1   
    49   21   56 1   
    50   22   58 1   
    51   23   24 1   
    52   23   59 1   
    53   23   60 1   
    54   24   25 1   
    55   24   61 1   
    56   24   62 1   
    57   25   26 1   
    58   25   63 1   
    59   25   64 1   
    60   26   27 1   
    61   26   65 1   
    62   26   66 1   
    63   27   28 1   
    64   27   67 1   
    65   27   68 1   
    66   28   29 1   
    67   28   30 1   
    68   29   69 1   
    69   29   70 1   
    70   29   71 1   
    71   30   72 1   
    72   30   73 1   
    73   30   74 1   
@<TRIPOS>SUBSTRUCTURE
     1 ZYD         1 TEMP              0 ****  ****    0 ROOT
