@<TRIPOS>MOLECULE
ZYD
   74    76     1     0     0
SMALL
bcc


@<TRIPOS>ATOM
      1 C1          5.0840    2.4320   -1.4860 c3        1 ZYD      0.183300
      2 O1          3.8570    2.9560   -1.9860 oh        1 ZYD     -0.596800
      3 C2          5.6580    3.4800   -0.5380 c3        1 ZYD     -0.069400
      4 O2          5.4830    4.5080    1.5810 oh        1 ZYD     -0.600800
      5 C3          4.8410    3.5510    0.7450 c3        1 ZYD      0.145100
      6 O3         -7.6040    1.3820   -1.4540 oh        1 ZYD     -0.597800
      7 C4          4.7860    2.1910    1.4390 c3        1 ZYD     -0.075200
      8 C5          4.2730    1.1320    0.5210 ce        1 ZYD     -0.068200
      9 C6          3.3150    0.2750    0.9340 cf        1 ZYD     -0.116000
     10 C7          2.7280   -0.7660    0.1230 cf        1 ZYD     -0.153000
     11 C8          2.0740   -1.8460    0.5830 c2        1 ZYD     -0.075400
     12 C9          1.9160   -2.2080    2.0250 c3        1 ZYD     -0.044200
     13 C10         4.8940    1.1010   -0.8020 ce        1 ZYD     -0.121200
     14 C11         0.5140   -2.6590    2.4010 c3        1 ZYD     -0.073400
     15 C12        -0.1130   -3.6320    1.4160 c3        1 ZYD     -0.064400
     16 C13        -0.0230   -3.0850    0.0020 c3        1 ZYD     -0.044000
     17 C14         1.4860   -2.8810   -0.3070 c3        1 ZYD     -0.038500
     18 C15         1.5400   -2.7590   -1.8230 c3        1 ZYD     -0.072400
     19 C16         0.4360   -3.6990   -2.3190 c3        1 ZYD     -0.080400
     20 C17        -0.4380   -4.0580   -1.1120 c3        1 ZYD     -0.074400
     21 C18        -0.7970   -1.7760   -0.1540 c3        1 ZYD     -0.070400
     22 C19         5.3090   -0.0300   -1.3860 c2        1 ZYD     -0.194000
     23 C20        -2.2310   -1.8460    0.3280 c3        1 ZYD     -0.077400
     24 C21        -3.0090   -0.6210   -0.1070 c3        1 ZYD     -0.079400
     25 C22        -4.4270   -0.6550    0.4200 c3        1 ZYD     -0.078400
     26 C23        -5.2100    0.5580   -0.0360 c3        1 ZYD     -0.079400
     27 C24        -6.6140    0.5420    0.5250 c3        1 ZYD     -0.064400
     28 C25        -7.5010    1.6490   -0.0530 c3        1 ZYD      0.147800
     29 C26        -6.8980    3.0300    0.1700 c3        1 ZYD     -0.123100
     30 C27        -8.8860    1.5790    0.5850 c3        1 ZYD     -0.123100
     31 H1          5.7870    2.3070   -2.3620 h1        1 ZYD      0.038700
     32 HO1         3.3700    2.2190   -2.3740 ho        1 ZYD      0.404000
     33 H2          6.7200    3.2190   -0.2990 hc        1 ZYD      0.067200
     34 H2A         5.6450    4.4820   -1.0390 hc        1 ZYD      0.067200
     35 HO2         4.9420    4.5870    2.3740 ho        1 ZYD      0.399000
     36 H3          3.7970    3.8980    0.5040 h1        1 ZYD      0.053700
     37 HO3        -8.1590    2.0760   -1.8270 ho        1 ZYD      0.397000
     38 H4          5.8200    1.9130    1.7790 hc        1 ZYD      0.053700
     39 H4A         4.1430    2.2710    2.3540 hc        1 ZYD      0.053700
     40 H6          2.9150    0.3820    1.9590 ha        1 ZYD      0.124000
     41 H7          2.8380   -0.6290   -0.9700 ha        1 ZYD      0.127000
     42 H9          2.6390   -3.0420    2.2430 hc        1 ZYD      0.047200
     43 H9A         2.2000   -1.3480    2.6880 hc        1 ZYD      0.047200
     44 H11         0.5550   -3.1420    3.4130 hc        1 ZYD      0.041700
     45 H11A       -0.1480   -1.7570    2.4900 hc        1 ZYD      0.041700
     46 H12         0.4180   -4.6180    1.4690 hc        1 ZYD      0.042700
     47 H12A       -1.1830   -3.8150    1.6960 hc        1 ZYD      0.042700
     48 H14         2.0120   -3.8510   -0.0450 hc        1 ZYD      0.055700
     49 H15         1.3350   -1.7090   -2.1500 hc        1 ZYD      0.043700
     50 H15A        2.5400   -3.0550   -2.2210 hc        1 ZYD      0.043700
     51 H16        -0.1740   -3.1980   -3.1100 hc        1 ZYD      0.041700
     52 H16A        0.8780   -4.6230   -2.7660 hc        1 ZYD      0.041700
     53 H17        -0.2480   -5.1120   -0.7910 hc        1 ZYD      0.044700
     54 H17A       -1.5220   -3.9630   -1.3570 hc        1 ZYD      0.044700
     55 H18        -0.2620   -0.9620    0.4030 hc        1 ZYD      0.046700
     56 H18A       -0.7880   -1.4900   -1.2410 hc        1 ZYD      0.046700
     57 H19         5.7870   -0.0400   -2.3740 ha        1 ZYD      0.121000
     58 H19A        5.2040   -1.0120   -0.9030 ha        1 ZYD      0.121000
     59 H20        -2.7300   -2.7680   -0.0700 hc        1 ZYD      0.038700
     60 H20A       -2.2500   -1.9170    1.4480 hc        1 ZYD      0.038700
     61 H21        -2.4910    0.3030    0.2610 hc        1 ZYD      0.040700
     62 H21A       -3.0270   -0.5650   -1.2280 hc        1 ZYD      0.040700
     63 H22        -4.9380   -1.5880    0.0640 hc        1 ZYD      0.037700
     64 H22A       -4.4110   -0.6940    1.5410 hc        1 ZYD      0.037700
     65 H23        -4.6800    1.4900    0.2940 hc        1 ZYD      0.048700
     66 H23A       -5.2610    0.5810   -1.1570 hc        1 ZYD      0.048700
     67 H24        -7.0940   -0.4460    0.2960 hc        1 ZYD      0.047200
     68 H24A       -6.5850    0.6630    1.6390 hc        1 ZYD      0.047200
     69 H26        -7.6290    3.8230   -0.1180 hc        1 ZYD      0.042367
     70 H26A       -6.6300    3.1620    1.2440 hc        1 ZYD      0.042367
     71 H26B       -5.9800    3.1520   -0.4530 hc        1 ZYD      0.042367
     72 H27        -9.3400    0.5770    0.3990 hc        1 ZYD      0.042367
     73 H27A       -8.8090    1.7470    1.6840 hc        1 ZYD      0.042367
     74 H27B       -9.5540    2.3580    0.1470 hc        1 ZYD      0.042367
@<TRIPOS>BOND
     1    1    2 1   
     2    1    3 1   
     3    1   13 1   
     4    1   31 1   
     5    2   32 1   
     6    3    5 1   
     7    3   33 1   
     8    3   34 1   
     9    4    5 1   
    10    4   35 1   
    11    5    7 1   
    12    5   36 1   
    13    6   28 1   
    14    6   37 1   
    15    7    8 1   
    16    7   38 1   
    17    7   39 1   
    18    8    9 2   
    19    8   13 1   
    20    9   10 1   
    21    9   40 1   
    22   10   11 2   
    23   10   41 1   
    24   11   12 1   
    25   11   17 1   
    26   12   14 1   
    27   12   42 1   
    28   12   43 1   
    29   13   22 2   
    30   14   15 1   
    31   14   44 1   
    32   14   45 1   
    33   15   16 1   
    34   15   46 1   
    35   15   47 1   
    36   16   17 1   
    37   16   20 1   
    38   16   21 1   
    39   17   18 1   
    40   17   48 1   
    41   18   19 1   
    42   18   49 1   
    43   18   50 1   
    44   19   20 1   
    45   19   51 1   
    46   19   52 1   
    47   20   53 1   
    48   20   54 1   
    49   21   23 1   
    50   21   55 1   
    51   21   56 1   
    52   22   57 1   
    53   22   58 1   
    54   23   24 1   
    55   23   59 1   
    56   23   60 1   
    57   24   25 1   
    58   24   61 1   
    59   24   62 1   
    60   25   26 1   
    61   25   63 1   
    62   25   64 1   
    63   26   27 1   
    64   26   65 1   
    65   26   66 1   
    66   27   28 1   
    67   27   67 1   
    68   27   68 1   
    69   28   29 1   
    70   28   30 1   
    71   29   69 1   
    72   29   70 1   
    73   29   71 1   
    74   30   72 1   
    75   30   73 1   
    76   30   74 1   
@<TRIPOS>SUBSTRUCTURE
     1 ZYD         1 TEMP              0 ****  ****    0 ROOT
