@<TRIPOS>MOLECULE
ZYD
   74    76     1     0     0
SMALL
bcc


@<TRIPOS>ATOM
      1 C1          0.4590   -0.9870   -0.6070 c3        1 ZYD      0.186300
      2 O1         -0.0910    0.3230   -0.4860 oh        1 ZYD     -0.588800
      3 C2          1.9800   -0.9680   -0.4950 c3        1 ZYD     -0.146400
      4 O2          3.8340   -0.6700    1.0450 oh        1 ZYD     -0.599800
      5 C3          2.4180   -0.6080    0.9190 c3        1 ZYD      0.146100
      6 O3         -5.4670    7.4490    7.1690 oh        1 ZYD     -0.597800
      7 C4          1.8530   -1.6050    1.9290 c3        1 ZYD     -0.035200
      8 C5          0.3660   -1.6840    1.8220 ce        1 ZYD     -0.073200
      9 C6         -0.3960   -1.6310    2.9350 cf        1 ZYD     -0.108000
     10 C7         -1.8400   -1.6630    2.9520 cf        1 ZYD     -0.150000
     11 C8         -2.6040   -2.0390    3.9910 c2        1 ZYD     -0.081400
     12 C9         -2.0880   -2.5850    5.2840 c3        1 ZYD     -0.043200
     13 C10        -0.1670   -1.8370    0.4700 ce        1 ZYD     -0.069200
     14 C11        -2.7640   -2.0050    6.5160 c3        1 ZYD     -0.073400
     15 C12        -4.2760   -1.9080    6.4110 c3        1 ZYD     -0.064400
     16 C13        -4.6730   -1.2020    5.1260 c3        1 ZYD     -0.044000
     17 C14        -4.0900   -2.0390    3.9540 c3        1 ZYD     -0.036500
     18 C15        -4.8590   -1.5510    2.7330 c3        1 ZYD     -0.073400
     19 C16        -6.2610   -1.2400    3.2680 c3        1 ZYD     -0.080400
     20 C17        -6.1730   -1.2160    4.7980 c3        1 ZYD     -0.074400
     21 C18        -4.1580    0.2370    5.0830 c3        1 ZYD     -0.070400
     22 C19        -1.1460   -2.6970    0.1630 c2        1 ZYD     -0.192000
     23 C20        -4.5160    1.0560    6.3050 c3        1 ZYD     -0.077400
     24 C21        -4.2230    2.5250    6.0770 c3        1 ZYD     -0.079400
     25 C22        -4.5220    3.3430    7.3150 c3        1 ZYD     -0.078400
     26 C23        -4.2500    4.8130    7.0780 c3        1 ZYD     -0.079400
     27 C24        -4.5080    5.6220    8.3290 c3        1 ZYD     -0.064400
     28 C25        -4.4230    7.1340    8.0920 c3        1 ZYD      0.147800
     29 C26        -3.0740    7.5390    7.5110 c3        1 ZYD     -0.123100
     30 C27        -4.6620    7.8710    9.4070 c3        1 ZYD     -0.123100
     31 H1          0.1790   -1.3950   -1.6240 h1        1 ZYD      0.034700
     32 HO1         0.3620    0.8720   -1.1370 ho        1 ZYD      0.396000
     33 H2          2.3840   -1.9780   -0.7640 hc        1 ZYD      0.052700
     34 H2A         2.4020   -0.2250   -1.2210 hc        1 ZYD      0.052700
     35 HO2         4.1950   -0.0320    0.4190 ho        1 ZYD      0.398000
     36 H3          2.0610    0.4310    1.1670 h1        1 ZYD      0.048700
     37 HO3        -5.4180    8.3990    7.0100 ho        1 ZYD      0.396000
     38 H4          2.1710   -1.2960    2.9580 hc        1 ZYD      0.062200
     39 H4A         2.2960   -2.6180    1.7310 hc        1 ZYD      0.062200
     40 H6          0.1020   -1.5220    3.9150 ha        1 ZYD      0.124000
     41 H7         -2.3270   -1.3310    2.0150 ha        1 ZYD      0.137000
     42 H9         -0.9820   -2.4180    5.3750 hc        1 ZYD      0.046200
     43 H9A        -2.2510   -3.6990    5.2680 hc        1 ZYD      0.046200
     44 H11        -2.5010   -2.6440    7.4000 hc        1 ZYD      0.041200
     45 H11A       -2.3480   -0.9810    6.7120 hc        1 ZYD      0.041200
     46 H12        -4.7230   -2.9380    6.4230 hc        1 ZYD      0.041700
     47 H12A       -4.6820   -1.3590    7.2990 hc        1 ZYD      0.041700
     48 H14        -4.4060   -3.1140    4.1240 hc        1 ZYD      0.053700
     49 H15        -4.8880   -2.3290    1.9330 hc        1 ZYD      0.046200
     50 H15A       -4.3900   -0.6320    2.3020 hc        1 ZYD      0.046200
     51 H16        -6.9910   -2.0170    2.9330 hc        1 ZYD      0.040200
     52 H16A       -6.6130   -0.2540    2.8800 hc        1 ZYD      0.040200
     53 H17        -6.6940   -0.3220    5.2170 hc        1 ZYD      0.043700
     54 H17A       -6.6530   -2.1280    5.2320 hc        1 ZYD      0.043700
     55 H18        -3.0420    0.2260    4.9620 hc        1 ZYD      0.047700
     56 H18A       -4.5820    0.7350    4.1690 hc        1 ZYD      0.047700
     57 H19        -1.6060   -3.3510    0.9160 ha        1 ZYD      0.120000
     58 H19A       -1.5400   -2.8000   -0.8560 ha        1 ZYD      0.120000
     59 H20        -5.6010    0.9250    6.5570 hc        1 ZYD      0.038200
     60 H20A       -3.9250    0.6950    7.1890 hc        1 ZYD      0.038200
     61 H21        -3.1460    2.6530    5.7900 hc        1 ZYD      0.040700
     62 H21A       -4.8400    2.9030    5.2200 hc        1 ZYD      0.040700
     63 H22        -5.5950    3.2010    7.6090 hc        1 ZYD      0.037700
     64 H22A       -3.8940    2.9760    8.1690 hc        1 ZYD      0.037700
     65 H23        -4.9050    5.1950    6.2500 hc        1 ZYD      0.048700
     66 H23A       -3.1850    4.9480    6.7510 hc        1 ZYD      0.048700
     67 H24        -3.7660    5.3510    9.1230 hc        1 ZYD      0.047200
     68 H24A       -5.5340    5.3880    8.7180 hc        1 ZYD      0.047200
     69 H26        -2.9790    7.1580    6.4650 hc        1 ZYD      0.042033
     70 H26A       -2.2480    7.1160    8.1290 hc        1 ZYD      0.042033
     71 H26B       -2.9780    8.6510    7.4930 hc        1 ZYD      0.042033
     72 H27        -5.6610    7.5950    9.8220 hc        1 ZYD      0.042033
     73 H27A       -4.6380    8.9740    9.2420 hc        1 ZYD      0.042033
     74 H27B       -3.8720    7.6000   10.1460 hc        1 ZYD      0.042033
@<TRIPOS>BOND
     1    1    2 1   
     2    1    3 1   
     3    1   13 1   
     4    1   31 1   
     5    2   32 1   
     6    3    5 1   
     7    3   33 1   
     8    3   34 1   
     9    4    5 1   
    10    4   35 1   
    11    5    7 1   
    12    5   36 1   
    13    6   28 1   
    14    6   37 1   
    15    7    8 1   
    16    7   38 1   
    17    7   39 1   
    18    8    9 2   
    19    8   13 1   
    20    9   10 1   
    21    9   40 1   
    22   10   11 2   
    23   10   41 1   
    24   11   12 1   
    25   11   17 1   
    26   12   14 1   
    27   12   42 1   
    28   12   43 1   
    29   13   22 2   
    30   14   15 1   
    31   14   44 1   
    32   14   45 1   
    33   15   16 1   
    34   15   46 1   
    35   15   47 1   
    36   16   17 1   
    37   16   20 1   
    38   16   21 1   
    39   17   18 1   
    40   17   48 1   
    41   18   19 1   
    42   18   49 1   
    43   18   50 1   
    44   19   20 1   
    45   19   51 1   
    46   19   52 1   
    47   20   53 1   
    48   20   54 1   
    49   21   23 1   
    50   21   55 1   
    51   21   56 1   
    52   22   57 1   
    53   22   58 1   
    54   23   24 1   
    55   23   59 1   
    56   23   60 1   
    57   24   25 1   
    58   24   61 1   
    59   24   62 1   
    60   25   26 1   
    61   25   63 1   
    62   25   64 1   
    63   26   27 1   
    64   26   65 1   
    65   26   66 1   
    66   27   28 1   
    67   27   67 1   
    68   27   68 1   
    69   28   29 1   
    70   28   30 1   
    71   29   69 1   
    72   29   70 1   
    73   29   71 1   
    74   30   72 1   
    75   30   73 1   
    76   30   74 1   
@<TRIPOS>SUBSTRUCTURE
     1 ZYD         1 TEMP              0 ****  ****    0 ROOT
