@<TRIPOS>MOLECULE
ZYE
   81    78     1     0     0
SMALL
bcc


@<TRIPOS>ATOM
      1 C1        -27.1800  -24.1070   34.8810 ca        1 ZYE     -0.062000
      2 C2        -26.9210  -25.2400   35.6410 ca        1 ZYE     -0.108000
      3 C3        -27.8640  -25.6040   36.6150 ca        1 ZYE     -0.118000
      4 C4        -29.0360  -24.8790   36.8080 ca        1 ZYE     -0.113000
      5 C5        -29.3040  -23.7070   36.0560 ca        1 ZYE      0.082000
      6 C6        -28.3650  -23.3310   35.0930 ca        1 ZYE     -0.092000
      7 C7        -27.6110  -26.7530   37.5320 c2        1 ZYE      0.364000
      8 N8        -27.1470  -27.9250   37.0190 nt        1 ZYE     -0.397000
      9 O9        -27.8280  -26.6390   38.7690 o         1 ZYE     -0.473000
     10 C10       -27.2590  -23.2790   40.5390 c2        1 ZYE     -0.342000
     11 C11       -29.5880  -24.0210   40.9480 c2        1 ZYE      0.291000
     12 C12       -25.9680  -23.4830   40.2150 c2        1 ZYE      0.059000
     13 O13       -25.4330  -24.6250   39.7040 oh        1 ZYE     -0.250000
     14 C14       -30.5290  -25.0070   41.3380 c2        1 ZYE     -0.245000
     15 C15       -28.2910  -24.3210   40.3800 c3        1 ZYE     -0.198000
     16 N16       104.7430   75.2980 -116.8640 n7        1 ZYE     -0.135000
     17 C17       103.9830   76.4710 -117.1050 cx        1 ZYE     -0.026000
     18 C18       -31.7760  -24.5430   42.0370 c3        1 ZYE     -0.165000
     19 C19       -33.0720  -24.8260   41.4610 c1        1 ZYE     -0.044000
     20 C20       -33.3080  -25.5940   40.3080 c2        1 ZYE     -0.547000
     21 C21       -34.5670  -25.7900   39.9010 c1        1 ZYE      0.453000
     22 C22       -30.3320  -26.3320   41.0880 c2        1 ZYE      0.025000
     23 N23       -26.3820  -23.4810   33.8370 nh        1 ZYE     -0.136000
     24 C24       -31.0650  -22.5460   30.5760 c2        1 ZYE     -0.509000
     25 C25       -30.7740  -22.5740   31.8410 c1        1 ZYE      0.100000
     26 C26       -30.9470  -22.7350   37.5870 c2        1 ZYE      0.292000
     27 N27       -30.4770  -22.9540   36.3080 n         1 ZYE     -0.278000
     28 C28       -31.1600  -22.3330   35.1970 c3        1 ZYE     -0.098000
     29 C30       -27.0190  -22.3270   33.3920 c1        1 ZYE      0.164000
     30 C31       -28.3240  -22.1680   34.1510 c3        1 ZYE     -0.274000
     31 C33       -25.2110  -23.8550   33.2970 c1        1 ZYE      0.057000
     32 C34       104.1130   75.1210 -113.6940 c2        1 ZYE      0.167000
     33 C35       104.9330   73.8820 -113.9110 c3        1 ZYE     -0.264000
     34 C36       107.0310   77.8200 -115.5780 c2        1 ZYE     -0.186000
     35 C37       105.9980   77.0740 -115.6910 c1        1 ZYE      0.240000
     36 C38       104.8280   76.3340 -115.7750 cx        1 ZYE     -0.072000
     37 C39       104.0680   76.1910 -114.5270 c2        1 ZYE     -0.362000
     38 C41       105.0940   73.1340 -112.6780 c1        1 ZYE     -0.055000
     39 H2        -26.0000  -25.8270   35.5110 ha        1 ZYE      0.155000
     40 H4        -29.7560  -25.2190   37.5710 ha        1 ZYE      0.151000
     41 H31       -28.3400  -21.1810   34.6780 hc        1 ZYE      0.169500
     42 H8        -26.9670  -28.6920   37.6220 hn        1 ZYE      0.244000
     43 H10       -29.8630  -22.9510   41.0720 ha        1 ZYE      0.180000
     44 H111      -27.0520  -27.2960   41.0060 ha        1 ZYE      0.002500
     45 H112      -26.4400  -27.0660   40.8280 ha        1 ZYE      0.002500
     46 H12       -27.5750  -22.3000   40.9270 ha        1 ZYE      0.154000
     47 H13       -26.1270  -25.2950   39.5690 ho        1 ZYE      0.231000
     48 H151      -27.8950  -25.3290   40.7090 hc        1 ZYE      0.195000
     49 H152      -25.1720  -22.7230   40.3390 h4        1 ZYE      0.187000
     50 H18       -31.7470  -23.4220   42.1880 hc        1 ZYE      0.160500
     51 H22       -29.4530  -26.7210   40.5390 ha        1 ZYE      0.165000
     52 H16       -28.5200  -24.4560   39.2520 hc        1 ZYE      0.195000
     53 H171      102.8770   76.5120 -116.9760 h1        1 ZYE      0.172500
     54 H172      104.3720   77.1490 -117.8990 h1        1 ZYE      0.172500
     55 H19       -31.8020  -24.9910   43.0780 hc        1 ZYE      0.160500
     56 H20       -32.4820  -26.0420   39.7110 ha        1 ZYE      0.152000
     57 H21       -31.0680  -27.0870   41.4160 ha        1 ZYE      0.165000
     58 H30       -29.1750  -22.1840   33.4090 hc        1 ZYE      0.169500
     59 H331      -26.0450  -28.5160   33.9760 ha        1 ZYE      0.002500
     60 H332      -26.0040  -27.8650   34.1590 ha        1 ZYE      0.002500
     61 H251      -32.0090  -22.9190   30.1440 ha        1 ZYE      0.209000
     62 H252      -31.8460  -22.0730   37.6350 h5        1 ZYE      0.152000
     63 H321      -24.0240  -24.9760   34.6910 hc        1 ZYE      0.112333
     64 H322      -25.0650  -26.0050   33.6020 hc        1 ZYE      0.112333
     65 H323      -23.6060  -25.1570   32.9350 hc        1 ZYE      0.112333
     66 H35       104.3710   73.1980 -114.6230 hc        1 ZYE      0.145000
     67 H39       103.4230   77.0470 -114.2680 ha        1 ZYE      0.182000
     68 H36       108.0360   77.4290 -115.2950 ha        1 ZYE      0.258500
     69 H37       107.0290   78.9200 -115.7510 ha        1 ZYE      0.258500
     70 H411      103.5180   74.4140 -112.0090 ho        1 ZYE      0.284000
     71 H412      105.8230   72.3180 -112.6480 ha        1 ZYE      0.100000
     72 H413      105.9050   74.1500 -114.4130 hc        1 ZYE      0.145000
     73 H241      -30.7680  -21.2940   35.0300 h1        1 ZYE      0.107000
     74 H242      -31.0050  -22.9330   34.2560 h1        1 ZYE      0.107000
     75 H281      -32.2610  -22.2790   35.4100 h1        1 ZYE      0.107000
     76 H282      -30.3860  -22.1390   29.8040 ha        1 ZYE      0.209000
     77 O40       103.3250   75.1860 -112.5890 oh        1 ZYE     -0.227000
     78 C32       -24.4570  -25.0650   33.6600 c3        1 ZYE     -0.297000
     79 H82       -26.9840  -28.0300   36.0470 hn        1 ZYE      0.244000
     80 H162      104.2320   74.4790 -116.5730 hn        1 ZYE      0.200000
     81 O29       -30.4350  -23.2290   38.6140 o         1 ZYE     -0.456000
@<TRIPOS>BOND
     1    1    2 1   
     2    1    6 1   
     3    1   23 1   
     4    2    3 1   
     5    2   39 1   
     6    3    4 1   
     7    3    7 1   
     8    4    5 1   
     9    4   40 1   
    10    5    6 1   
    11    5   27 1   
    12    6   30 1   
    13    7    8 1   
    14    7    9 1   
    15    8   42 1   
    16    8   79 1   
    17   10   12 1   
    18   10   15 1   
    19   10   46 1   
    20   11   14 1   
    21   11   15 1   
    22   11   43 1   
    23   12   13 1   
    24   12   49 1   
    25   13   47 1   
    26   14   18 1   
    27   14   22 1   
    28   15   48 1   
    29   15   52 1   
    30   16   17 1   
    31   16   36 1   
    32   16   80 1   
    33   17   36 1   
    34   17   53 1   
    35   17   54 1   
    36   18   19 1   
    37   18   50 1   
    38   18   55 1   
    39   19   20 1   
    40   20   21 1   
    41   20   56 1   
    42   22   51 1   
    43   22   57 1   
    44   23   29 1   
    45   23   31 1   
    46   24   25 1   
    47   24   61 1   
    48   24   76 1   
    49   26   27 1   
    50   26   62 1   
    51   26   81 1   
    52   27   28 1   
    53   28   73 1   
    54   28   74 1   
    55   28   75 1   
    56   29   30 1   
    57   30   41 1   
    58   30   58 1   
    59   31   78 1   
    60   32   33 1   
    61   32   37 1   
    62   32   77 1   
    63   33   38 1   
    64   33   66 1   
    65   33   72 1   
    66   34   35 1   
    67   34   68 1   
    68   34   69 1   
    69   35   36 1   
    70   36   37 1   
    71   37   67 1   
    72   38   71 1   
    73   44   45 1   
    74   59   60 1   
    75   63   78 1   
    76   64   78 1   
    77   65   78 1   
    78   70   77 1   
@<TRIPOS>SUBSTRUCTURE
     1 ZYE         1 TEMP              0 ****  ****    0 ROOT
