@<TRIPOS>MOLECULE
ZYE
   79    83     1     0     0
SMALL
bcc


@<TRIPOS>ATOM
      1 C1          3.4790   -2.5350   -0.1380 ca        1 ZYE     -0.036200
      2 C2          2.3130   -1.7720    0.0180 ca        1 ZYE     -0.135000
      3 C3          2.4550   -0.4880    0.5290 ca        1 ZYE     -0.101600
      4 C4          3.7090    0.0450    0.8740 ca        1 ZYE     -0.131000
      5 C5          4.8930   -0.6900    0.6950 ca        1 ZYE      0.105600
      6 C6          4.7840   -2.0080    0.1960 ca        1 ZYE     -0.093800
      7 C7          1.2560    0.3770    0.7410 c         1 ZYE      0.677700
      8 N8          0.3470    0.4330   -0.3010 n         1 ZYE     -0.567900
      9 O9          1.0830    1.0320    1.7860 o         1 ZYE     -0.593100
     10 C10        -0.8770    1.1900   -0.2310 c3        1 ZYE      0.081700
     11 C11        -1.0320    2.1550   -1.4230 c3        1 ZYE     -0.053100
     12 C12        -2.1110    0.2460   -0.1380 c3        1 ZYE      0.106100
     13 O13        -2.3450   -0.4390   -1.3550 oh        1 ZYE     -0.600800
     14 C14         0.0210    3.2030   -1.4610 ca        1 ZYE     -0.077300
     15 C15        -3.3570    1.0240    0.3200 c3        1 ZYE      0.136800
     16 N16        -4.4590    0.1440    0.6470 n3        1 ZYE     -0.824200
     17 C17        -5.7160    0.8480    0.8200 c3        1 ZYE      0.209100
     18 C18         0.9120    3.2710   -2.5380 ca        1 ZYE     -0.121000
     19 C19         1.8830    4.2700   -2.5870 ca        1 ZYE     -0.126500
     20 C20         1.9740    5.2090   -1.5610 ca        1 ZYE     -0.130000
     21 C21         1.0890    5.1470   -0.4840 ca        1 ZYE     -0.126500
     22 C22         0.1160    4.1510   -0.4340 ca        1 ZYE     -0.121000
     23 N23         3.6390   -3.8640   -0.5600 na        1 ZYE     -0.076400
     24 C24         8.3200    0.8090    0.5480 c3        1 ZYE     -0.095400
     25 C25         7.7710    1.4200    1.8300 c3        1 ZYE     -0.160400
     26 C26         6.3770    0.8270    2.0100 c         1 ZYE      0.697500
     27 N27         6.1470   -0.1380    1.0140 n         1 ZYE     -0.389000
     28 C28         7.2560   -0.2020    0.0720 c3        1 ZYE      0.091000
     29 C30         5.0080   -4.1630   -0.5350 cc        1 ZYE     -0.101100
     30 C31         5.7290   -3.0700   -0.0660 cd        1 ZYE     -0.189200
     31 C33         2.6140   -4.7040   -1.1060 c3        1 ZYE      0.043300
     32 C34        -9.1450   -0.6310    0.1630 ca        1 ZYE      0.120100
     33 C35        -9.1640   -1.7250    1.0340 ca        1 ZYE     -0.200000
     34 C36        -8.0430   -1.9780    1.8250 ca        1 ZYE     -0.100000
     35 C37        -6.9210   -1.1570    1.7530 ca        1 ZYE     -0.142000
     36 C38        -6.9070   -0.0640    0.8780 ca        1 ZYE     -0.065300
     37 C39        -8.0160    0.2040    0.0770 ca        1 ZYE     -0.152000
     38 C41       -11.3510   -1.0910   -0.6030 c3        1 ZYE      0.114700
     39 H2          1.3290   -2.1900   -0.2340 ha        1 ZYE      0.140000
     40 H4          3.7400    1.0540    1.3240 ha        1 ZYE      0.173000
     41 H31         6.8000   -3.0380    0.1050 ha        1 ZYE      0.156000
     42 H8          0.4860   -0.1280   -1.1070 hn        1 ZYE      0.315500
     43 H10        -0.8500    1.8030    0.7220 h1        1 ZYE      0.100700
     44 H111       -1.0270    1.5730   -2.3840 hc        1 ZYE      0.050700
     45 H112       -2.0340    2.6550   -1.3350 hc        1 ZYE      0.050700
     46 H12        -1.8910   -0.5840    0.5980 h1        1 ZYE      0.102700
     47 H13        -2.6430    0.2110   -2.0030 ho        1 ZYE      0.396000
     48 H151       -3.0990    1.6060    1.2490 h1        1 ZYE      0.036700
     49 H152       -3.6360    1.7690   -0.4840 h1        1 ZYE      0.036700
     50 H18         0.8490    2.5320   -3.3510 ha        1 ZYE      0.130500
     51 H22        -0.5750    4.1020    0.4210 ha        1 ZYE      0.130500
     52 H16        -4.5420   -0.5890   -0.0340 hn        1 ZYE      0.373800
     53 H171       -5.6500    1.4080    1.7990 h1        1 ZYE      0.039200
     54 H172       -5.8840    1.6200    0.0090 h1        1 ZYE      0.039200
     55 H19         2.5790    4.3150   -3.4370 ha        1 ZYE      0.131500
     56 H20         2.7410    5.9960   -1.5990 ha        1 ZYE      0.130000
     57 H21         1.1610    5.8820    0.3310 ha        1 ZYE      0.131500
     58 H30         5.3620   -5.1500   -0.8360 h4        1 ZYE      0.166000
     59 H331        2.8990   -5.7750   -0.8900 h1        1 ZYE      0.059700
     60 H332        1.6540   -4.4790   -0.5570 h1        1 ZYE      0.059700
     61 H251        8.3960    1.1620    2.7200 hc        1 ZYE      0.082700
     62 H252        7.6870    2.5320    1.7670 hc        1 ZYE      0.082700
     63 H321        2.0550   -3.5130   -2.8540 hc        1 ZYE      0.047700
     64 H322        3.2930   -4.7930   -3.1860 hc        1 ZYE      0.047700
     65 H323        1.5620   -5.2580   -2.9050 hc        1 ZYE      0.047700
     66 H35       -10.0420   -2.3810    1.1040 ha        1 ZYE      0.136000
     67 H39        -8.0290    1.0560   -0.6190 ha        1 ZYE      0.147000
     68 H36        -8.0500   -2.8370    2.5140 ha        1 ZYE      0.133000
     69 H37        -6.0420   -1.3630    2.3830 ha        1 ZYE      0.150000
     70 H411      -11.1150   -2.1420   -0.9000 h1        1 ZYE      0.044033
     71 H412      -11.7920   -1.0660    0.4240 h1        1 ZYE      0.044033
     72 H413      -12.0460   -0.6190   -1.3420 h1        1 ZYE      0.044033
     73 H241        8.4860    1.5910   -0.2330 hc        1 ZYE      0.056700
     74 H242        9.2920    0.2900    0.7300 hc        1 ZYE      0.056700
     75 H281        6.9040    0.0410   -0.9670 h1        1 ZYE      0.051700
     76 H282        7.6830   -1.2410    0.0650 h1        1 ZYE      0.051700
     77 O29         5.5870    1.1330    2.9100 o         1 ZYE     -0.594500
     78 O40       -10.1880   -0.2760   -0.6720 os        1 ZYE     -0.329900
     79 C32         2.3730   -4.5530   -2.6020 c3        1 ZYE     -0.121100
@<TRIPOS>BOND
     1    1    2 ar  
     2    1    6 ar  
     3    1   23 1   
     4    2    3 ar  
     5    2   39 1   
     6    3    4 ar  
     7    3    7 1   
     8    4    5 ar  
     9    4   40 1   
    10    5    6 ar  
    11    5   27 1   
    12    6   30 1   
    13    7    8 1   
    14    7    9 2   
    15    8   10 1   
    16    8   42 1   
    17   10   11 1   
    18   10   12 1   
    19   10   43 1   
    20   11   14 1   
    21   11   44 1   
    22   11   45 1   
    23   12   13 1   
    24   12   15 1   
    25   12   46 1   
    26   13   47 1   
    27   14   18 ar  
    28   14   22 ar  
    29   15   16 1   
    30   15   48 1   
    31   15   49 1   
    32   16   17 1   
    33   16   52 1   
    34   17   36 1   
    35   17   53 1   
    36   17   54 1   
    37   18   19 ar  
    38   18   50 1   
    39   19   20 ar  
    40   19   55 1   
    41   20   21 ar  
    42   20   56 1   
    43   21   22 ar  
    44   21   57 1   
    45   22   51 1   
    46   23   29 1   
    47   23   31 1   
    48   24   25 1   
    49   24   28 1   
    50   24   73 1   
    51   24   74 1   
    52   25   26 1   
    53   25   61 1   
    54   25   62 1   
    55   26   27 1   
    56   26   77 2   
    57   27   28 1   
    58   28   75 1   
    59   28   76 1   
    60   29   30 2   
    61   29   58 1   
    62   30   41 1   
    63   31   59 1   
    64   31   60 1   
    65   31   79 1   
    66   32   33 ar  
    67   32   37 ar  
    68   32   78 1   
    69   33   34 ar  
    70   33   66 1   
    71   34   35 ar  
    72   34   68 1   
    73   35   36 ar  
    74   35   69 1   
    75   36   37 ar  
    76   37   67 1   
    77   38   70 1   
    78   38   71 1   
    79   38   72 1   
    80   38   78 1   
    81   63   79 1   
    82   64   79 1   
    83   65   79 1   
@<TRIPOS>SUBSTRUCTURE
     1 ZYE         1 TEMP              0 ****  ****    0 ROOT
