@<TRIPOS>MOLECULE
ZYE
   81    85     1     0     0
SMALL
bcc


@<TRIPOS>ATOM
      1 C1         -0.4000   -0.1670   -0.7230 ca        1 ZYE     -0.077200
      2 C2          0.7210   -0.7140   -1.3490 ca        1 ZYE     -0.023000
      3 C3          1.8730   -0.8810   -0.5700 ca        1 ZYE     -0.197600
      4 C4          1.8990   -0.5090    0.7940 ca        1 ZYE     -0.200000
      5 C5          0.8300    0.1520    1.4110 ca        1 ZYE      0.145600
      6 C6         -0.3760    0.2890    0.6620 ca        1 ZYE     -0.046800
      7 C7          3.0540   -1.3850   -1.2360 c         1 ZYE      0.583700
      8 N8          4.1760   -1.9430   -0.3760 n4        1 ZYE     -0.674800
      9 O9          3.3120   -1.4260   -2.4400 o         1 ZYE     -0.508100
     10 C10         5.1880   -0.9080    0.0360 c3        1 ZYE      0.100500
     11 C11         6.3400   -1.5790    0.8030 c3        1 ZYE     -0.050100
     12 C12         5.7000   -0.1150   -1.1960 c3        1 ZYE      0.109100
     13 O13         6.2520   -0.9800   -2.1700 oh        1 ZYE     -0.609800
     14 C14         5.8720   -2.6340    1.7410 ca        1 ZYE     -0.178300
     15 C15         6.8340    0.8380   -0.7640 c3        1 ZYE      0.098800
     16 N16         7.4050    1.5870   -1.9140 n4        1 ZYE     -0.766000
     17 C17         8.5940    2.4250   -1.5120 c3        1 ZYE      0.182100
     18 C18         6.3840   -3.9330    1.6430 ca        1 ZYE     -0.133500
     19 C19         5.9930   -4.9090    2.5590 ca        1 ZYE     -0.113500
     20 C20         5.0930   -4.5940    3.5770 ca        1 ZYE     -0.091000
     21 C21         4.5830   -3.2970    3.6790 ca        1 ZYE     -0.113500
     22 C22         4.9710   -2.3180    2.7680 ca        1 ZYE     -0.133500
     23 N23        -1.6780    0.0870   -1.2410 na        1 ZYE     -0.035400
     24 C24         0.4260    1.3810    4.9440 c3        1 ZYE     -0.098400
     25 C25         1.9400    1.3820    4.7760 c3        1 ZYE     -0.152400
     26 C26         2.1990    0.8810    3.3650 c         1 ZYE      0.722500
     27 N27         0.9750    0.6570    2.7060 n         1 ZYE     -0.382000
     28 C28        -0.1510    1.0350    3.5560 c3        1 ZYE      0.081000
     29 C30        -2.4490    0.6460   -0.2310 cc        1 ZYE     -0.036100
     30 C31        -1.6850    0.7940    0.9390 cd        1 ZYE     -0.201200
     31 C33        -2.1460   -0.2720   -2.5580 c3        1 ZYE      0.026300
     32 C34        10.4940    3.0480   -4.7170 ca        1 ZYE      0.152100
     33 C35        10.3050    4.4290   -4.8920 ca        1 ZYE     -0.151000
     34 C36         9.5420    5.1380   -3.9680 ca        1 ZYE     -0.076000
     35 C37         8.9600    4.4910   -2.8760 ca        1 ZYE     -0.133000
     36 C38         9.1590    3.1180   -2.7020 ca        1 ZYE     -0.166300
     37 C39         9.9230    2.3850   -3.6140 ca        1 ZYE     -0.156000
     38 C41        11.8980    2.8840   -6.6380 c3        1 ZYE      0.105700
     39 H2          0.7040   -1.0070   -2.4110 ha        1 ZYE      0.168000
     40 H4          2.7920   -0.7250    1.4000 ha        1 ZYE      0.146000
     41 H31        -2.0600    1.2120    1.8700 ha        1 ZYE      0.180000
     42 H8          3.7920   -2.3650    0.4850 hn        1 ZYE      0.474800
     43 H10         4.6550   -0.1810    0.7290 hx        1 ZYE      0.142700
     44 H111        7.0740   -2.0060    0.0660 hc        1 ZYE      0.085200
     45 H112        6.8600   -0.7760    1.3970 hc        1 ZYE      0.085200
     46 H12         4.8430    0.4810   -1.6270 h1        1 ZYE      0.078700
     47 H13         5.5470   -1.2380   -2.7880 ho        1 ZYE      0.458000
     48 H151        7.6760    0.2420   -0.3030 hx        1 ZYE      0.123700
     49 H152        6.4370    1.5710   -0.0050 hx        1 ZYE      0.123700
     50 H18         7.1130   -4.1860    0.8570 ha        1 ZYE      0.147500
     51 H22         4.5930   -1.2870    2.8770 ha        1 ZYE      0.147500
     52 H16         7.7020    0.9140   -2.6380 hn        1 ZYE      0.460300
     53 H171        9.3570    1.7320   -1.0530 hx        1 ZYE      0.110200
     54 H172        8.2470    3.1620   -0.7320 hx        1 ZYE      0.110200
     55 H19         6.4070   -5.9280    2.4850 ha        1 ZYE      0.159000
     56 H20         4.7930   -5.3640    4.3070 ha        1 ZYE      0.164000
     57 H21         3.8840   -3.0450    4.4920 ha        1 ZYE      0.159000
     58 H30        -3.4970    0.9170   -0.4020 h4        1 ZYE      0.200000
     59 H331       -3.0270    0.3930   -2.7950 h1        1 ZYE      0.075700
     60 H332       -1.3210   -0.0350   -3.2900 h1        1 ZYE      0.075700
     61 H251        2.3760    2.4070    4.8860 hc        1 ZYE      0.100200
     62 H252        2.4490    0.7050    5.5080 hc        1 ZYE      0.100200
     63 H321       -1.7010   -2.4150   -2.5280 hc        1 ZYE      0.061033
     64 H322       -2.9110   -1.8760   -3.7690 hc        1 ZYE      0.061033
     65 H323       -3.3910   -1.9930   -2.0240 hc        1 ZYE      0.061033
     66 H35        10.7600    4.9540   -5.7470 ha        1 ZYE      0.170000
     67 H39        10.1150    1.3110   -3.4800 ha        1 ZYE      0.150000
     68 H36         9.3990    6.2240   -4.0980 ha        1 ZYE      0.166000
     69 H37         8.3710    5.0700   -2.1490 ha        1 ZYE      0.143000
     70 H411       12.4350    2.0350   -7.1360 h1        1 ZYE      0.064033
     71 H412       12.6230    3.6350   -6.2440 h1        1 ZYE      0.064033
     72 H413       11.1680    3.3580   -7.3370 h1        1 ZYE      0.064033
     73 H241        0.1050    0.6210    5.6990 hc        1 ZYE      0.080700
     74 H242        0.0520    2.3790    5.2810 hc        1 ZYE      0.080700
     75 H281       -0.8850    0.1870    3.6170 h1        1 ZYE      0.070200
     76 H282       -0.6600    1.9380    3.1200 h1        1 ZYE      0.070200
     77 O40        11.2100    2.2390   -5.5630 os        1 ZYE     -0.317900
     78 C32        -2.5580   -1.7260   -2.7190 c3        1 ZYE     -0.123100
     79 H82         4.6680   -2.6750   -0.9060 hn        1 ZYE      0.474800
     80 H162        6.6930    2.1970   -2.3310 hn        1 ZYE      0.460300
     81 O29         3.3210    0.6980    2.8580 o         1 ZYE     -0.676500
@<TRIPOS>BOND
     1    1    2 ar  
     2    1    6 ar  
     3    1   23 1   
     4    2    3 ar  
     5    2   39 1   
     6    3    4 ar  
     7    3    7 1   
     8    4    5 ar  
     9    4   40 1   
    10    5    6 ar  
    11    5   27 1   
    12    6   30 1   
    13    7    8 1   
    14    7    9 2   
    15    8   10 1   
    16    8   42 1   
    17    8   79 1   
    18   10   11 1   
    19   10   12 1   
    20   10   43 1   
    21   11   14 1   
    22   11   44 1   
    23   11   45 1   
    24   12   13 1   
    25   12   15 1   
    26   12   46 1   
    27   13   47 1   
    28   14   18 ar  
    29   14   22 ar  
    30   15   16 1   
    31   15   48 1   
    32   15   49 1   
    33   16   17 1   
    34   16   52 1   
    35   16   80 1   
    36   17   36 1   
    37   17   53 1   
    38   17   54 1   
    39   18   19 ar  
    40   18   50 1   
    41   19   20 ar  
    42   19   55 1   
    43   20   21 ar  
    44   20   56 1   
    45   21   22 ar  
    46   21   57 1   
    47   22   51 1   
    48   23   29 1   
    49   23   31 1   
    50   24   25 1   
    51   24   28 1   
    52   24   73 1   
    53   24   74 1   
    54   25   26 1   
    55   25   61 1   
    56   25   62 1   
    57   26   27 1   
    58   26   81 2   
    59   27   28 1   
    60   28   75 1   
    61   28   76 1   
    62   29   30 2   
    63   29   58 1   
    64   30   41 1   
    65   31   59 1   
    66   31   60 1   
    67   31   78 1   
    68   32   33 ar  
    69   32   37 ar  
    70   32   77 1   
    71   33   34 ar  
    72   33   66 1   
    73   34   35 ar  
    74   34   68 1   
    75   35   36 ar  
    76   35   69 1   
    77   36   37 ar  
    78   37   67 1   
    79   38   70 1   
    80   38   71 1   
    81   38   72 1   
    82   38   77 1   
    83   63   78 1   
    84   64   78 1   
    85   65   78 1   
@<TRIPOS>SUBSTRUCTURE
     1 ZYE         1 TEMP              0 ****  ****    0 ROOT
