@<TRIPOS>MOLECULE
ZYH
   63    68     1     0     0
SMALL
bcc


@<TRIPOS>ATOM
      1 O01         0.6500   -4.3640    0.7180 o         1 ZYH     -0.582100
      2 C02         0.7060   -3.1440    0.4670 c         1 ZYH      0.651700
      3 C03         2.0080   -2.4720    0.1900 ca        1 ZYH     -0.126600
      4 C04         2.9870   -3.2190   -0.4930 ca        1 ZYH     -0.101000
      5 C05         4.2440   -2.6980   -0.7920 ca        1 ZYH     -0.081000
      6 C06         4.5210   -1.3920   -0.3790 ca        1 ZYH      0.080400
      7 N07         5.6650   -0.5700   -0.5050 nc        1 ZYH     -0.560100
      8 C08         5.3500    0.5740    0.0910 cd        1 ZYH      0.556600
      9 O09         4.0320    0.6020    0.6340 os        1 ZYH     -0.312700
     10 C10         3.5090   -0.6540    0.3300 ca        1 ZYH      0.015100
     11 C11         2.2550   -1.1650    0.6260 ca        1 ZYH     -0.076000
     12 C12         6.1270    1.8290    0.2950 c3        1 ZYH     -0.074000
     13 C13         7.3660    1.5500    1.1410 c3        1 ZYH     -0.074400
     14 C14         8.1670    2.8210    1.3390 c3        1 ZYH     -0.077400
     15 C15         8.5440    3.4490    0.0130 c3        1 ZYH     -0.080400
     16 C16         7.3210    3.7020   -0.8440 c3        1 ZYH     -0.077400
     17 C17         6.5170    2.4340   -1.0490 c3        1 ZYH     -0.074400
     18 N18        -0.4490   -2.3650    0.5150 n         1 ZYH     -0.432800
     19 C19        -1.7930   -2.9510    0.4110 cy        1 ZYH      0.066500
     20 C20        -2.2020   -1.8040   -0.5840 cy        1 ZYH      0.137500
     21 C21        -0.7410   -1.2490   -0.3930 cy        1 ZYH      0.066500
     22 N22        -3.2750   -0.9330   -0.1580 n3        1 ZYH     -0.718600
     23 C23        -3.3940    0.2500   -1.0000 c3        1 ZYH      0.159800
     24 C24        -4.5130    1.2030   -0.5360 c3        1 ZYH      0.199800
     25 N25        -5.7830    0.5290   -0.3140 nh        1 ZYH     -0.724300
     26 C26        -5.6910   -0.7160    0.4340 c3        1 ZYH      0.199800
     27 C27        -4.5480   -1.6310   -0.0490 c3        1 ZYH      0.159800
     28 C28        -6.9100    1.3520   -0.0550 ca        1 ZYH      0.863900
     29 N29        -6.8570    2.6860   -0.4540 nb        1 ZYH     -0.745000
     30 C30        -7.9790    3.4040   -0.3070 ca        1 ZYH      0.461700
     31 C31        -9.1690    2.8840    0.2320 ca        1 ZYH     -0.417600
     32 C32        -9.1260    1.5370    0.6320 ca        1 ZYH      0.461700
     33 N33        -8.0380    0.7630    0.5130 nb        1 ZYH     -0.745000
     34 H041        2.7450   -4.2550   -0.7840 ha        1 ZYH      0.159000
     35 H051        4.9950   -3.2950   -1.3270 ha        1 ZYH      0.158000
     36 H111        1.5110   -0.5770    1.1810 ha        1 ZYH      0.165000
     37 H121        5.4640    2.5570    0.8470 hc        1 ZYH      0.079700
     38 H131        7.0560    1.1390    2.1360 hc        1 ZYH      0.056200
     39 H132        8.0000    0.7770    0.6320 hc        1 ZYH      0.056200
     40 H141        7.5680    3.5520    1.9430 hc        1 ZYH      0.043700
     41 H142        9.0960    2.5840    1.9200 hc        1 ZYH      0.043700
     42 H151        9.0820    4.4160    0.1950 hc        1 ZYH      0.043700
     43 H152        9.2490    2.7690   -0.5350 hc        1 ZYH      0.043700
     44 H161        6.6770    4.4810   -0.3560 hc        1 ZYH      0.043700
     45 H162        7.6370    4.1040   -1.8420 hc        1 ZYH      0.043700
     46 H171        7.1220    1.6920   -1.6330 hc        1 ZYH      0.056200
     47 H172        5.5920    2.6630   -1.6390 hc        1 ZYH      0.056200
     48 H191       -1.8190   -3.9750   -0.0340 h1        1 ZYH      0.070450
     49 H192       -2.3120   -2.9440    1.3990 h1        1 ZYH      0.070450
     50 H201       -2.3590   -2.1970   -1.6250 h1        1 ZYH      0.042700
     51 H211       -0.6660   -0.2670    0.1320 h1        1 ZYH      0.070450
     52 H212       -0.1400   -1.2310   -1.3330 h1        1 ZYH      0.070450
     53 H231       -2.4230    0.8180   -0.9440 h1        1 ZYH      0.042950
     54 H232       -3.5750   -0.0240   -2.0810 h1        1 ZYH      0.042950
     55 H241       -4.1770    1.7320    0.4030 h1        1 ZYH      0.062200
     56 H242       -4.6390    1.9710   -1.3500 h1        1 ZYH      0.062200
     57 H261       -5.5510   -0.5060    1.5340 h1        1 ZYH      0.062200
     58 H262       -6.6460   -1.2980    0.3010 h1        1 ZYH      0.062200
     59 H271       -4.8500   -2.1020   -1.0310 h1        1 ZYH      0.042950
     60 H272       -4.4320   -2.4540    0.7100 h1        1 ZYH      0.042950
     61 H301       -7.9120    4.4570   -0.6380 h4        1 ZYH      0.025600
     62 H311      -10.0710    3.4920    0.3390 ha        1 ZYH      0.155000
     63 H321      -10.0090    1.0430    1.0790 h4        1 ZYH      0.025600
@<TRIPOS>BOND
     1    1    2 2   
     2    2    3 1   
     3    2   18 1   
     4    3    4 ar  
     5    3   11 ar  
     6    4    5 ar  
     7    4   34 1   
     8    5    6 ar  
     9    5   35 1   
    10    6    7 1   
    11    6   10 ar  
    12    7    8 2   
    13    8    9 1   
    14    8   12 1   
    15    9   10 1   
    16   10   11 ar  
    17   11   36 1   
    18   12   13 1   
    19   12   17 1   
    20   12   37 1   
    21   13   14 1   
    22   13   38 1   
    23   13   39 1   
    24   14   15 1   
    25   14   40 1   
    26   14   41 1   
    27   15   16 1   
    28   15   42 1   
    29   15   43 1   
    30   16   17 1   
    31   16   44 1   
    32   16   45 1   
    33   17   46 1   
    34   17   47 1   
    35   18   19 1   
    36   18   21 1   
    37   19   20 1   
    38   19   48 1   
    39   19   49 1   
    40   20   21 1   
    41   20   22 1   
    42   20   50 1   
    43   21   51 1   
    44   21   52 1   
    45   22   23 1   
    46   22   27 1   
    47   23   24 1   
    48   23   53 1   
    49   23   54 1   
    50   24   25 1   
    51   24   55 1   
    52   24   56 1   
    53   25   26 1   
    54   25   28 1   
    55   26   27 1   
    56   26   57 1   
    57   26   58 1   
    58   27   59 1   
    59   27   60 1   
    60   28   29 ar  
    61   28   33 ar  
    62   29   30 ar  
    63   30   31 ar  
    64   30   61 1   
    65   31   32 ar  
    66   31   62 1   
    67   32   33 ar  
    68   32   63 1   
@<TRIPOS>SUBSTRUCTURE
     1 ZYH         1 TEMP              0 ****  ****    0 ROOT
