@<TRIPOS>MOLECULE
ZYH
   63    68     1     0     0
SMALL
bcc


@<TRIPOS>ATOM
      1 O01         0.2010    0.1750   -0.1030 o         1 ZYH     -0.582100
      2 C02         1.4440    0.0890   -0.0660 c         1 ZYH      0.651700
      3 C03         2.1690   -0.0700    1.2280 ca        1 ZYH     -0.126600
      4 C04         1.5360   -0.8250    2.2340 ca        1 ZYH     -0.101000
      5 C05         2.1120   -1.0250    3.4850 ca        1 ZYH     -0.081000
      6 C06         3.3560   -0.4380    3.7290 ca        1 ZYH      0.080400
      7 N07         4.2070   -0.4300    4.8590 nc        1 ZYH     -0.560100
      8 C08         5.2560    0.3050    4.5110 cd        1 ZYH      0.556600
      9 O09         5.1900    0.8190    3.1830 os        1 ZYH     -0.312700
     10 C10         3.9770    0.3410    2.6900 ca        1 ZYH      0.015100
     11 C11         3.4110    0.5400    1.4410 ca        1 ZYH     -0.076000
     12 C12         6.4860    0.6900    5.2600 c3        1 ZYH     -0.074000
     13 C13         6.1190    1.5200    6.4860 c3        1 ZYH     -0.074400
     14 C14         7.3640    1.9020    7.2580 c3        1 ZYH     -0.077400
     15 C15         8.1670    0.6780    7.6520 c3        1 ZYH     -0.080400
     16 C16         8.5110   -0.1660    6.4420 c3        1 ZYH     -0.077400
     17 C17         7.2690   -0.5540    5.6670 c3        1 ZYH     -0.074400
     18 N18         2.1910    0.2160   -1.2360 n         1 ZYH     -0.432800
     19 C19         1.6000    0.0070   -2.5670 cy        1 ZYH      0.066500
     20 C20         2.8620   -0.8350   -2.9790 cy        1 ZYH      0.137500
     21 C21         3.4120   -0.5430   -1.5340 cy        1 ZYH      0.066500
     22 N22         3.6510   -0.3210   -4.0770 n3        1 ZYH     -0.718600
     23 C23         4.9330   -1.0000   -4.2030 c3        1 ZYH      0.159800
     24 C24         5.7970   -0.4380   -5.3490 c3        1 ZYH      0.199800
     25 N25         5.0780   -0.3340   -6.6100 nh        1 ZYH     -0.724300
     26 C26         3.7470    0.2450   -6.5070 c3        1 ZYH      0.199800
     27 C27         2.9240   -0.3320   -5.3380 c3        1 ZYH      0.159800
     28 C28         5.8400    0.0080   -7.7570 ca        1 ZYH      0.863900
     29 N29         7.2160   -0.2100   -7.7230 nb        1 ZYH     -0.745000
     30 C30         7.8890    0.0070   -8.8620 ca        1 ZYH      0.461700
     31 C31         7.2820    0.4480  -10.0510 ca        1 ZYH     -0.417600
     32 C32         5.8940    0.6660   -9.9890 ca        1 ZYH      0.461700
     33 N33         5.1620    0.4700   -8.8840 nb        1 ZYH     -0.745000
     34 H041        0.5430   -1.2540    2.0170 ha        1 ZYH      0.159000
     35 H051        1.6040   -1.6190    4.2580 ha        1 ZYH      0.158000
     36 H111        3.9070    1.1520    0.6760 ha        1 ZYH      0.165000
     37 H121        7.1250    1.3160    4.5720 hc        1 ZYH      0.079700
     38 H131        5.4290    0.9300    7.1450 hc        1 ZYH      0.056200
     39 H132        5.5750    2.4460    6.1620 hc        1 ZYH      0.056200
     40 H141        7.0680    2.4690    8.1790 hc        1 ZYH      0.043700
     41 H142        8.0010    2.5820    6.6330 hc        1 ZYH      0.043700
     42 H151        7.5760    0.0630    8.3800 hc        1 ZYH      0.043700
     43 H152        9.1100    0.9980    8.1670 hc        1 ZYH      0.043700
     44 H161        9.2090    0.4040    5.7740 hc        1 ZYH      0.043700
     45 H162        9.0450   -1.0960    6.7720 hc        1 ZYH      0.043700
     46 H171        7.5580   -1.1310    4.7510 hc        1 ZYH      0.056200
     47 H172        6.6190   -1.2150    6.2980 hc        1 ZYH      0.056200
     48 H191        1.4670    0.9770   -3.1040 h1        1 ZYH      0.070450
     49 H192        0.6440   -0.5700   -2.5650 h1        1 ZYH      0.070450
     50 H201        2.6080   -1.9230   -3.1100 h1        1 ZYH      0.042700
     51 H211        3.5640   -1.4600   -0.9160 h1        1 ZYH      0.070450
     52 H212        4.3170    0.1100   -1.4870 h1        1 ZYH      0.070450
     53 H231        5.5050   -0.8490   -3.2450 h1        1 ZYH      0.042950
     54 H232        4.8020   -2.1110   -4.3590 h1        1 ZYH      0.042950
     55 H241        6.6640   -1.1460   -5.4750 h1        1 ZYH      0.062200
     56 H242        6.2020    0.5690   -5.0420 h1        1 ZYH      0.062200
     57 H261        3.8110    1.3650   -6.3920 h1        1 ZYH      0.062200
     58 H262        3.1710    0.0160   -7.4480 h1        1 ZYH      0.062200
     59 H271        2.0090    0.3150   -5.2200 h1        1 ZYH      0.042950
     60 H272        2.5820   -1.3730   -5.6130 h1        1 ZYH      0.042950
     61 H301        8.9780   -0.1790   -8.8090 h4        1 ZYH      0.025600
     62 H311        7.8550    0.6150  -10.9670 ha        1 ZYH      0.155000
     63 H321        5.3310    1.0260  -10.8700 h4        1 ZYH      0.025600
@<TRIPOS>BOND
     1    1    2 2   
     2    2    3 1   
     3    2   18 1   
     4    3    4 ar  
     5    3   11 ar  
     6    4    5 ar  
     7    4   34 1   
     8    5    6 ar  
     9    5   35 1   
    10    6    7 1   
    11    6   10 ar  
    12    7    8 2   
    13    8    9 1   
    14    8   12 1   
    15    9   10 1   
    16   10   11 ar  
    17   11   36 1   
    18   12   13 1   
    19   12   17 1   
    20   12   37 1   
    21   13   14 1   
    22   13   38 1   
    23   13   39 1   
    24   14   15 1   
    25   14   40 1   
    26   14   41 1   
    27   15   16 1   
    28   15   42 1   
    29   15   43 1   
    30   16   17 1   
    31   16   44 1   
    32   16   45 1   
    33   17   46 1   
    34   17   47 1   
    35   18   19 1   
    36   18   21 1   
    37   19   20 1   
    38   19   48 1   
    39   19   49 1   
    40   20   21 1   
    41   20   22 1   
    42   20   50 1   
    43   21   51 1   
    44   21   52 1   
    45   22   23 1   
    46   22   27 1   
    47   23   24 1   
    48   23   53 1   
    49   23   54 1   
    50   24   25 1   
    51   24   55 1   
    52   24   56 1   
    53   25   26 1   
    54   25   28 1   
    55   26   27 1   
    56   26   57 1   
    57   26   58 1   
    58   27   59 1   
    59   27   60 1   
    60   28   29 ar  
    61   28   33 ar  
    62   29   30 ar  
    63   30   31 ar  
    64   30   61 1   
    65   31   32 ar  
    66   31   62 1   
    67   32   33 ar  
    68   32   63 1   
@<TRIPOS>SUBSTRUCTURE
     1 ZYH         1 TEMP              0 ****  ****    0 ROOT
