@<TRIPOS>MOLECULE
ZYI
   34    36     1     0     0
SMALL
bcc


@<TRIPOS>ATOM
      1 N1          0.7440   -0.1450   -1.2100 nc        1 ZYI     -0.609100
      2 C2         -0.0160   -0.2660   -0.1000 cd        1 ZYI      0.605200
      3 O3          0.6980   -0.0760    1.1290 os        1 ZYI     -0.273700
      4 C4          2.0050    0.1810    0.7100 ca        1 ZYI      0.017100
      5 C5          3.1180    0.4390    1.4930 ca        1 ZYI     -0.093000
      6 C6          4.3150    0.6630    0.8130 ca        1 ZYI     -0.121000
      7 C7          4.3690    0.6260   -0.5910 ca        1 ZYI      0.009400
      8 CL8         5.8640    0.9100   -1.3560 cl        1 ZYI     -0.092400
      9 C9          3.2490    0.3670   -1.3860 ca        1 ZYI     -0.080000
     10 C10         2.0390    0.1390   -0.7270 ca        1 ZYI      0.089400
     11 N11        -1.3670   -0.5520   -0.0010 n         1 ZYI     -0.474400
     12 C12        -2.0800   -0.6020    1.2040 c         1 ZYI      0.668100
     13 C13        -3.5540   -0.9450    1.0950 c3        1 ZYI     -0.147400
     14 C14        -4.3550    0.1220    0.3760 c3        1 ZYI     -0.069700
     15 C15        -5.8400    0.0230    0.7370 c3        1 ZYI     -0.081400
     16 C16        -6.6220    0.4510   -0.4960 c3        1 ZYI     -0.078900
     17 C17        -5.6680    0.3900   -1.6830 c3        1 ZYI     -0.078900
     18 C18        -4.2880    0.0240   -1.1490 c3        1 ZYI     -0.081400
     19 O19        -1.5260   -0.3960    2.2910 o         1 ZYI     -0.533100
     20 H5          3.0600    0.4640    2.5890 ha        1 ZYI      0.161000
     21 H6          5.2300    0.8730    1.3880 ha        1 ZYI      0.153000
     22 H9          3.3120    0.3420   -2.4830 ha        1 ZYI      0.166000
     23 HN11       -1.8540   -0.6800   -0.8630 hn        1 ZYI      0.351500
     24 H13        -3.6740   -1.9400    0.5910 hc        1 ZYI      0.081700
     25 H13A       -3.9350   -1.0480    2.1490 hc        1 ZYI      0.081700
     26 H14        -3.9760    1.1330    0.6910 hc        1 ZYI      0.064700
     27 H15        -6.1030   -1.0290    1.0160 hc        1 ZYI      0.044950
     28 H15A       -6.0760    0.6730    1.6150 hc        1 ZYI      0.044950
     29 H16        -7.5030   -0.2190   -0.6570 hc        1 ZYI      0.046200
     30 H16A       -7.0140    1.4910   -0.3670 hc        1 ZYI      0.046200
     31 H17        -6.0110   -0.3690   -2.4290 hc        1 ZYI      0.046200
     32 H17A       -5.6350    1.3780   -2.2070 hc        1 ZYI      0.046200
     33 H18        -3.5120    0.7180   -1.5580 hc        1 ZYI      0.044950
     34 H18A       -4.0200   -1.0150   -1.4670 hc        1 ZYI      0.044950
@<TRIPOS>BOND
     1    1    2 2   
     2    1   10 1   
     3    2    3 1   
     4    2   11 1   
     5    3    4 1   
     6    4    5 ar  
     7    4   10 ar  
     8    5    6 ar  
     9    5   20 1   
    10    6    7 ar  
    11    6   21 1   
    12    7    8 1   
    13    7    9 ar  
    14    9   10 ar  
    15    9   22 1   
    16   11   12 1   
    17   11   23 1   
    18   12   13 1   
    19   12   19 2   
    20   13   14 1   
    21   13   24 1   
    22   13   25 1   
    23   14   15 1   
    24   14   18 1   
    25   14   26 1   
    26   15   16 1   
    27   15   27 1   
    28   15   28 1   
    29   16   17 1   
    30   16   29 1   
    31   16   30 1   
    32   17   18 1   
    33   17   31 1   
    34   17   32 1   
    35   18   33 1   
    36   18   34 1   
@<TRIPOS>SUBSTRUCTURE
     1 ZYI         1 TEMP              0 ****  ****    0 ROOT
