@<TRIPOS>MOLECULE
ZYI
   34    36     1     0     0
SMALL
bcc


@<TRIPOS>ATOM
      1 N1          0.9780   -1.1360    0.5320 nc        1 ZYI     -0.609100
      2 C2          1.8590   -0.1280    0.3520 cd        1 ZYI      0.605200
      3 O3          1.6900    0.9730    1.2550 os        1 ZYI     -0.273700
      4 C4          0.6070    0.5830    2.0450 ca        1 ZYI      0.017100
      5 C5          0.0150    1.2780    3.0870 ca        1 ZYI     -0.093000
      6 C6         -1.0630    0.6530    3.7150 ca        1 ZYI     -0.121000
      7 C7         -1.5090   -0.6130    3.2990 ca        1 ZYI      0.009400
      8 Cl8        -2.8310   -1.3170    4.1100 cl        1 ZYI     -0.092400
      9 C9         -0.9160   -1.3190    2.2480 ca        1 ZYI     -0.080000
     10 C10         0.1660   -0.7130    1.6040 ca        1 ZYI      0.089400
     11 N11         2.8770   -0.0220   -0.5810 ns        1 ZYI     -0.474400
     12 C12         3.7780    1.0500   -0.6510 c         1 ZYI      0.668100
     13 C13         4.8150    0.9790   -1.7570 c3        1 ZYI     -0.147400
     14 C14         5.7960   -0.1610   -1.5730 c3        1 ZYI     -0.069700
     15 C15         7.0870    0.1010   -2.3520 c3        1 ZYI     -0.081400
     16 C16         7.6060   -1.2540   -2.8110 c3        1 ZYI     -0.078900
     17 C17         6.4560   -2.2460   -2.6920 c3        1 ZYI     -0.078900
     18 C18         5.2760   -1.5120   -2.0670 c3        1 ZYI     -0.081400
     19 O19         3.7110    2.0020    0.1350 o         1 ZYI     -0.533100
     20 H5          0.3760    2.2660    3.4010 ha        1 ZYI      0.161000
     21 H6         -1.5690    1.1630    4.5490 ha        1 ZYI      0.153000
     22 H9         -1.2800   -2.3080    1.9380 ha        1 ZYI      0.166000
     23 HN11        2.9860   -0.7950   -1.2030 hn        1 ZYI      0.351500
     24 H13         5.3720    1.9560   -1.7330 hc        1 ZYI      0.081700
     25 H13A        4.3010    0.9040   -2.7520 hc        1 ZYI      0.081700
     26 H14         6.0480   -0.2480   -0.4790 hc        1 ZYI      0.064700
     27 H15         7.8350    0.6270   -1.7100 hc        1 ZYI      0.044950
     28 H15A        6.8810    0.7550   -3.2370 hc        1 ZYI      0.044950
     29 H16         8.4650   -1.5780   -2.1710 hc        1 ZYI      0.046200
     30 H16A        7.9790   -1.1980   -3.8640 hc        1 ZYI      0.046200
     31 H17         6.1750   -2.6500   -3.6970 hc        1 ZYI      0.046200
     32 H17A        6.7560   -3.1160   -2.0570 hc        1 ZYI      0.046200
     33 H18         4.8470   -2.1060   -1.2220 hc        1 ZYI      0.044950
     34 H18A        4.4680   -1.3700   -2.8290 hc        1 ZYI      0.044950
@<TRIPOS>BOND
     1    1    2 2   
     2    1   10 1   
     3    2    3 1   
     4    2   11 1   
     5    3    4 1   
     6    4    5 ar  
     7    4   10 ar  
     8    5    6 ar  
     9    5   20 1   
    10    6    7 ar  
    11    6   21 1   
    12    7    8 1   
    13    7    9 ar  
    14    9   10 ar  
    15    9   22 1   
    16   11   12 1   
    17   11   23 1   
    18   12   13 1   
    19   12   19 2   
    20   13   14 1   
    21   13   24 1   
    22   13   25 1   
    23   14   15 1   
    24   14   18 1   
    25   14   26 1   
    26   15   16 1   
    27   15   27 1   
    28   15   28 1   
    29   16   17 1   
    30   16   29 1   
    31   16   30 1   
    32   17   18 1   
    33   17   31 1   
    34   17   32 1   
    35   18   33 1   
    36   18   34 1   
@<TRIPOS>SUBSTRUCTURE
     1 ZYI         1 TEMP              0 ****  ****    0 ROOT
