@<TRIPOS>MOLECULE
ZYJ
   38    39     1     0     0
SMALL
bcc


@<TRIPOS>ATOM
      1 C          -6.3080   -0.1150    0.0370 c         1 ZYJ      0.935600
      2 N          -4.3000   -0.1810    1.5650 n3        1 ZYJ     -0.752200
      3 O          -6.2580   -1.0730   -0.7810 o         1 ZYJ     -0.835300
      4 N1         -0.5120   -0.0800   -0.2600 n2        1 ZYJ     -0.400200
      5 O2         -1.6570    0.5580   -0.2720 os        1 ZYJ     -0.199300
      6 C4          5.1230    2.8350    0.2600 c3        1 ZYJ      0.111700
      7 C6          4.5580   -0.7660   -0.0400 ca        1 ZYJ      0.095100
      8 C7          4.2810    0.6240    0.0460 ca        1 ZYJ      0.093100
      9 C9          3.5040   -1.6710   -0.1550 ca        1 ZYJ     -0.184000
     10 CA         -4.9620    0.5580    0.4780 c3        1 ZYJ      0.021500
     11 CB         -3.9930    0.6420   -0.7240 c3        1 ZYJ     -0.098400
     12 CD         -3.2020   -0.9350    0.9720 c3        1 ZYJ      0.127800
     13 CG         -2.8390   -0.3080   -0.3920 c3        1 ZYJ      0.130100
     14 C10         2.9630    1.0720    0.0160 ca        1 ZYJ     -0.171000
     15 C11         2.1850   -1.2130   -0.1850 ca        1 ZYJ     -0.101000
     16 C12         1.9050    0.1520   -0.1000 ca        1 ZYJ     -0.100900
     17 C13         0.5410    0.6860   -0.1250 ce        1 ZYJ      0.350800
     18 C14         6.1790   -2.5010   -0.0790 c3        1 ZYJ      0.112700
     19 O51        -7.3630    0.3930    0.5010 o         1 ZYJ     -0.835300
     20 HN         -3.9240    0.4830    2.2200 hn        1 ZYJ      0.314800
     21 H4          4.6020    3.2080   -0.6550 h1        1 ZYJ      0.040700
     22 H4A         4.5170    3.0570    1.1720 h1        1 ZYJ      0.040700
     23 H4B         6.1430    3.2890    0.3450 h1        1 ZYJ      0.040700
     24 H9          3.6980   -2.7510   -0.2230 ha        1 ZYJ      0.136000
     25 HA         -5.2210    1.5940    0.8330 h1        1 ZYJ      0.039700
     26 HB         -4.5120    0.2950   -1.6510 hc        1 ZYJ      0.061700
     27 HBA        -3.6220    1.6840   -0.8760 hc        1 ZYJ      0.061700
     28 HD         -2.3130   -0.9850    1.6520 h1        1 ZYJ      0.051200
     29 HDA        -3.5790   -1.9790    0.7880 h1        1 ZYJ      0.051200
     30 HG         -2.6640   -1.0790   -1.1800 h1        1 ZYJ      0.068700
     31 H10         2.7370    2.1460    0.0830 ha        1 ZYJ      0.140000
     32 H11         1.3670   -1.9450   -0.2760 ha        1 ZYJ      0.157000
     33 H13         0.4630    1.7880   -0.0220 h4        1 ZYJ     -0.005200
     34 H14         5.7250   -3.0460    0.7840 h1        1 ZYJ      0.040033
     35 H14A        5.8150   -2.9270   -1.0450 h1        1 ZYJ      0.040033
     36 H14B        7.2970   -2.5420   -0.0260 h1        1 ZYJ      0.040033
     37 O5          5.8970   -1.1090   -0.0020 os        1 ZYJ     -0.308900
     38 O4          5.3910    1.4420    0.1560 os        1 ZYJ     -0.310900
@<TRIPOS>BOND
     1    1    3 1   
     2    1   10 1   
     3    1   19 1   
     4    2   10 1   
     5    2   12 1   
     6    2   20 1   
     7    4    5 1   
     8    4   17 2   
     9    5   13 1   
    10    6   21 1   
    11    6   22 1   
    12    6   23 1   
    13    6   38 1   
    14    7    8 ar  
    15    7    9 ar  
    16    7   37 1   
    17    8   14 ar  
    18    8   38 1   
    19    9   15 ar  
    20    9   24 1   
    21   10   11 1   
    22   10   25 1   
    23   11   13 1   
    24   11   26 1   
    25   11   27 1   
    26   12   13 1   
    27   12   28 1   
    28   12   29 1   
    29   13   30 1   
    30   14   16 ar  
    31   14   31 1   
    32   15   16 ar  
    33   15   32 1   
    34   16   17 1   
    35   17   33 1   
    36   18   34 1   
    37   18   35 1   
    38   18   36 1   
    39   18   37 1   
@<TRIPOS>SUBSTRUCTURE
     1 ZYJ         1 TEMP              0 ****  ****    0 ROOT
