@<TRIPOS>MOLECULE
ZYK
   39    37     1     0     0
SMALL
bcc


@<TRIPOS>ATOM
      1 C          -5.6370   -1.9280   -1.1440 c1        1 ZYK      0.352000
      2 N          -4.2090   -2.2130   -2.8790 n3        1 ZYK     -0.230000
      3 O          -6.1710   -0.9480   -1.8090 o         1 ZYK     -0.574000
      4 C1          1.3190   -1.0180   -0.8180 c1        1 ZYK      0.295000
      5 N1          0.0680   -0.8160   -1.4080 n2        1 ZYK     -0.184000
      6 O1         -0.7890   -1.9410   -1.6740 os        1 ZYK     -0.221000
      7 C2          2.0580    0.1620   -0.1450 c2        1 ZYK     -0.090000
      8 O2          1.8410   -2.1040   -0.8700 o         1 ZYK     -0.302000
      9 C3          2.1410    0.0910    1.2620 c2        1 ZYK     -0.142000
     10 O3          4.1660    3.1150    1.9220 os        1 ZYK     -0.218000
     11 C4          2.5780    1.2400   -0.8070 c1        1 ZYK     -0.129000
     12 O4          3.3230    0.8010    3.2220 os        1 ZYK     -0.213000
     13 C5          3.1930    2.2740   -0.0870 c1        1 ZYK     -0.123000
     14 C6          3.2740    2.2020    1.3010 c2        1 ZYK      0.038000
     15 C7          3.6300    4.3650    2.1220 c3        1 ZYK     -0.073000
     16 C8          2.7460    1.1090    1.9700 c2        1 ZYK      0.046000
     17 C9          2.3730    0.7770    4.3150 c3        1 ZYK     -0.080000
     18 CA         -4.4190   -2.5460   -1.6210 c2        1 ZYK     -0.126000
     19 CB         -3.1380   -1.8650   -0.8890 c3        1 ZYK     -0.193000
     20 CD         -2.6180   -2.0360   -3.0620 c3        1 ZYK     -0.090000
     21 CG         -2.1780   -1.4600   -1.9920 c3        1 ZYK      0.006000
     22 O6         -6.2330   -2.3960   -0.0690 o         1 ZYK     -0.574000
     23 HN         -4.5230   -2.9150   -3.4560 hn        1 ZYK      0.108000
     24 HN1        -0.1760    0.0230   -1.6890 hn        1 ZYK      0.189000
     25 H3          1.8330   -0.7170    1.7310 ha        1 ZYK      0.164000
     26 H4          2.5210    1.2880   -1.7770 ha        1 ZYK      0.137000
     27 H5          3.5870    3.0910   -0.5860 ha        1 ZYK      0.146000
     28 H7          3.6490    4.8620    1.2910 h1        1 ZYK      0.081333
     29 H7A         2.7300    4.2790    2.4190 h1        1 ZYK      0.081333
     30 H7B         4.1540    4.8410    2.8010 h1        1 ZYK      0.081333
     31 H9          2.8500    0.8510    5.1650 h1        1 ZYK      0.088000
     32 H9A         1.7280    1.5600    4.2190 h1        1 ZYK      0.088000
     33 H9B         1.8550   -0.0930    4.2930 h1        1 ZYK      0.088000
     34 HA         -4.6000   -3.4880   -1.4290 h4        1 ZYK      0.088000
     35 HB         -2.7100   -2.5140   -0.2930 hc        1 ZYK      0.095000
     36 HBA        -3.4180   -1.0780   -0.3850 hc        1 ZYK      0.095000
     37 HD         -2.4230   -1.4650   -3.8680 h1        1 ZYK      0.096500
     38 HDA        -2.1900   -2.9220   -3.1640 h1        1 ZYK      0.096500
     39 HG         -2.1830   -0.4720   -2.1100 h1        1 ZYK      0.102000
@<TRIPOS>BOND
     1    1    3 1   
     2    1   22 1   
     3    2   18 1   
     4    2   20 1   
     5    2   23 1   
     6    4    7 1   
     7    4    8 1   
     8    5    6 1   
     9    5   24 1   
    10    6   21 1   
    11    7    9 1   
    12    7   11 1   
    13    9   16 1   
    14    9   25 1   
    15   10   14 1   
    16   10   15 1   
    17   11   26 1   
    18   12   16 1   
    19   12   17 1   
    20   13   14 1   
    21   13   27 1   
    22   14   16 1   
    23   15   28 1   
    24   15   29 1   
    25   15   30 1   
    26   17   31 1   
    27   17   32 1   
    28   17   33 1   
    29   18   19 1   
    30   18   34 1   
    31   19   21 1   
    32   19   35 1   
    33   19   36 1   
    34   20   21 1   
    35   20   37 1   
    36   20   38 1   
    37   21   39 1   
@<TRIPOS>SUBSTRUCTURE
     1 ZYK         1 TEMP              0 ****  ****    0 ROOT
