@<TRIPOS>MOLECULE
ZYK
   39    40     1     0     0
SMALL
bcc


@<TRIPOS>ATOM
      1 C          -6.2760   -0.2070    0.2720 c         1 ZYK      0.934600
      2 N          -4.2040    0.7130    1.3840 n3        1 ZYK     -0.755200
      3 O          -6.2070   -1.4540    0.0970 o         1 ZYK     -0.837800
      4 C1          0.4170    0.2310    0.2080 c         1 ZYK      0.622700
      5 N1         -0.5170   -0.4360   -0.6350 n         1 ZYK     -0.348400
      6 O1         -1.6890    0.1870   -0.7930 os        1 ZYK     -0.280900
      7 C2          1.8400   -0.2010    0.0650 ca        1 ZYK     -0.145600
      8 O2          0.0840    1.0610    1.0690 o         1 ZYK     -0.548100
      9 C3          2.8350    0.7640    0.2830 ca        1 ZYK     -0.134000
     10 C4          2.1920   -1.5120   -0.2480 ca        1 ZYK     -0.091000
     11 C5          3.5370   -1.8730   -0.3610 ca        1 ZYK     -0.194000
     12 C6          4.5360   -0.9200   -0.1600 ca        1 ZYK      0.115100
     13 C7          6.2600   -2.5070   -0.5500 c3        1 ZYK      0.110700
     14 C8          4.1780    0.4160    0.1690 ca        1 ZYK      0.088100
     15 C9          4.8900    2.5900    0.8060 c3        1 ZYK      0.109700
     16 CA         -4.9650    0.6410    0.1280 c3        1 ZYK      0.026500
     17 CB         -4.0590    0.0390   -0.9680 c3        1 ZYK     -0.095400
     18 CD         -3.0430   -0.1600    1.2560 c3        1 ZYK      0.124800
     19 CG         -2.8410   -0.5240   -0.2310 c3        1 ZYK      0.118100
     20 O6         -7.3350    0.4360    0.4990 o         1 ZYK     -0.837800
     21 HN         -3.8900    1.6590    1.5140 hn        1 ZYK      0.319800
     22 HN1        -0.1240   -0.6270   -1.5500 hn        1 ZYK      0.277500
     23 H3          2.5290    1.7860    0.5580 ha        1 ZYK      0.162000
     24 H4          1.4180   -2.2830   -0.3940 ha        1 ZYK      0.152000
     25 H5          3.7950   -2.9130   -0.6060 ha        1 ZYK      0.140000
     26 H7          7.3790   -2.4700   -0.5620 h1        1 ZYK      0.042367
     27 H7A         5.8970   -3.2020    0.2460 h1        1 ZYK      0.042367
     28 H7B         5.8650   -2.8150   -1.5480 h1        1 ZYK      0.042367
     29 H9          5.8830    3.0890    0.9390 h1        1 ZYK      0.045033
     30 H9A         4.2790    3.1280    0.0410 h1        1 ZYK      0.045033
     31 H9B         4.3410    2.5360    1.7780 h1        1 ZYK      0.045033
     32 HA         -5.2880    1.6760   -0.1750 h1        1 ZYK      0.035700
     33 HB         -4.5990   -0.7850   -1.4960 hc        1 ZYK      0.057200
     34 HBA        -3.7510    0.8130   -1.7120 hc        1 ZYK      0.057200
     35 HD         -2.1140    0.3090    1.6780 h1        1 ZYK      0.053200
     36 HDA        -3.2690   -1.1010    1.8280 h1        1 ZYK      0.053200
     37 HG         -2.7230   -1.6250   -0.3780 h1        1 ZYK      0.062700
     38 O3          5.8910   -1.1650   -0.2540 os        1 ZYK     -0.305900
     39 O4          5.2360    1.2880    0.3450 os        1 ZYK     -0.309900
@<TRIPOS>BOND
     1    1    3 1   
     2    1   16 1   
     3    1   20 1   
     4    2   16 1   
     5    2   18 1   
     6    2   21 1   
     7    4    5 1   
     8    4    7 1   
     9    4    8 2   
    10    5    6 1   
    11    5   22 1   
    12    6   19 1   
    13    7    9 ar  
    14    7   10 ar  
    15    9   14 ar  
    16    9   23 1   
    17   10   11 ar  
    18   10   24 1   
    19   11   12 ar  
    20   11   25 1   
    21   12   14 ar  
    22   12   38 1   
    23   13   26 1   
    24   13   27 1   
    25   13   28 1   
    26   13   38 1   
    27   14   39 1   
    28   15   29 1   
    29   15   30 1   
    30   15   31 1   
    31   15   39 1   
    32   16   17 1   
    33   16   32 1   
    34   17   19 1   
    35   17   33 1   
    36   17   34 1   
    37   18   19 1   
    38   18   35 1   
    39   18   36 1   
    40   19   37 1   
@<TRIPOS>SUBSTRUCTURE
     1 ZYK         1 TEMP              0 ****  ****    0 ROOT
