@<TRIPOS>MOLECULE
ZYL
   47    40     1     0     0
SMALL
bcc


@<TRIPOS>ATOM
      1 CAA        -6.8600   -3.1900   -1.4710 c3        1 ZYL     -0.208000
      2 OAB         3.1730   -0.1250    5.5880 o         1 ZYL     -0.557000
      3 OAC         1.3840    1.0580    2.5420 o         1 ZYL     -0.370000
      4 OAD         1.4340    1.1830    5.7510 o         1 ZYL     -0.557000
      5 OAE         5.0200    2.3930    5.4660 oh        1 ZYL     -0.297000
      6 CAF         3.1600    0.2090   -1.9690 c1        1 ZYL     -0.135000
      7 CAG         3.2040    1.2490   -1.0530 c1        1 ZYL     -0.168000
      8 CAH         1.9590   -0.4270   -2.2360 c1        1 ZYL     -0.135000
      9 CAI         4.9060    3.2080    3.1100 c1        1 ZYL     -0.135000
     10 CAJ         4.1950    3.2130    1.7730 c1        1 ZYL     -0.135000
     11 CAK         0.8460    1.0150   -0.6730 c1        1 ZYL     -0.177000
     12 CAL        -5.3690   -3.2930   -1.2470 c3        1 ZYL     -0.162000
     13 CAM        -4.6550   -2.3140   -2.1510 c3        1 ZYL     -0.154000
     14 CAN        -3.1630   -2.4320   -1.9430 c3        1 ZYL     -0.162000
     15 CAO        -2.4630   -1.3100   -2.6720 c3        1 ZYL     -0.160000
     16 CAP        -0.9840   -1.3520   -2.3610 c3        1 ZYL     -0.028000
     17 CAQ         2.0740    2.8570    0.5070 c3        1 ZYL      0.006000
     18 OAR        -0.5580   -0.0820   -1.9330 os        1 ZYL     -0.227000
     19 CAS         2.5210    0.8780    5.1920 c1        1 ZYL      0.381000
     20 CAT         2.0470    1.6520   -0.4050 c1        1 ZYL     -0.058000
     21 CAU         0.8020   -0.0240   -1.5890 c1        1 ZYL      0.080000
     22 CAV         4.3210    2.4760    4.2460 c1        1 ZYL      0.175000
     23 CAW         3.0610    1.7360    4.0680 c1        1 ZYL     -0.302000
     24 CAX         2.3660    1.7490    2.7240 c1        1 ZYL      0.365000
     25 NAY         2.8880    2.5770    1.6400 n1        1 ZYL     -0.272000
     26 H1         -7.3210   -3.8520   -0.9150 hc        1 ZYL      0.066667
     27 H2         -7.0610   -3.3600   -2.4160 hc        1 ZYL      0.066667
     28 H3         -7.1660   -2.2910   -1.2290 hc        1 ZYL      0.066667
     29 H5          4.8950    3.1410    5.9310 ho        1 ZYL      0.287000
     30 H6          3.9690   -0.0560   -2.4440 ha        1 ZYL      0.131250
     31 H7          4.0540    1.6850   -0.8510 ha        1 ZYL      0.122000
     32 H8          1.9200   -1.1310   -2.9100 ha        1 ZYL      0.131250
     33 H9          5.7800    3.6330    3.2010 ha        1 ZYL      0.131250
     34 H10         4.5810    3.6970    1.0180 ha        1 ZYL      0.131250
     35 H11         0.0300    1.2990   -0.2170 ha        1 ZYL      0.185000
     36 H12        -5.0710   -4.2030   -1.4510 hc        1 ZYL      0.085500
     37 H13        -5.1640   -3.0850   -0.3140 hc        1 ZYL      0.085500
     38 H14        -4.8710   -2.5130   -3.0840 hc        1 ZYL      0.072500
     39 H15        -4.9420   -1.4040   -1.9370 hc        1 ZYL      0.072500
     40 H16        -2.8520   -3.2920   -2.2920 hc        1 ZYL      0.093000
     41 H17        -2.9610   -2.3760   -0.9860 hc        1 ZYL      0.093000
     42 H18        -2.8330   -0.4520   -2.3820 hc        1 ZYL      0.085500
     43 H19        -2.5960   -1.4140   -3.6350 hc        1 ZYL      0.085500
     44 H20        -0.8180   -2.0080   -1.6520 h1        1 ZYL      0.096000
     45 H21        -0.4880   -1.6090   -3.1650 h1        1 ZYL      0.096000
     46 H22         1.1630    3.0640    0.8020 h1        1 ZYL      0.104500
     47 H23         2.4420    3.6250    0.0230 h1        1 ZYL      0.104500
@<TRIPOS>BOND
     1    1   12 1   
     2    1   26 1   
     3    1   27 1   
     4    1   28 1   
     5    2   19 1   
     6    3   24 1   
     7    4   19 1   
     8    5   22 1   
     9    5   29 1   
    10    6    8 1   
    11    6   30 1   
    12    7   20 1   
    13    7   31 1   
    14    8   32 1   
    15    9   10 1   
    16    9   33 1   
    17   10   34 1   
    18   11   21 1   
    19   11   35 1   
    20   12   13 1   
    21   12   36 1   
    22   12   37 1   
    23   13   14 1   
    24   13   38 1   
    25   13   39 1   
    26   14   15 1   
    27   14   40 1   
    28   14   41 1   
    29   15   16 1   
    30   15   42 1   
    31   15   43 1   
    32   16   18 1   
    33   16   44 1   
    34   16   45 1   
    35   17   20 1   
    36   17   25 1   
    37   17   46 1   
    38   17   47 1   
    39   18   21 1   
    40   22   23 1   
@<TRIPOS>SUBSTRUCTURE
     1 ZYL         1 TEMP              0 ****  ****    0 ROOT
