@<TRIPOS>MOLECULE
ZYL
   47    45     1     0     0
SMALL
bcc


@<TRIPOS>ATOM
      1 CAA        -0.8040   -0.0760   -1.7140 c2        1 ZYL     -0.219500
      2 OAB        11.6090    3.7140   12.6360 o         1 ZYL     -0.548500
      3 OAD        11.3030    5.8460   12.0540 o         1 ZYL     -0.548500
      4 OAE        11.3700    6.2790    9.3980 oh        1 ZYL     -0.291000
      5 CAF         9.7720   -0.7600    3.5150 ca        1 ZYL     -0.126500
      6 CAG         9.9630   -0.3100    4.8210 ca        1 ZYL     -0.140000
      7 CAH         8.5010   -0.7360    2.9390 ca        1 ZYL     -0.143000
      8 CAI        10.5190    4.5620    8.0340 c2        1 ZYL     -0.189000
      9 CAJ        10.0400    3.3110    7.8540 c2        1 ZYL     -0.030000
     10 CAK         7.6110    0.2030    5.0180 ca        1 ZYL     -0.143000
     11 CAL         0.5030    0.1400   -1.6780 c2        1 ZYL     -0.219500
     12 CAM         0.6950   -1.0960    1.8750 c3        1 ZYL     -0.272000
     13 CAN         4.3130    0.0170    0.2420 c3        1 ZYL     -0.187000
     14 CAO         4.4510   -0.5330    1.6400 c3        1 ZYL     -0.246000
     15 CAP         5.8980   -0.6520    1.9970 c1        1 ZYL     -0.003000
     16 OAR         6.1160   -0.1790    3.2180 os        1 ZYL     -0.147000
     17 CAS        11.2400    4.5960   11.8270 c2        1 ZYL      0.383000
     18 CAT         8.8890    0.1710    5.5730 ca        1 ZYL     -0.126500
     19 CAU         7.4380   -0.2530    3.7040 ca        1 ZYL      0.040000
     20 CAV        10.8780    5.0120    9.3690 c2        1 ZYL      0.164000
     21 CAW        10.7360    4.1870   10.4510 c2        1 ZYL     -0.300000
     22 CAX        10.1080    2.8800   10.2910 c2        1 ZYL      0.322000
     23 NAY         9.8350    2.4050    8.9200 n         1 ZYL     -0.164000
     24 H1         -1.3630   -0.4710   -0.8550 ha        1 ZYL      0.109750
     25 H2          0.3980   -0.4730    2.7460 hc        1 ZYL      0.068000
     26 H3         -1.4160    0.1260   -2.6040 ha        1 ZYL      0.109750
     27 H5         11.5490    6.5360   10.3340 ho        1 ZYL      0.293000
     28 H6          8.3250   -1.0870    1.9110 ha        1 ZYL      0.154500
     29 H7         10.9680   -0.3340    5.2680 ha        1 ZYL      0.136000
     30 H8         10.6230   -1.1370    2.9310 ha        1 ZYL      0.168500
     31 H9         10.6610    5.2540    7.1930 ha        1 ZYL      0.151000
     32 H10         9.7770    2.9060    6.8590 h4        1 ZYL      0.159000
     33 H11         6.7520    0.5770    5.5930 ha        1 ZYL      0.154500
     34 H12         3.2410   -0.0050   -0.0710 hc        1 ZYL      0.076000
     35 H13        -0.0020   -0.9070    1.0280 hc        1 ZYL      0.068000
     36 H14         1.1120   -0.0620   -0.7840 ha        1 ZYL      0.109750
     37 H15         1.0660    0.5360   -2.5340 ha        1 ZYL      0.109750
     38 H16         1.7320   -0.8320    1.5670 hc        1 ZYL      0.068000
     39 H17         0.6550   -2.1710    2.1560 hc        1 ZYL      0.068000
     40 H18         4.6730    1.0730    0.1990 hc        1 ZYL      0.076000
     41 H19         4.9120   -0.5890   -0.4800 hc        1 ZYL      0.076000
     42 H20         4.0390   -1.5800    1.6820 hc        1 ZYL      0.098000
     43 H21         3.8530    0.0900    2.3590 hc        1 ZYL      0.098000
     44 H22         9.0500    0.5280    6.6180 ha        1 ZYL      0.168500
     45 H23         9.2650    0.5160    9.5050 ha        1 ZYL      0.076000
     46 CAQ         9.4070    1.1880    8.6330 c1        1 ZYL     -0.171000
     47 OAC         9.7390    2.1120   11.1870 o         1 ZYL     -0.288000
@<TRIPOS>BOND
     1    1   11 1   
     2    1   24 1   
     3    1   26 1   
     4    2   17 1   
     5    3   17 1   
     6    4   20 1   
     7    4   27 1   
     8    5    6 1   
     9    5    7 1   
    10    5   30 1   
    11    6   18 1   
    12    6   29 1   
    13    7   19 1   
    14    7   28 1   
    15    8    9 1   
    16    8   20 1   
    17    8   31 1   
    18    9   23 1   
    19    9   32 1   
    20   10   18 1   
    21   10   19 1   
    22   10   33 1   
    23   11   36 1   
    24   11   37 1   
    25   12   25 1   
    26   12   35 1   
    27   12   38 1   
    28   12   39 1   
    29   13   14 1   
    30   13   34 1   
    31   13   40 1   
    32   13   41 1   
    33   14   15 1   
    34   14   42 1   
    35   14   43 1   
    36   15   16 1   
    37   16   19 1   
    38   17   21 1   
    39   18   44 1   
    40   20   21 1   
    41   21   22 1   
    42   22   23 1   
    43   22   47 1   
    44   23   46 1   
    45   45   46 1   
@<TRIPOS>SUBSTRUCTURE
     1 ZYL         1 TEMP              0 ****  ****    0 ROOT
