@<TRIPOS>MOLECULE
ZYL
   47    48     1     0     0
SMALL
bcc


@<TRIPOS>ATOM
      1 CAA         8.5020    2.8110    0.6720 c3        1 ZYL     -0.092100
      2 OAB        -2.1440    3.1640   -0.9720 o         1 ZYL     -0.822300
      3 OAD        -4.1110    3.5820   -0.0120 o         1 ZYL     -0.822300
      4 OAE        -4.6080    1.8830    2.0370 oh        1 ZYL     -0.544100
      5 CAF         0.6930   -4.0860    0.3140 ca        1 ZYL     -0.115000
      6 CAG        -0.6080   -3.7390   -0.0410 ca        1 ZYL     -0.159000
      7 CAH         1.7530   -3.2160    0.0590 ca        1 ZYL     -0.203000
      8 CAI        -4.0300   -0.3670    1.6640 cc        1 ZYL     -0.253000
      9 CAJ        -3.4450   -1.3340    0.8990 cd        1 ZYL     -0.005400
     10 CAK         0.1810   -1.6220   -0.9190 ca        1 ZYL     -0.116000
     11 CAL         7.7600    1.5210    0.9090 c3        1 ZYL     -0.079400
     12 CAM         6.4530    1.4850    0.1450 c3        1 ZYL     -0.080400
     13 CAN         5.7110    0.1880    0.3850 c3        1 ZYL     -0.076400
     14 CAO         4.4060    0.1600   -0.3790 c3        1 ZYL     -0.090400
     15 CAP         3.6720   -1.1450   -0.1260 c3        1 ZYL      0.132400
     16 OAR         2.4750   -1.0810   -0.9090 os        1 ZYL     -0.323900
     17 CAS        -3.1780    2.7910   -0.3690 c         1 ZYL      0.931800
     18 CAT        -0.8630   -2.5090   -0.6600 ca        1 ZYL     -0.076300
     19 CAU         1.4900   -1.9880   -0.5590 ca        1 ZYL      0.115100
     20 CAV        -3.9840    1.0010    1.2050 cc        1 ZYL      0.215100
     21 CAW        -3.3370    1.3360    0.0400 cd        1 ZYL     -0.336400
     22 CAX        -2.7660    0.2930   -0.8030 c         1 ZYL      0.726700
     23 NAY        -2.8520   -1.0580   -0.3150 n         1 ZYL     -0.380000
     24 H1          7.8880    3.6840    1.0000 hc        1 ZYL      0.031033
     25 H2          9.4610    2.8190    1.2450 hc        1 ZYL      0.031033
     26 H3          8.7370    2.9370   -0.4120 hc        1 ZYL      0.031033
     27 H5         -4.5980    2.7760    1.6220 ho        1 ZYL      0.487000
     28 H6          0.8900   -5.0510    0.8010 ha        1 ZYL      0.119000
     29 H7         -1.4370   -4.4310    0.1670 ha        1 ZYL      0.122000
     30 H8          2.7760   -3.4970    0.3420 ha        1 ZYL      0.126000
     31 H9         -4.5210   -0.5980    2.6150 ha        1 ZYL      0.141000
     32 H10        -3.4320   -2.3910    1.2200 h4        1 ZYL      0.125000
     33 H11        -0.0190   -0.6450   -1.3950 ha        1 ZYL      0.194000
     34 H12         8.4000    0.6550    0.5960 hc        1 ZYL      0.034700
     35 H13         7.5540    1.4000    2.0050 hc        1 ZYL      0.034700
     36 H14         5.8090    2.3490    0.4580 hc        1 ZYL      0.045200
     37 H15         6.6550    1.6050   -0.9520 hc        1 ZYL      0.045200
     38 H16         6.3530   -0.6770    0.0700 hc        1 ZYL      0.035700
     39 H17         5.5080    0.0680    1.4820 hc        1 ZYL      0.035700
     40 H18         3.7530    1.0180   -0.0680 hc        1 ZYL      0.064200
     41 H19         4.5950    0.2720   -1.4780 hc        1 ZYL      0.064200
     42 H20         4.2810   -2.0240   -0.4670 h1        1 ZYL      0.031700
     43 H21         3.4230   -1.2650    0.9610 h1        1 ZYL      0.031700
     44 H22        -2.2380   -1.8260   -2.1570 h1        1 ZYL      0.065700
     45 H23        -2.9260   -3.0490   -0.9800 h1        1 ZYL      0.065700
     46 CAQ        -2.2640   -2.1400   -1.0700 c3        1 ZYL      0.128300
     47 OAC        -2.2380    0.4320   -1.9210 o         1 ZYL     -0.636500
@<TRIPOS>BOND
     1    1   11 1   
     2    1   24 1   
     3    1   25 1   
     4    1   26 1   
     5    2   17 1   
     6    3   17 1   
     7    4   20 1   
     8    4   27 1   
     9    5    6 ar  
    10    5    7 ar  
    11    5   28 1   
    12    6   18 ar  
    13    6   29 1   
    14    7   19 ar  
    15    7   30 1   
    16    8    9 2   
    17    8   20 1   
    18    8   31 1   
    19    9   23 1   
    20    9   32 1   
    21   10   18 ar  
    22   10   19 ar  
    23   10   33 1   
    24   11   12 1   
    25   11   34 1   
    26   11   35 1   
    27   12   13 1   
    28   12   36 1   
    29   12   37 1   
    30   13   14 1   
    31   13   38 1   
    32   13   39 1   
    33   14   15 1   
    34   14   40 1   
    35   14   41 1   
    36   15   16 1   
    37   15   42 1   
    38   15   43 1   
    39   16   19 1   
    40   17   21 1   
    41   18   46 1   
    42   20   21 2   
    43   21   22 1   
    44   22   23 1   
    45   22   47 2   
    46   23   46 1   
    47   44   46 1   
    48   45   46 1   
@<TRIPOS>SUBSTRUCTURE
     1 ZYL         1 TEMP              0 ****  ****    0 ROOT
