@<TRIPOS>MOLECULE
ZYL
   47    45     1     0     0
SMALL
bcc


@<TRIPOS>ATOM
      1 CAA        -0.5380    0.0360   -2.0700 c2        1 ZYL     -0.219500
      2 OAB        11.9440    3.7400   12.5460 o         1 ZYL     -0.548500
      3 OAD        11.5020    5.8620   12.0160 o         1 ZYL     -0.548500
      4 OAE        11.3660    6.3280    9.3680 oh        1 ZYL     -0.291000
      5 CAF         9.6890   -0.7190    3.5080 ca        1 ZYL     -0.126500
      6 CAG         9.9500   -0.2770    4.8040 ca        1 ZYL     -0.140000
      7 CAH         8.3830   -0.7360    3.0170 ca        1 ZYL     -0.143000
      8 CAI        10.5040    4.5880    8.0400 c2        1 ZYL     -0.189000
      9 CAJ        10.0720    3.3180    7.8750 c2        1 ZYL     -0.030000
     10 CAK         7.5980    0.1460    5.1630 ca        1 ZYL     -0.143000
     11 CAL         0.7670    0.2410   -2.1810 c2        1 ZYL     -0.219500
     12 CAM         0.4870   -1.0340    1.6690 c3        1 ZYL     -0.272000
     13 CAN         4.0000   -0.0970    0.6160 c3        1 ZYL     -0.189000
     14 CAO         4.2510   -0.6660    1.9900 c3        1 ZYL     -0.245000
     15 CAP         5.7220   -0.7340    2.2480 c1        1 ZYL     -0.003000
     16 OAR         6.0030   -0.2720    3.4610 os        1 ZYL     -0.147000
     17 CAS        11.4800    4.6130   11.7760 c2        1 ZYL      0.383000
     18 CAT         8.9110    0.1560    5.6320 ca        1 ZYL     -0.126500
     19 CAU         7.3560   -0.3010    3.8580 ca        1 ZYL      0.040000
     20 CAV        10.9320    5.0390    9.3540 c2        1 ZYL      0.164000
     21 CAW        10.9020    4.1960   10.4320 c2        1 ZYL     -0.300000
     22 CAX        10.3260    2.8640   10.2960 c2        1 ZYL      0.322000
     23 NAY         9.9820    2.3920    8.9400 n         1 ZYL     -0.164000
     24 H1         -1.0080   -0.2970   -1.1350 ha        1 ZYL      0.109750
     25 H2         -0.1330   -0.3630    2.3030 hc        1 ZYL      0.067750
     26 H3         -1.2360    0.1870   -2.9040 ha        1 ZYL      0.109750
     27 H5         11.5970    6.5820   10.2940 ho        1 ZYL      0.293000
     28 H6          8.1520   -1.0810    1.9990 ha        1 ZYL      0.154500
     29 H7         10.9830   -0.2670    5.1840 ha        1 ZYL      0.136000
     30 H8         10.5130   -1.0570    2.8630 ha        1 ZYL      0.168500
     31 H9         10.5560    5.2960    7.2020 ha        1 ZYL      0.151000
     32 H10         9.7610    2.9130    6.8940 h4        1 ZYL      0.159000
     33 H11         6.7660    0.4810    5.7980 ha        1 ZYL      0.154500
     34 H12         2.9100   -0.1560    0.3740 hc        1 ZYL      0.076000
     35 H13         0.4530   -0.6830    0.6140 hc        1 ZYL      0.067750
     36 H14         1.4640    0.0900   -1.3440 ha        1 ZYL      0.109750
     37 H15         1.2400    0.5750   -3.1140 ha        1 ZYL      0.109750
     38 H16         1.5400   -1.0160    2.0300 hc        1 ZYL      0.067750
     39 H17         0.0920   -2.0710    1.7290 hc        1 ZYL      0.067750
     40 H18         4.3150    0.9730    0.5700 hc        1 ZYL      0.076000
     41 H19         4.5720   -0.6660   -0.1570 hc        1 ZYL      0.076000
     42 H20         3.8830   -1.7290    2.0370 hc        1 ZYL      0.098000
     43 H21         3.6790   -0.0800    2.7590 hc        1 ZYL      0.098000
     44 H22         9.1280    0.5060    6.6690 ha        1 ZYL      0.168500
     45 H23         9.5400    0.4720    9.5350 ha        1 ZYL      0.076000
     46 CAQ         9.5920    1.1590    8.6650 c1        1 ZYL     -0.171000
     47 OAC        10.0550    2.0690   11.2030 o         1 ZYL     -0.288000
@<TRIPOS>BOND
     1    1   11 1   
     2    1   24 1   
     3    1   26 1   
     4    2   17 1   
     5    3   17 1   
     6    4   20 1   
     7    4   27 1   
     8    5    6 1   
     9    5    7 1   
    10    5   30 1   
    11    6   18 1   
    12    6   29 1   
    13    7   19 1   
    14    7   28 1   
    15    8    9 1   
    16    8   20 1   
    17    8   31 1   
    18    9   23 1   
    19    9   32 1   
    20   10   18 1   
    21   10   19 1   
    22   10   33 1   
    23   11   36 1   
    24   11   37 1   
    25   12   25 1   
    26   12   35 1   
    27   12   38 1   
    28   12   39 1   
    29   13   14 1   
    30   13   34 1   
    31   13   40 1   
    32   13   41 1   
    33   14   15 1   
    34   14   42 1   
    35   14   43 1   
    36   15   16 1   
    37   16   19 1   
    38   17   21 1   
    39   18   44 1   
    40   20   21 1   
    41   21   22 1   
    42   22   23 1   
    43   22   47 1   
    44   23   46 1   
    45   45   46 1   
@<TRIPOS>SUBSTRUCTURE
     1 ZYL         1 TEMP              0 ****  ****    0 ROOT
