@<TRIPOS>MOLECULE
ZYM
   44    45     1     0     0
SMALL
bcc


@<TRIPOS>ATOM
      1 OAA         3.0060   -1.7480   -0.4390 o         1 ZYM     -0.450000
      2 OAB         4.3680   -2.0770    4.2400 o         1 ZYM     -0.588100
      3 OAC         4.4390   -0.3450   -1.3100 oh        1 ZYM     -0.555100
      4 OAD         5.0320    0.5930    1.2150 o         1 ZYM     -0.512100
      5 CAE         3.5180   -0.9640    2.3020 c3        1 ZYM     -0.261400
      6 CAF        12.2080   -4.5990    8.3470 ca        1 ZYM     -0.148000
      7 CAG        11.8240   -3.3450    8.8210 ca        1 ZYM     -0.108500
      8 CAH        12.6730   -4.7420    7.0390 ca        1 ZYM     -0.108500
      9 CAI        11.2710    2.0730    5.5050 ca        1 ZYM     -0.107000
     10 CAJ         9.9080    1.8800    5.7260 ca        1 ZYM     -0.150000
     11 CAK        11.9030   -2.2250    7.9950 ca        1 ZYM     -0.155500
     12 CAL        12.7550   -3.6390    6.1940 ca        1 ZYM     -0.155500
     13 CAM        12.1590    1.0030    5.5770 ca        1 ZYM     -0.144000
     14 CAN        10.2880   -0.4810    6.0910 ca        1 ZYM     -0.171000
     15 CAO         7.1830    0.3530    4.9540 c3        1 ZYM     -0.104400
     16 CAP         5.6880    0.1990    5.2430 c3        1 ZYM      0.077000
     17 CAQ         7.9540    0.4060    6.2580 c3        1 ZYM     -0.035100
     18 NAR         4.8500    0.1700    4.0730 n         1 ZYM     -0.548900
     19 OAS        12.5820   -1.3090    5.8220 os        1 ZYM     -0.250200
     20 CAT         3.8320   -0.8680   -0.2140 c         1 ZYM      0.530100
     21 CAU         4.3100   -1.0100    3.6000 c         1 ZYM      0.657100
     22 CAV         4.2140   -0.3280    1.1500 c         1 ZYM      0.502100
     23 CAW         9.4110    0.6050    6.0200 ca        1 ZYM     -0.056300
     24 CAX        12.3700   -2.3810    6.6840 ca        1 ZYM      0.102100
     25 CAY        11.6530   -0.2730    5.8680 ca        1 ZYM      0.110100
     26 HAE         2.5580   -0.4030    2.4860 hc        1 ZYM      0.124200
     27 HAEA        3.2370   -2.0230    2.0350 hc        1 ZYM      0.124200
     28 HAI        11.6510    3.0790    5.2740 ha        1 ZYM      0.136000
     29 HAJ         9.2160    2.7330    5.6710 ha        1 ZYM      0.133000
     30 HAK        11.6050   -1.2310    8.3590 ha        1 ZYM      0.148500
     31 HAL        13.1230   -3.7340    5.1620 ha        1 ZYM      0.148500
     32 HAM        13.2360    1.1390    5.4020 ha        1 ZYM      0.151000
     33 HAN         9.9150   -1.4910    6.3200 ha        1 ZYM      0.151000
     34 HAO         7.5470   -0.5090    4.3370 hc        1 ZYM      0.052700
     35 HAOA        7.3720    1.2910    4.3680 hc        1 ZYM      0.052700
     36 HAP         5.3490    1.0720    5.8730 h1        1 ZYM      0.065700
     37 HAPA        5.5230   -0.7470    5.8350 h1        1 ZYM      0.065700
     38 HAQ         7.5630    1.2490    6.8910 hc        1 ZYM      0.052200
     39 HAQA        7.7840   -0.5450    6.8300 hc        1 ZYM      0.052200
     40 HNAR        5.0770    0.3390   -1.0420 ho        1 ZYM      0.450000
     41 HAF        12.1430   -5.4780    9.0050 ha        1 ZYM      0.135000
     42 HAG        11.4600   -3.2340    9.8530 ha        1 ZYM      0.135500
     43 HAR2        4.9680    0.9200    3.4280 hn        1 ZYM      0.318500
     44 HAH        12.9760   -5.7330    6.6680 ha        1 ZYM      0.135500
@<TRIPOS>BOND
     1    1   20 2   
     2    2   21 2   
     3    3   20 1   
     4    3   40 1   
     5    4   22 2   
     6    5   21 1   
     7    5   22 1   
     8    5   26 1   
     9    5   27 1   
    10    6    7 ar  
    11    6    8 ar  
    12    6   41 1   
    13    7   11 ar  
    14    7   42 1   
    15    8   12 ar  
    16    8   44 1   
    17    9   10 ar  
    18    9   13 ar  
    19    9   28 1   
    20   10   23 ar  
    21   10   29 1   
    22   11   24 ar  
    23   11   30 1   
    24   12   24 ar  
    25   12   31 1   
    26   13   25 ar  
    27   13   32 1   
    28   14   23 ar  
    29   14   25 ar  
    30   14   33 1   
    31   15   16 1   
    32   15   17 1   
    33   15   34 1   
    34   15   35 1   
    35   16   18 1   
    36   16   36 1   
    37   16   37 1   
    38   17   23 1   
    39   17   38 1   
    40   17   39 1   
    41   18   21 1   
    42   18   43 1   
    43   19   24 1   
    44   19   25 1   
    45   20   22 1   
@<TRIPOS>SUBSTRUCTURE
     1 ZYM         1 TEMP              0 ****  ****    0 ROOT
