@<TRIPOS>MOLECULE
ZYM
   44    45     1     0     0
SMALL
bcc


@<TRIPOS>ATOM
      1 OAA         2.4170    0.5570   -0.4270 o         1 ZYM     -0.450000
      2 OAB         4.1410    1.8800    3.9500 o         1 ZYM     -0.589100
      3 OAC         3.8960   -0.8710   -1.1720 oh        1 ZYM     -0.555100
      4 OAD         4.8130   -1.2430    1.4020 o         1 ZYM     -0.512100
      5 CAE         3.2430    0.3550    2.3420 c3        1 ZYM     -0.261400
      6 CAF        12.4040   -4.2190    9.1670 ca        1 ZYM     -0.150000
      7 CAG        12.0700   -2.8700    9.2760 ca        1 ZYM     -0.108500
      8 CAH        12.7730   -4.7520    7.9300 ca        1 ZYM     -0.108500
      9 CAI        11.4130    1.4170    4.6350 ca        1 ZYM     -0.107000
     10 CAJ        10.0640    1.3610    4.9820 ca        1 ZYM     -0.146000
     11 CAK        12.1010   -2.0430    8.1540 ca        1 ZYM     -0.158000
     12 CAL        12.8050   -3.9460    6.7950 ca        1 ZYM     -0.158000
     13 CAM        12.2680    0.3610    4.9380 ca        1 ZYM     -0.143000
     14 CAN        10.3900   -0.8360    5.9430 ca        1 ZYM     -0.170000
     15 CAO         7.2270   -0.0440    4.7920 c3        1 ZYM     -0.105400
     16 CAP         5.7560   -0.0500    5.2110 c3        1 ZYM      0.077000
     17 CAQ         8.1050    0.1850    6.0080 c3        1 ZYM     -0.035100
     18 NAR         4.8260   -0.3110    4.1440 ns        1 ZYM     -0.547900
     19 OAS        12.6260   -1.8250    5.7660 os        1 ZYM     -0.250200
     20 CAT         3.3430   -0.1950   -0.1330 c         1 ZYM      0.530100
     21 CAU         4.1350    0.7100    3.5230 c         1 ZYM      0.657100
     22 CAV         3.8980   -0.4270    1.2580 c         1 ZYM      0.502100
     23 CAW         9.5460    0.2360    5.6360 ca        1 ZYM     -0.057300
     24 CAX        12.4690   -2.5890    6.9190 ca        1 ZYM      0.105100
     25 CAY        11.7420   -0.7640    5.5910 ca        1 ZYM      0.107100
     26 HAE         2.8370    1.3180    1.9180 hc        1 ZYM      0.124200
     27 HAEA        2.3630   -0.2380    2.7200 hc        1 ZYM      0.124200
     28 HAI        11.8090    2.3060    4.1210 ha        1 ZYM      0.137000
     29 HAJ         9.3990    2.2030    4.7420 ha        1 ZYM      0.137000
     30 HAK        11.8400   -0.9770    8.2310 ha        1 ZYM      0.149000
     31 HAL        13.0970   -4.3490    5.8150 ha        1 ZYM      0.149000
     32 HAM        13.3330    0.3900    4.6680 ha        1 ZYM      0.151000
     33 HAN        10.0030   -1.7280    6.4580 ha        1 ZYM      0.148000
     34 HAO         7.4980   -1.0190    4.3090 hc        1 ZYM      0.052700
     35 HAOA        7.4100    0.7670    4.0400 hc        1 ZYM      0.052700
     36 HAP         5.5020    0.9450    5.6780 h1        1 ZYM      0.065700
     37 HAPA        5.6030   -0.8530    5.9890 h1        1 ZYM      0.065700
     38 HAQ         7.8160    1.1540    6.4990 hc        1 ZYM      0.052200
     39 HAQA        7.9280   -0.6330    6.7560 hc        1 ZYM      0.052200
     40 HNAR        4.9680   -1.1550    3.6330 hn        1 ZYM      0.318500
     41 HAF        12.3800   -4.8650   10.0560 ha        1 ZYM      0.134000
     42 HAG        11.7830   -2.4500   10.2520 ha        1 ZYM      0.135000
     43 HAR2        4.6200   -1.4370   -0.8530 ho        1 ZYM      0.450000
     44 HAH        13.0380   -5.8170    7.8480 ha        1 ZYM      0.135000
@<TRIPOS>BOND
     1    1   20 2   
     2    2   21 2   
     3    3   20 1   
     4    3   43 1   
     5    4   22 2   
     6    5   21 1   
     7    5   22 1   
     8    5   26 1   
     9    5   27 1   
    10    6    7 ar  
    11    6    8 ar  
    12    6   41 1   
    13    7   11 ar  
    14    7   42 1   
    15    8   12 ar  
    16    8   44 1   
    17    9   10 ar  
    18    9   13 ar  
    19    9   28 1   
    20   10   23 ar  
    21   10   29 1   
    22   11   24 ar  
    23   11   30 1   
    24   12   24 ar  
    25   12   31 1   
    26   13   25 ar  
    27   13   32 1   
    28   14   23 ar  
    29   14   25 ar  
    30   14   33 1   
    31   15   16 1   
    32   15   17 1   
    33   15   34 1   
    34   15   35 1   
    35   16   18 1   
    36   16   36 1   
    37   16   37 1   
    38   17   23 1   
    39   17   38 1   
    40   17   39 1   
    41   18   21 1   
    42   18   40 1   
    43   19   24 1   
    44   19   25 1   
    45   20   22 1   
@<TRIPOS>SUBSTRUCTURE
     1 ZYM         1 TEMP              0 ****  ****    0 ROOT
