@<TRIPOS>MOLECULE
ZYM
   43    44     1     0     0
SMALL
bcc


@<TRIPOS>ATOM
      1 OAA        -7.8620    1.6430    0.5260 o         1 ZYM     -0.801800
      2 OAB        -4.0640   -1.2150   -2.0620 o         1 ZYM     -0.657100
      3 OAC        -7.1280    0.4260    2.2690 o         1 ZYM     -0.801800
      4 OAD        -4.6910    1.7720    0.6580 o         1 ZYM     -0.599100
      5 CAE        -5.3980   -0.3490   -0.2570 c3        1 ZYM     -0.274400
      6 CAF         6.9090    2.4570   -1.1390 ca        1 ZYM     -0.157000
      7 CAG         6.2970    1.3400   -1.7070 ca        1 ZYM     -0.107000
      8 CAH         6.8880    2.6370    0.2450 ca        1 ZYM     -0.107000
      9 CAI         2.9260   -3.2270    1.0440 ca        1 ZYM     -0.112000
     10 CAJ         1.8710   -2.7040    0.3010 ca        1 ZYM     -0.142000
     11 CAK         5.6620    0.3960   -0.9020 ca        1 ZYM     -0.162000
     12 CAL         6.2550    1.7110    1.0690 ca        1 ZYM     -0.162000
     13 CAM         4.0290   -2.4370    1.3640 ca        1 ZYM     -0.148000
     14 CAN         2.9890   -0.5630    0.1900 ca        1 ZYM     -0.167000
     15 CAO        -0.5190   -0.7460   -0.1400 c3        1 ZYM     -0.090400
     16 CAP        -1.6530   -0.2560   -1.0460 c3        1 ZYM      0.088000
     17 CAQ         0.7680   -0.8260   -0.9380 c3        1 ZYM     -0.041100
     18 NAR        -2.9180   -0.1730   -0.3740 n         1 ZYM     -0.561900
     19 OAS         5.1180   -0.3340    1.3810 os        1 ZYM     -0.253200
     20 CAT        -6.9810    1.0200    1.1690 c         1 ZYM      0.860600
     21 CAU        -4.0910   -0.5890   -0.9780 c         1 ZYM      0.668100
     22 CAV        -5.5800    0.9220    0.5290 c         1 ZYM      0.471100
     23 CAW         1.8940   -1.3710   -0.1310 ca        1 ZYM     -0.045300
     24 CAX         5.6460    0.5880    0.4850 ca        1 ZYM      0.114100
     25 CAY         4.0440   -1.1030    0.9320 ca        1 ZYM      0.097100
     26 HAE        -6.2210   -0.3900   -1.0230 hc        1 ZYM      0.102700
     27 HAEA       -5.5590   -1.2020    0.4600 hc        1 ZYM      0.102700
     28 HAH         7.3690    3.5200    0.6920 ha        1 ZYM      0.131500
     29 HAI         2.8930   -4.2730    1.3830 ha        1 ZYM      0.132000
     30 HAJ         1.0060   -3.3380    0.0510 ha        1 ZYM      0.141000
     31 HAK         5.1750   -0.4850   -1.3430 ha        1 ZYM      0.149500
     32 HAL         6.2280    1.8390    2.1600 ha        1 ZYM      0.149500
     33 HAM         4.8670   -2.8330    1.9530 ha        1 ZYM      0.144000
     34 HAN         3.0260    0.4880   -0.1330 ha        1 ZYM      0.149000
     35 HAO        -0.3860   -0.0480    0.7260 hc        1 ZYM      0.051200
     36 HAOA       -0.7690   -1.7560    0.2770 hc        1 ZYM      0.051200
     37 HAP        -1.3650    0.7590   -1.4510 h1        1 ZYM      0.045200
     38 HAPA       -1.7510   -0.9580   -1.9240 h1        1 ZYM      0.045200
     39 HAQ         0.6100   -1.4880   -1.8330 hc        1 ZYM      0.050200
     40 HAQA        1.0300    0.1960   -1.3250 hc        1 ZYM      0.050200
     41 HNAR       -2.9890    0.4900    0.3680 hn        1 ZYM      0.333500
     42 HAF         7.4070    3.1970   -1.7810 ha        1 ZYM      0.130000
     43 HAG         6.3130    1.1990   -2.7980 ha        1 ZYM      0.131500
@<TRIPOS>BOND
     1    1   20 1   
     2    2   21 2   
     3    3   20 1   
     4    4   22 2   
     5    5   21 1   
     6    5   22 1   
     7    5   26 1   
     8    5   27 1   
     9    6    7 ar  
    10    6    8 ar  
    11    6   42 1   
    12    7   11 ar  
    13    7   43 1   
    14    8   12 ar  
    15    8   28 1   
    16    9   10 ar  
    17    9   13 ar  
    18    9   29 1   
    19   10   23 ar  
    20   10   30 1   
    21   11   24 ar  
    22   11   31 1   
    23   12   24 ar  
    24   12   32 1   
    25   13   25 ar  
    26   13   33 1   
    27   14   23 ar  
    28   14   25 ar  
    29   14   34 1   
    30   15   16 1   
    31   15   17 1   
    32   15   35 1   
    33   15   36 1   
    34   16   18 1   
    35   16   37 1   
    36   16   38 1   
    37   17   23 1   
    38   17   39 1   
    39   17   40 1   
    40   18   21 1   
    41   18   41 1   
    42   19   24 1   
    43   19   25 1   
    44   20   22 1   
@<TRIPOS>SUBSTRUCTURE
     1 ZYM         1 TEMP              0 ****  ****    0 ROOT
