@<TRIPOS>MOLECULE
ZYN
   53    55     1     0     0
SMALL
bcc


@<TRIPOS>ATOM
      1 CAA         5.9030    1.3360    0.4640 c3        1 ZYN     -0.114600
      2 CAB         4.6500    1.3570    2.6220 c3        1 ZYN     -0.114600
      3 CAC         4.8020   -3.6130   -0.2390 c3        1 ZYN      0.074300
      4 CAD         4.4510   -1.7090   -1.7440 c3        1 ZYN      0.074300
      5 OAE         3.2110   -2.2700    1.5980 o         1 ZYN     -0.582100
      6 OAF        -0.8590    1.9190   -1.9810 o         1 ZYN     -0.616500
      7 OAG         3.4710    3.0910    0.4880 o         1 ZYN     -0.650500
      8 OAH         1.0160    3.2460   -0.6920 oh        1 ZYN     -0.443100
      9 CAK        -4.7400    1.5600    0.3450 ca        1 ZYN     -0.160000
     10 CAL        -3.7160    1.2680   -0.5460 ca        1 ZYN     -0.085000
     11 CAM        -4.4340   -1.0400   -0.6430 ca        1 ZYN     -0.096000
     12 CAN         0.8270   -1.6420   -0.7560 c3        1 ZYN     -0.046200
     13 CAO        -0.6890   -1.4430   -0.7280 c3        1 ZYN      0.099000
     14 CAP        -2.4660   -0.3220   -2.0360 c3        1 ZYN      0.142300
     15 CAQ         3.4090   -1.7360    0.4910 c         1 ZYN      0.669300
     16 CAR        -0.4100    0.8900   -1.4410 c         1 ZYN      0.718700
     17 CAS        -5.6310    0.5470    0.7530 ca        1 ZYN      0.137900
     18 CAT        -3.5580   -0.0320   -1.0430 ca        1 ZYN     -0.127300
     19 CAU        -5.4730   -0.7630    0.2510 ca        1 ZYN     -0.028600
     20 CAV         1.5680    2.0280   -0.4390 cc        1 ZYN      0.093900
     21 CAW         1.5430   -0.3810   -0.4310 cd        1 ZYN     -0.091200
     22 CAX         0.9120    0.8680   -0.7590 cd        1 ZYN     -0.137200
     23 CAY         2.7850   -0.3970    0.1630 cc        1 ZYN     -0.034600
     24 CAZ         2.9010    2.0090    0.2190 c         1 ZYN      0.649700
     25 CBA         4.7440    0.7090    1.2400 c3        1 ZYN      0.106700
     26 NBB         4.1570   -2.3530   -0.4950 n         1 ZYN     -0.470800
     27 NBC        -1.1240   -0.3080   -1.5050 n         1 ZYN     -0.469800
     28 NBD         3.4750    0.7670    0.4980 n         1 ZYN     -0.304000
     29 HAA         6.8410    1.1900    1.0520 hc        1 ZYN      0.055367
     30 HAAA        6.0280    0.8530   -0.5350 hc        1 ZYN      0.055367
     31 HAAB        5.7360    2.4320    0.3180 hc        1 ZYN      0.055367
     32 HAB         4.4560    2.4540    2.5350 hc        1 ZYN      0.055367
     33 HABA        3.8380    0.8900    3.2280 hc        1 ZYN      0.055367
     34 HABB        5.6230    1.2050    3.1490 hc        1 ZYN      0.055367
     35 HAC         5.9170   -3.4940   -0.3050 h1        1 ZYN      0.049533
     36 HACA        4.5330   -3.9900    0.7840 h1        1 ZYN      0.049533
     37 HACB        4.4730   -4.3660   -1.0050 h1        1 ZYN      0.049533
     38 HAD         3.5720   -1.1040   -2.0910 h1        1 ZYN      0.049533
     39 HADA        5.3410   -1.0300   -1.6410 h1        1 ZYN      0.049533
     40 HADB        4.6810   -2.4870   -2.5200 h1        1 ZYN      0.049533
     41 HOAH        1.6530    3.9340   -0.4140 ho        1 ZYN      0.450000
     42 HAK        -4.8710    2.5780    0.7400 ha        1 ZYN      0.156000
     43 HAL        -3.0180    2.0600   -0.8720 ha        1 ZYN      0.171000
     44 HAM        -4.3150   -2.0630   -1.0330 ha        1 ZYN      0.147000
     45 HAN         1.0820   -2.4470   -0.0140 hc        1 ZYN      0.069700
     46 HANA        1.1510   -1.9960   -1.7720 hc        1 ZYN      0.069700
     47 HAO        -1.1780   -2.3700   -1.1410 h1        1 ZYN      0.050700
     48 HAOA       -1.0210   -1.3280    0.3450 h1        1 ZYN      0.050700
     49 HAP        -2.6430   -1.3350   -2.5010 h1        1 ZYN      0.071700
     50 HAPA       -2.5210    0.4580   -2.8540 h1        1 ZYN      0.071700
     51 HBA         4.9930   -0.3840    1.4030 h1        1 ZYN      0.066700
     52 FAI        -6.6230    0.8540    1.6210 f         1 ZYN     -0.125900
     53 CLAJ       -6.5190   -2.0190    0.7100 cl        1 ZYN     -0.072400
@<TRIPOS>BOND
     1    1   25 1   
     2    1   29 1   
     3    1   30 1   
     4    1   31 1   
     5    2   25 1   
     6    2   32 1   
     7    2   33 1   
     8    2   34 1   
     9    3   26 1   
    10    3   35 1   
    11    3   36 1   
    12    3   37 1   
    13    4   26 1   
    14    4   38 1   
    15    4   39 1   
    16    4   40 1   
    17    5   15 2   
    18    6   16 2   
    19    7   24 2   
    20    8   20 1   
    21    8   41 1   
    22    9   10 ar  
    23    9   17 ar  
    24    9   42 1   
    25   10   18 ar  
    26   10   43 1   
    27   11   18 ar  
    28   11   19 ar  
    29   11   44 1   
    30   12   13 1   
    31   12   21 1   
    32   12   45 1   
    33   12   46 1   
    34   13   27 1   
    35   13   47 1   
    36   13   48 1   
    37   14   18 1   
    38   14   27 1   
    39   14   49 1   
    40   14   50 1   
    41   15   23 1   
    42   15   26 1   
    43   16   22 1   
    44   16   27 1   
    45   17   19 ar  
    46   17   52 1   
    47   19   53 1   
    48   20   22 2   
    49   20   24 1   
    50   21   22 1   
    51   21   23 2   
    52   23   28 1   
    53   24   28 1   
    54   25   28 1   
    55   25   51 1   
@<TRIPOS>SUBSTRUCTURE
     1 ZYN         1 TEMP              0 ****  ****    0 ROOT
