@<TRIPOS>MOLECULE
ZYN
   54    54     1     0     0
SMALL
bcc


@<TRIPOS>ATOM
      1 CAA        -0.6910    0.9010    0.1500 c3        1 ZYN     -0.278000
      2 CAB         1.4400    0.2080   -2.5250 c2        1 ZYN     -0.454000
      3 CAC         0.7410   -4.4050    0.8970 c3        1 ZYN     -0.197000
      4 CAD         0.1670   -2.0420    1.2330 c3        1 ZYN     -0.197000
      5 OAE         2.9450   -3.1930   -0.0530 o         1 ZYN     -0.141000
      6 OAF         4.2580   -1.6330    5.9730 o         1 ZYN     -0.315000
      7 OAG         3.5770    1.9090    1.5550 o         1 ZYN     -0.321000
      8 OAH         4.9050    1.4410    3.9590 oh        1 ZYN     -0.228000
      9 CAK         5.2370    1.8350    8.3280 c1        1 ZYN     -0.065000
     10 CAL         5.5300    0.8590    7.2970 c3        1 ZYN     -0.214000
     11 CAM         7.6830    0.3710    8.3870 c2        1 ZYN     -0.131000
     12 CAN         3.9220   -3.3150    3.4680 c3        1 ZYN     -0.213000
     13 CAO         7.3470   -0.1890    4.8280 cx        1 ZYN     -0.109000
     14 CAP         7.2500   -0.7260    6.2390 cx        1 ZYN     -0.018000
     15 CAQ         2.5280   -2.6670    0.9610 c2        1 ZYN      0.322000
     16 CAR         4.9960   -1.2070    5.0680 c2        1 ZYN      0.348000
     17 CAS         6.1770    2.0220    9.3950 c2        1 ZYN      0.016000
     18 CAT         6.8400    0.1690    7.3410 c2        1 ZYN     -0.088000
     19 CAU         7.3580    1.2980    9.4430 c2        1 ZYN     -0.032000
     20 CAV         4.3370    0.4180    3.2660 c2        1 ZYN      0.087000
     21 CAW         3.8040   -1.9290    2.9670 c2        1 ZYN      0.007000
     22 CAX         4.4020   -0.8660    3.7330 c2        1 ZYN     -0.139000
     23 CAY         3.1550   -1.6090    1.7940 c2        1 ZYN     -0.105000
     24 CAZ         3.6450    0.7450    1.9900 c2        1 ZYN      0.294000
     25 CBA         1.5570   -0.2820   -1.3320 c1        1 ZYN      0.026000
     26 NBB         1.1660   -3.1140    1.4900 n4        1 ZYN     -0.068000
     27 NBC         6.3790   -1.1980    5.1770 n         1 ZYN     -0.269000
     28 NBD         3.0440   -0.3090    1.3120 n         1 ZYN     -0.274000
     29 HAA        -0.8190    0.4790   -0.8720 hc        1 ZYN      0.071750
     30 HAAA        0.3890    0.8970    0.4240 hc        1 ZYN      0.071750
     31 HAAB       -1.2620    0.2860    0.8790 hc        1 ZYN      0.071750
     32 HAB         0.7520    1.0270   -2.8070 ha        1 ZYN      0.223000
     33 HABA       -1.0730    1.9460    0.1690 hc        1 ZYN      0.071750
     34 HABB        2.0350   -0.1420   -3.3910 ha        1 ZYN      0.223000
     35 HAC         1.5290   -5.1800    1.0980 hx        1 ZYN      0.150333
     36 HACA        0.6180   -4.2860   -0.2130 hx        1 ZYN      0.150333
     37 HACB       -0.2340   -4.7220    1.3560 hx        1 ZYN      0.150333
     38 HAD         1.2640   -3.2340    2.5090 hn        1 ZYN      0.256000
     39 HADA        0.2580   -1.6850    0.1660 hx        1 ZYN      0.150333
     40 HADB        0.3640   -1.1750    1.9210 hx        1 ZYN      0.150333
     41 HOAH        4.6920    2.2850    3.5100 ho        1 ZYN      0.277000
     42 HAK         5.3710    1.3550    6.2920 hc        1 ZYN      0.182500
     43 HAL         4.6970    0.0850    7.3950 hc        1 ZYN      0.182500
     44 HAM         8.6500   -0.1570    8.4550 ha        1 ZYN      0.158000
     45 HAN         3.4020   -3.4100    4.4590 hc        1 ZYN      0.115333
     46 HANA        8.1640   -0.5210    4.1510 h1        1 ZYN      0.139000
     47 HAO         5.0040   -3.5640    3.6360 hc        1 ZYN      0.115333
     48 HAOA        3.5040   -4.0650    2.7530 hc        1 ZYN      0.115333
     49 HAP         7.0140    0.8520    4.6150 h1        1 ZYN      0.139000
     50 HAPA        7.9770   -1.5080    6.5770 h1        1 ZYN      0.161000
     51 HBA         2.6080   -0.1430    0.4140 hn        1 ZYN      0.297000
     52 CLAJ        8.4840    1.4470   10.6910 cl        1 ZYN      0.052000
     53 HBB1       -0.8660   -2.4410    1.4160 hx        1 ZYN      0.150333
     54 FAI         5.8670    2.9260   10.3510 f         1 ZYN     -0.068000
@<TRIPOS>BOND
     1    1   29 1   
     2    1   30 1   
     3    1   31 1   
     4    1   33 1   
     5    2   25 1   
     6    2   32 1   
     7    2   34 1   
     8    3   26 1   
     9    3   35 1   
    10    3   36 1   
    11    3   37 1   
    12    4   26 1   
    13    4   39 1   
    14    4   40 1   
    15    4   53 1   
    16    5   15 1   
    17    6   16 1   
    18    7   24 1   
    19    8   20 1   
    20    8   41 1   
    21    9   10 1   
    22    9   17 1   
    23   10   18 1   
    24   10   42 1   
    25   10   43 1   
    26   11   18 1   
    27   11   19 1   
    28   11   44 1   
    29   12   21 1   
    30   12   45 1   
    31   12   47 1   
    32   12   48 1   
    33   13   14 1   
    34   13   27 1   
    35   13   46 1   
    36   13   49 1   
    37   14   18 1   
    38   14   27 1   
    39   14   50 1   
    40   15   23 1   
    41   15   26 1   
    42   16   22 1   
    43   16   27 1   
    44   17   19 1   
    45   17   54 1   
    46   19   52 1   
    47   20   22 1   
    48   20   24 1   
    49   21   22 1   
    50   21   23 1   
    51   23   28 1   
    52   24   28 1   
    53   26   38 1   
    54   28   51 1   
@<TRIPOS>SUBSTRUCTURE
     1 ZYN         1 TEMP              0 ****  ****    0 ROOT
