@<TRIPOS>MOLECULE
ZYO
   60    59     1     0     0
SMALL
bcc


@<TRIPOS>ATOM
      1 NE          0.8050   -0.8300    0.0430 n3        1 ZYO     -0.615000
      2 NF         -2.3590    0.8410    7.2550 n         1 ZYO     -0.209000
      3 NG          1.1660    0.3720    2.2410 nh        1 ZYO     -0.733000
      4 NH          2.8580    3.3540    3.2940 n         1 ZYO     -0.215000
      5 NI         -0.0010    0.9410    5.1100 na        1 ZYO     -0.062000
      6 CAA        -5.9810   -1.5810    6.5820 c1        1 ZYO      0.123000
      7 CAB         0.3600   -1.5260    5.3160 c3        1 ZYO     -0.239000
      8 CAC         0.4200   -1.2600   -1.1700 c1        1 ZYO      0.111000
      9 OAF        -1.2050    0.0800    1.4020 o         1 ZYO     -0.880000
     10 OAG         0.1590    1.6810    0.2560 o         1 ZYO     -0.880000
     11 CAK         1.4310    6.1020    0.0730 ca        1 ZYO     -0.163000
     12 CAL         2.1540    5.1170    0.7340 ca        1 ZYO     -0.080000
     13 CAM         2.8150    6.7170    2.4250 ca        1 ZYO     -0.077000
     14 CAN        -6.0080   -0.3550    6.1550 c2        1 ZYO     -0.573000
     15 CAO         1.8720   -1.4030    0.6990 c1        1 ZYO      0.168000
     16 CAP         2.1160   -0.7090    2.0320 c3        1 ZYO     -0.180000
     17 CAQ         3.6700    4.3740    2.6000 c3        1 ZYO      0.029000
     18 CAR        -3.1200    1.0940    6.2260 c1        1 ZYO     -0.139000
     19 NAS         2.4150    2.3490    2.5800 n2        1 ZYO      0.013000
     20 CAT        -1.0010    1.2380    7.4920 c2        1 ZYO      0.321000
     21 CAU         1.4000    7.4160    0.5790 ca        1 ZYO      0.113000
     22 CAV         2.8540    5.4210    1.9060 ca        1 ZYO     -0.132000
     23 CAW         2.0990    7.7220    1.7680 ca        1 ZYO     -0.109000
     24 CAX         0.8210    2.6350    6.4510 c2        1 ZYO      0.188000
     25 CAY         1.5330    1.4560    3.0600 c2        1 ZYO     -0.006000
     26 CAZ        -0.1040    1.5600    6.3850 c2        1 ZYO     -0.271000
     27 CBA         2.4550    3.6350    4.6600 c2        1 ZYO      0.368000
     28 CBB         1.4880    2.7000    5.1870 c2        1 ZYO     -0.240000
     29 CBC         0.9850    1.6080    4.4080 c2        1 ZYO      0.071000
     30 CBD        -0.5070   -0.3810    4.8150 c3        1 ZYO     -0.042000
     31 SBJ         0.0840    0.4740    0.9810 s6        1 ZYO      2.546000
     32 HAA        -6.8800    0.1960    5.7790 ha        1 ZYO      0.215500
     33 HAAA       -0.2110   -1.7050    8.7730 ha        1 ZYO      0.002333
     34 HAAB       -0.4850   -1.1080    8.6080 ha        1 ZYO      0.002333
     35 HAB         1.3970   -1.4640    4.9070 hc        1 ZYO      0.093667
     36 HABA        0.4200   -1.5280    6.4320 hc        1 ZYO      0.093667
     37 HABB       -0.1010   -2.4880    4.9820 hc        1 ZYO      0.093667
     38 HAC         1.2170   -3.6990    1.2690 ha        1 ZYO      0.002333
     39 HACA       -0.4460   -0.6880   -1.5860 ha        1 ZYO      0.046000
     40 HACB        0.9280   -3.3800    1.7940 ha        1 ZYO      0.002333
     41 HOAH        0.5820    3.1630    8.2560 ho        1 ZYO      0.255000
     42 HAK         0.8720    5.8650   -0.8460 ha        1 ZYO      0.161000
     43 HAL         2.1610    4.0900    0.3310 ha        1 ZYO      0.159000
     44 HAM         3.3450    6.9490    3.3650 ha        1 ZYO      0.164000
     45 HAN        -5.0740    0.2650    6.1360 ha        1 ZYO      0.215500
     46 HANA       -2.7780    0.3840    8.0480 hn        1 ZYO      0.261000
     47 HAO         0.3230    3.6860   -0.9890 ha        1 ZYO      0.002333
     48 HAOA       -0.1160    3.3560   -1.3860 ha        1 ZYO      0.002333
     49 HAP         3.1870   -0.3520    2.0340 h1        1 ZYO      0.157500
     50 HAPA        2.0180   -1.4820    2.8500 h1        1 ZYO      0.157500
     51 HAQ         4.3210    4.8440    3.3930 h1        1 ZYO      0.129000
     52 HAQA        4.3350    3.8630    1.8460 h1        1 ZYO      0.129000
     53 HAR        -2.6950    1.6570    5.3720 ha        1 ZYO      0.080000
     54 HARA       -1.5320   -0.4810    5.2720 h1        1 ZYO      0.122500
     55 HBD        -0.6540   -0.4640    3.7000 h1        1 ZYO      0.122500
     56 OAD        -0.6250    1.3740    8.6700 o         1 ZYO     -0.316000
     57 OAE         2.9640    4.5960    5.2490 o         1 ZYO     -0.298000
     58 OAH         1.0470    3.4940    7.4640 oh        1 ZYO     -0.191000
     59 FAI         0.6950    8.3600   -0.0850 f         1 ZYO     -0.088000
     60 CLAJ        2.0870    9.2860    2.4230 cl        1 ZYO      0.016000
@<TRIPOS>BOND
     1    1    8 1   
     2    1   15 1   
     3    1   31 1   
     4    2   18 1   
     5    2   20 1   
     6    2   46 1   
     7    3   16 1   
     8    3   25 1   
     9    3   31 1   
    10    4   17 1   
    11    4   19 1   
    12    4   27 1   
    13    5   26 1   
    14    5   29 1   
    15    5   30 1   
    16    6   14 1   
    17    7   30 1   
    18    7   35 1   
    19    7   36 1   
    20    7   37 1   
    21    8   39 1   
    22    9   31 1   
    23   10   31 1   
    24   11   12 1   
    25   11   21 1   
    26   11   42 1   
    27   12   22 1   
    28   12   43 1   
    29   13   22 1   
    30   13   23 1   
    31   13   44 1   
    32   14   32 1   
    33   14   45 1   
    34   15   16 1   
    35   16   49 1   
    36   16   50 1   
    37   17   22 1   
    38   17   51 1   
    39   17   52 1   
    40   18   53 1   
    41   19   25 1   
    42   20   26 1   
    43   20   56 1   
    44   21   23 1   
    45   21   59 1   
    46   23   60 1   
    47   24   26 1   
    48   24   28 1   
    49   24   58 1   
    50   25   29 1   
    51   27   28 1   
    52   27   57 1   
    53   28   29 1   
    54   30   54 1   
    55   30   55 1   
    56   33   34 1   
    57   38   40 1   
    58   41   58 1   
    59   47   48 1   
@<TRIPOS>SUBSTRUCTURE
     1 ZYO         1 TEMP              0 ****  ****    0 ROOT
