@<TRIPOS>MOLECULE
ZYO
   60    59     1     0     0
SMALL
bcc


@<TRIPOS>ATOM
      1 NE          0.1180   -0.6110    0.5300 n3        1 ZYO     -0.613000
      2 NF         -2.4180    1.0750    7.1810 ns        1 ZYO     -0.222000
      3 NG          0.7120    0.7730    2.5610 nh        1 ZYO     -0.738000
      4 NH          2.7790    3.5850    3.4400 n         1 ZYO     -0.219000
      5 NI         -0.3860    1.6880    5.2990 na        1 ZYO     -0.079000
      6 CAA        -5.5180   -2.3320    5.3210 c1        1 ZYO      0.155000
      7 CAB         0.7190   -2.7810    5.2660 c3        1 ZYO     -0.278000
      8 CAC        -0.3670   -1.1260   -0.6120 c1        1 ZYO      0.111000
      9 OAF        -1.6830    0.8070    1.7560 o         1 ZYO     -0.882500
     10 OAG        -0.0790    1.9790    0.4190 o         1 ZYO     -0.882500
     11 CAK         1.9970    6.1590   -0.1480 ca        1 ZYO     -0.163000
     12 CAL         2.5410    5.1610    0.6500 ca        1 ZYO     -0.079000
     13 CAM         3.1830    6.8120    2.3000 ca        1 ZYO     -0.076000
     14 CAN        -4.3810   -2.2870    5.9510 c2        1 ZYO     -0.581000
     15 CAO         1.0990   -1.2620    1.2470 c1        1 ZYO      0.169000
     16 CAP         1.4790   -0.4600    2.4850 c3        1 ZYO     -0.181000
     17 CAQ         3.7650    4.4150    2.7170 c3        1 ZYO      0.029000
     18 CAR        -2.3230    0.3360    6.0940 c1        1 ZYO     -0.063000
     19 NAS         2.2430    2.5840    2.7830 n2        1 ZYO      0.021000
     20 CAT        -1.5460    2.1770    7.4820 c2        1 ZYO      0.344000
     21 CAU         2.0490    7.5040    0.2670 ca        1 ZYO      0.113000
     22 CAV         3.1430    5.4840    1.8710 ca        1 ZYO     -0.132000
     23 CAW         2.6480    7.8290    1.5040 ca        1 ZYO     -0.109000
     24 CAX         0.4720    3.4630    6.5010 c2        1 ZYO      0.210000
     25 CAY         1.2280    1.8650    3.2840 c2        1 ZYO     -0.009000
     26 CAZ        -0.5210    2.4490    6.4910 c2        1 ZYO     -0.285000
     27 CBA         2.3330    4.0640    4.7390 c2        1 ZYO      0.372000
     28 CBB         1.2260    3.3200    5.2930 c2        1 ZYO     -0.252000
     29 CBC         0.6520    2.2090    4.5810 c2        1 ZYO      0.074000
     30 CBD        -1.2910    0.5880    5.0390 c3        1 ZYO     -0.091000
     31 SBJ        -0.3510    0.9050    1.2900 s6        1 ZYO      2.546000
     32 HAA        -3.9550   -3.0920    6.5650 ha        1 ZYO      0.207000
     33 HAAA       -1.1300   -1.8960    6.8900 ha        1 ZYO      0.002500
     34 HAAB       -1.7970   -1.9740    6.9850 ha        1 ZYO      0.002500
     35 HAB         1.4430   -3.1890    4.5270 hc        1 ZYO      0.070500
     36 HABA        1.0890   -1.8070    5.6550 hc        1 ZYO      0.070500
     37 HABB        0.6100   -3.4950    6.1110 hc        1 ZYO      0.070500
     38 HAC         0.0320   -3.0330    2.5640 ha        1 ZYO      0.002500
     39 HACA       -1.1430   -0.4800   -1.0930 ha        1 ZYO      0.047000
     40 HACB        0.0970   -3.3740    1.9800 ha        1 ZYO      0.002500
     41 HOAH        0.0320    4.2780    8.1500 ho        1 ZYO      0.258000
     42 HAK         1.5140    5.9090   -1.1060 ha        1 ZYO      0.161000
     43 HAL         2.4850    4.1110    0.3190 ha        1 ZYO      0.156000
     44 HAM         3.6320    7.0590    3.2780 ha        1 ZYO      0.166000
     45 HAN        -3.7200   -1.3890    5.9120 ha        1 ZYO      0.207000
     46 HANA       -3.1360    0.8760    7.8510 hn        1 ZYO      0.272000
     47 HAO         0.5590    3.8340   -0.9400 ha        1 ZYO      0.002500
     48 HAOA        0.0890    3.5370   -1.3280 ha        1 ZYO      0.002500
     49 HAP         2.5920   -0.2750    2.4410 h1        1 ZYO      0.159000
     50 HAPA        1.2800   -1.1070    3.3920 h1        1 ZYO      0.159000
     51 HAQ         4.4240    4.8750    3.5090 h1        1 ZYO      0.128500
     52 HAQA        4.3990    3.7470    2.0650 h1        1 ZYO      0.128500
     53 HAR        -1.8490    0.7700    4.0660 h1        1 ZYO      0.161500
     54 HARA       -0.6940   -0.3680    4.9260 h1        1 ZYO      0.161500
     55 HBD        -0.2700   -2.6380    4.7770 hc        1 ZYO      0.070500
     56 OAD        -1.6820    2.8310    8.5280 o         1 ZYO     -0.319000
     57 OAE         2.9270    5.0170    5.2580 o         1 ZYO     -0.302000
     58 OAH         0.6980    4.3960    7.4430 oh        1 ZYO     -0.188000
     59 FAI         1.5200    8.4590   -0.5300 f         1 ZYO     -0.088000
     60 ClAJ        2.7290    9.4310    2.0540 cl        1 ZYO      0.016000
@<TRIPOS>BOND
     1    1    8 1   
     2    1   15 1   
     3    1   31 1   
     4    2   18 1   
     5    2   20 1   
     6    2   46 1   
     7    3   16 1   
     8    3   25 1   
     9    3   31 1   
    10    4   17 1   
    11    4   19 1   
    12    4   27 1   
    13    5   26 1   
    14    5   29 1   
    15    5   30 1   
    16    6   14 1   
    17    7   35 1   
    18    7   36 1   
    19    7   37 1   
    20    7   55 1   
    21    8   39 1   
    22    9   31 1   
    23   10   31 1   
    24   11   12 1   
    25   11   21 1   
    26   11   42 1   
    27   12   22 1   
    28   12   43 1   
    29   13   22 1   
    30   13   23 1   
    31   13   44 1   
    32   14   32 1   
    33   14   45 1   
    34   15   16 1   
    35   16   49 1   
    36   16   50 1   
    37   17   22 1   
    38   17   51 1   
    39   17   52 1   
    40   18   30 1   
    41   19   25 1   
    42   20   26 1   
    43   20   56 1   
    44   21   23 1   
    45   21   59 1   
    46   23   60 1   
    47   24   26 1   
    48   24   28 1   
    49   24   58 1   
    50   25   29 1   
    51   27   28 1   
    52   27   57 1   
    53   28   29 1   
    54   30   53 1   
    55   30   54 1   
    56   33   34 1   
    57   38   40 1   
    58   41   58 1   
    59   47   48 1   
@<TRIPOS>SUBSTRUCTURE
     1 ZYO         1 TEMP              0 ****  ****    0 ROOT
