@<TRIPOS>MOLECULE
ZYO
   60    64     1     0     0
SMALL
bcc


@<TRIPOS>ATOM
      1 NE        -40.0090   31.6490  -25.4090 n3        1 ZYO     -0.820500
      2 NF        -38.4290   28.4940  -18.8020 n         1 ZYO     -0.491800
      3 NG        -38.6950   31.9500  -23.3290 nh        1 ZYO     -0.709500
      4 NH        -37.6200   34.8050  -21.4190 n         1 ZYO     -0.183800
      5 NI        -38.0950   30.8040  -20.4530 na        1 ZYO      0.000900
      6 CAA       -37.7870   26.0850  -18.6590 c3        1 ZYO     -0.113100
      7 CAB       -37.4880   28.8260  -21.8320 c3        1 ZYO     -0.109100
      8 CAC       -40.9640   31.5890  -26.4620 c3        1 ZYO      0.239100
      9 OAF       -40.9310   30.7930  -23.2210 o         1 ZYO     -0.643800
     10 OAG       -40.9560   33.1260  -23.5900 o         1 ZYO     -0.643800
     11 CAK       -41.4070   37.0900  -21.8240 ca        1 ZYO     -0.160000
     12 CAL       -40.1750   36.5070  -22.0900 ca        1 ZYO     -0.078000
     13 CAM       -39.1750   37.7700  -20.2840 ca        1 ZYO     -0.080000
     14 CAN       -38.5560   27.2580  -18.0690 c3        1 ZYO      0.097000
     15 CAO       -38.6110   31.5150  -25.7330 c3        1 ZYO      0.194800
     16 CAP       -37.7790   31.6870  -24.4210 c3        1 ZYO      0.186800
     17 CAQ       -37.7060   36.2620  -21.6280 c3        1 ZYO      0.154300
     18 CAR       -39.2100   28.6500  -20.0000 c3        1 ZYO      0.095000
     19 NAS       -38.0740   34.0320  -22.3850 nc        1 ZYO     -0.422300
     20 CAT       -37.7080   29.5690  -18.2790 c         1 ZYO      0.755100
     21 CAU       -41.5360   38.0330  -20.7850 ca        1 ZYO      0.143900
     22 CAV       -39.0530   36.8480  -21.3260 ca        1 ZYO     -0.136300
     23 CAW       -40.4060   38.3730  -20.0110 ca        1 ZYO     -0.031600
     24 CAX       -37.2730   32.1000  -18.7440 cc        1 ZYO      0.213100
     25 CAY       -38.2410   32.7100  -22.2330 cd        1 ZYO      0.544800
     26 CAZ       -37.6740   30.7940  -19.0970 cd        1 ZYO     -0.222900
     27 CBA       -37.2690   34.3350  -20.1010 c         1 ZYO      0.731100
     28 CBB       -37.4550   32.9220  -19.9060 cc        1 ZYO     -0.320600
     29 CBC       -37.9590   32.0750  -20.9470 cd        1 ZYO     -0.051200
     30 CBD       -38.5760   29.5840  -21.0740 c3        1 ZYO      0.028000
     31 SBJ       -40.3020   31.9040  -23.8120 s6        1 ZYO      1.574800
     32 HAA       -37.9560   25.1890  -18.0150 hc        1 ZYO      0.040700
     33 HAAA      -38.1320   25.8490  -19.6940 hc        1 ZYO      0.040700
     34 HAAB      -36.6920   26.2990  -18.6910 hc        1 ZYO      0.040700
     35 HAB       -37.9630   27.9710  -22.3710 hc        1 ZYO      0.052033
     36 HABA      -36.9860   29.4840  -22.5810 hc        1 ZYO      0.052033
     37 HABB      -36.7140   28.4260  -21.1340 hc        1 ZYO      0.052033
     38 HAC       -41.9890   31.7780  -26.0430 h1        1 ZYO      0.044367
     39 HACA      -40.7430   32.3660  -27.2440 h1        1 ZYO      0.044367
     40 HACB      -40.9500   30.5780  -26.9520 h1        1 ZYO      0.044367
     41 HOAH      -36.6370   33.4310  -17.5740 ho        1 ZYO      0.452000
     42 HAK       -42.2940   36.8190  -22.4160 ha        1 ZYO      0.160000
     43 HAL       -40.0990   35.7640  -22.9020 ha        1 ZYO      0.166000
     44 HAM       -38.2970   38.0220  -19.6660 ha        1 ZYO      0.160000
     45 HAN       -38.1930   27.4340  -17.0140 h1        1 ZYO      0.060700
     46 HANA      -39.6510   26.9860  -18.0200 h1        1 ZYO      0.060700
     47 HAO       -38.4040   30.5040  -26.1800 h1        1 ZYO      0.059700
     48 HAOA      -38.3020   32.2960  -26.4820 h1        1 ZYO      0.059700
     49 HAP       -37.0380   32.5210  -24.5560 h1        1 ZYO      0.069700
     50 HAPA      -37.2060   30.7410  -24.2150 h1        1 ZYO      0.069700
     51 HAQ       -36.9210   36.7160  -20.9540 h1        1 ZYO      0.087200
     52 HAQA      -37.4380   36.4940  -22.6990 h1        1 ZYO      0.087200
     53 HAR       -39.3550   27.6410  -20.4800 h1        1 ZYO      0.059700
     54 HARA      -40.2280   29.0620  -19.7360 h1        1 ZYO      0.059700
     55 HBD       -39.4070   29.8570  -21.7960 h1        1 ZYO      0.109700
     56 OAD       -37.1190   29.4840  -17.1870 o         1 ZYO     -0.608500
     57 OAE       -36.8250   35.1270  -19.2500 o         1 ZYO     -0.630500
     58 OAH       -36.8230   32.4730  -17.5270 oh        1 ZYO     -0.439100
     59 FAI       -42.7450   38.5930  -20.5510 f         1 ZYO     -0.124900
     60 CLAJ      -40.5070   39.4980  -18.7450 cl        1 ZYO     -0.067400
@<TRIPOS>BOND
     1    1    8 1   
     2    1   15 1   
     3    1   31 1   
     4    2   14 1   
     5    2   18 1   
     6    2   20 1   
     7    3   16 1   
     8    3   25 1   
     9    3   31 1   
    10    4   17 1   
    11    4   19 1   
    12    4   27 1   
    13    5   26 1   
    14    5   29 1   
    15    5   30 1   
    16    6   14 1   
    17    6   32 1   
    18    6   33 1   
    19    6   34 1   
    20    7   30 1   
    21    7   35 1   
    22    7   36 1   
    23    7   37 1   
    24    8   38 1   
    25    8   39 1   
    26    8   40 1   
    27    9   31 2   
    28   10   31 2   
    29   11   12 ar  
    30   11   21 ar  
    31   11   42 1   
    32   12   22 ar  
    33   12   43 1   
    34   13   22 ar  
    35   13   23 ar  
    36   13   44 1   
    37   14   45 1   
    38   14   46 1   
    39   15   16 1   
    40   15   47 1   
    41   15   48 1   
    42   16   49 1   
    43   16   50 1   
    44   17   22 1   
    45   17   51 1   
    46   17   52 1   
    47   18   30 1   
    48   18   53 1   
    49   18   54 1   
    50   19   25 2   
    51   20   26 1   
    52   20   56 2   
    53   21   23 ar  
    54   21   59 1   
    55   23   60 1   
    56   24   26 2   
    57   24   28 1   
    58   24   58 1   
    59   25   29 1   
    60   27   28 1   
    61   27   57 2   
    62   28   29 2   
    63   30   55 1   
    64   41   58 1   
@<TRIPOS>SUBSTRUCTURE
     1 ZYO         1 TEMP              0 ****  ****    0 ROOT
