@<TRIPOS>MOLECULE
ZYP
   49    52     1     0     0
SMALL
bcc


@<TRIPOS>ATOM
      1 OAA         1.1050    3.3620   -0.8980 o         1 ZYP     -0.644100
      2 OAB        -0.3650   -1.5510    1.9800 o         1 ZYP     -0.641800
      3 OAC        -1.8600   -3.3800    1.6950 o         1 ZYP     -0.641800
      4 CAF        -5.4870    0.7450   -0.4290 ca        1 ZYP     -0.232300
      5 CAG        -5.3100    2.1480   -0.6230 ca        1 ZYP      0.413200
      6 CAH         5.7550    0.3710   -1.0770 ca        1 ZYP     -0.168000
      7 CAI         5.1010   -0.9390    0.8760 ca        1 ZYP     -0.168000
      8 CAJ         4.8230    1.3420   -0.7260 ca        1 ZYP     -0.090500
      9 CAK         4.1770    0.0450    1.2110 ca        1 ZYP     -0.090500
     10 CAL        -4.3700   -0.0430   -0.2880 ca        1 ZYP     -0.076000
     11 CAM        -1.2460   -3.1090   -1.9460 c3        1 ZYP     -0.118400
     12 CAN        -0.4550   -4.0060   -1.0160 c3        1 ZYP     -0.051400
     13 CAO        -2.3600   -2.3680   -1.2000 c3        1 ZYP      0.204800
     14 CAP         3.0500    2.2550    0.8080 c3        1 ZYP      0.127300
     15 CAQ         0.1420   -3.2350    0.1390 c3        1 ZYP     -0.319600
     16 NAR        -4.1320    2.7490   -0.6620 nb        1 ZYP     -0.619000
     17 NAS        -0.6480    0.3960   -0.2060 nb        1 ZYP     -0.653000
     18 CAU         0.8090    2.3610   -0.2040 c         1 ZYP      0.583600
     19 CAV         5.8960   -0.7750   -0.2740 ca        1 ZYP      0.129900
     20 CAW         4.0340    1.1880    0.4180 ca        1 ZYP     -0.133300
     21 CAX        -1.6830    2.5790   -0.5110 ca        1 ZYP      0.074500
     22 CAY        -0.5670    1.7560   -0.3070 ca        1 ZYP      0.251800
     23 CAZ        -1.8460   -0.1940   -0.2070 ca        1 ZYP      0.622200
     24 CBA        -3.0810    0.5560   -0.3370 ca        1 ZYP     -0.211600
     25 CBB        -3.0030    1.9710   -0.5110 ca        1 ZYP      0.389600
     26 NBC        -1.8820   -1.6070   -0.0660 nh        1 ZYP     -0.771200
     27 SBD        -1.0300   -2.4140    1.0940 s6        1 ZYP      1.450900
     28 HOAD       -0.7100    4.2180   -0.7720 ho        1 ZYP      0.467000
     29 HAF        -6.5010    0.3250   -0.3920 ha        1 ZYP      0.153000
     30 HAG        -6.1920    2.8050   -0.7470 h4        1 ZYP      0.034100
     31 HAH         6.3810    0.4890   -1.9740 ha        1 ZYP      0.150500
     32 HAI         5.2200   -1.8370    1.4980 ha        1 ZYP      0.150500
     33 HAJ         4.7070    2.2380   -1.3570 ha        1 ZYP      0.144500
     34 HAK         3.5550   -0.0780    2.1120 ha        1 ZYP      0.144500
     35 HAL        -4.4660   -1.1280   -0.1270 ha        1 ZYP      0.157000
     36 HAM        -0.5600   -2.3740   -2.4420 hc        1 ZYP      0.063700
     37 HAMA       -1.7210   -3.7280   -2.7500 hc        1 ZYP      0.063700
     38 HAN        -1.1240   -4.8150   -0.6120 hc        1 ZYP      0.060700
     39 HANA        0.3620   -4.5100   -1.5950 hc        1 ZYP      0.060700
     40 HAO        -2.8970   -1.6920   -1.9230 h1        1 ZYP      0.067200
     41 HAOA       -3.1070   -3.1220   -0.8100 h1        1 ZYP      0.067200
     42 HAP         3.1970    3.1690    0.1610 h1        1 ZYP      0.073700
     43 HAPA        3.2500    2.5480    1.8810 h1        1 ZYP      0.073700
     44 HAQ         0.7130   -3.9550    0.7860 h1        1 ZYP      0.119700
     45 HAQA        0.9110   -2.5200   -0.2590 h1        1 ZYP      0.119700
     46 HNAT        1.4410    0.9780    1.1760 hn        1 ZYP      0.337500
     47 OAD        -1.6360    3.9220   -0.6870 oh        1 ZYP     -0.458100
     48 NAT         1.6730    1.8370    0.7260 n         1 ZYP     -0.527900
     49 FAE         6.8000   -1.7270   -0.6090 f         1 ZYP     -0.140900
@<TRIPOS>BOND
     1    1   18 2   
     2    2   27 2   
     3    3   27 2   
     4    4    5 ar  
     5    4   10 ar  
     6    4   29 1   
     7    5   16 ar  
     8    5   30 1   
     9    6    8 ar  
    10    6   19 ar  
    11    6   31 1   
    12    7    9 ar  
    13    7   19 ar  
    14    7   32 1   
    15    8   20 ar  
    16    8   33 1   
    17    9   20 ar  
    18    9   34 1   
    19   10   24 ar  
    20   10   35 1   
    21   11   12 1   
    22   11   13 1   
    23   11   36 1   
    24   11   37 1   
    25   12   15 1   
    26   12   38 1   
    27   12   39 1   
    28   13   26 1   
    29   13   40 1   
    30   13   41 1   
    31   14   20 1   
    32   14   42 1   
    33   14   43 1   
    34   14   48 1   
    35   15   27 1   
    36   15   44 1   
    37   15   45 1   
    38   16   25 ar  
    39   17   22 ar  
    40   17   23 ar  
    41   18   22 1   
    42   18   48 1   
    43   19   49 1   
    44   21   22 ar  
    45   21   25 ar  
    46   21   47 1   
    47   23   24 ar  
    48   23   26 1   
    49   24   25 ar  
    50   26   27 1   
    51   28   47 1   
    52   46   48 1   
@<TRIPOS>SUBSTRUCTURE
     1 ZYP         1 TEMP              0 ****  ****    0 ROOT
