@<TRIPOS>MOLECULE
ZYP
   50    49     1     0     0
SMALL
bcc


@<TRIPOS>ATOM
      1 OAA        -0.7460    1.8720    0.1450 o         1 ZYP     -0.408000
      2 OAB         4.7200    0.2260   -0.9600 o         1 ZYP     -0.952000
      3 OAC         5.1480    2.4250   -0.2320 o         1 ZYP     -0.952000
      4 CAF         2.8350   -1.1460    5.9610 c1        1 ZYP     -0.208000
      5 CAG         1.5040   -0.7940    5.7400 c1        1 ZYP      0.034000
      6 CAH         4.7880   -1.6800   -4.2810 c1        1 ZYP      0.001000
      7 CAI         3.4600   -0.1140   -2.9860 c2        1 ZYP      0.282000
      8 CAJ         5.0500   -2.8640   -4.7160 c2        1 ZYP     -0.103000
      9 CAK         2.5980   -1.1310   -2.3830 c3        1 ZYP     -0.076000
     10 CAL         3.9030   -1.5360    6.3590 c1        1 ZYP     -0.148000
     11 CAM         8.9970   -2.3440   -0.3820 c3        1 ZYP     -0.269000
     12 CAN         6.9370    0.1270    1.7740 c2        1 ZYP     -0.201000
     13 CAO         5.7280    0.1510    2.3890 c2        1 ZYP     -0.030000
     14 CAP         0.1750   -0.2910   -1.8210 c1        1 ZYP     -0.061000
     15 CAQ         6.8970    0.6190    0.3690 c3        1 ZYP     -0.810000
     16 NAR         0.9560   -0.1680    4.7280 nu        1 ZYP     -0.125000
     17 NAS         2.5560    1.4380    1.1130 n2        1 ZYP     -0.195000
     18 CAU         0.3770    2.3370    0.4510 c2        1 ZYP      0.360000
     19 CAV         4.5310   -0.4230   -3.8670 c2        1 ZYP      0.023000
     20 CAW         1.2810   -0.6610   -2.0910 c1        1 ZYP     -0.279000
     21 CAX         0.6730    1.0540    2.6000 c2        1 ZYP      0.063000
     22 CAY         1.2510    1.5880    1.4290 c2        1 ZYP     -0.090000
     23 CAZ         3.3490    0.7590    1.9840 c2        1 ZYP      0.124000
     24 CBA         2.8660    0.2120    3.2040 c2        1 ZYP     -0.169000
     25 CBB         1.5130    0.3560    3.5310 c2        1 ZYP      0.024000
     26 NBC         4.6880    0.6250    1.5650 nh        1 ZYP     -0.689000
     27 SBD         5.2500    1.0680    0.0590 s6        1 ZYP      2.808000
     28 HOAD       -1.1580    1.4620    2.1520 ho        1 ZYP      0.273000
     29 HAF         3.5460   -0.3260    3.8840 ha        1 ZYP      0.178000
     30 HAG        -0.0380   -0.0190    4.8110 hn        1 ZYP      0.286000
     31 HAH         5.7280   -3.5610   -4.1830 ha        1 ZYP      0.214000
     32 HAI         3.1310   -1.3930   -1.3970 hc        1 ZYP      0.180000
     33 HAJ         4.6120   -3.2690   -5.6510 ha        1 ZYP      0.214000
     34 HAK         2.5600   -2.0840   -2.9870 hc        1 ZYP      0.180000
     35 HAL         4.8280   -1.8910    6.7410 ha        1 ZYP      0.231000
     36 HAM         8.7530   -3.4230   -0.2780 hc        1 ZYP      0.067500
     37 HAMA        8.6410   -1.7940    0.5190 hc        1 ZYP      0.067500
     38 HAN         7.8720   -0.2050    2.2310 ha        1 ZYP      0.186000
     39 HANA        8.4990   -1.9350   -1.2880 hc        1 ZYP      0.067500
     40 HAO        10.0980   -2.2220   -0.4790 hc        1 ZYP      0.067500
     41 HAOA        5.5160   -0.1430    3.4260 h4        1 ZYP      0.194000
     42 HAP         0.2480    4.0340   -0.6720 hn        1 ZYP      0.248500
     43 HAPA        3.2760    0.9550   -2.7420 ha        1 ZYP      0.207000
     44 HAQ         7.2760   -0.1780   -0.3260 h1        1 ZYP      0.185000
     45 HAQA        7.5990    1.4880    0.2500 h1        1 ZYP      0.185000
     46 HNAT       -0.7970    0.0650   -1.5570 ha        1 ZYP      0.263000
     47 NAT         0.8310    3.5110   -0.0620 nt        1 ZYP     -0.389000
     48 HAT2        1.7240    3.8690    0.1730 hn        1 ZYP      0.248500
     49 OAD        -0.6460    1.1770    2.9320 oh        1 ZYP     -0.247000
     50 FAE         5.3140    0.6100   -4.2910 f         1 ZYP     -0.062000
@<TRIPOS>BOND
     1    1   18 1   
     2    2   27 1   
     3    3   27 1   
     4    4    5 1   
     5    4   10 1   
     6    5   16 1   
     7    6    8 1   
     8    6   19 1   
     9    7    9 1   
    10    7   19 1   
    11    7   43 1   
    12    8   31 1   
    13    8   33 1   
    14    9   20 1   
    15    9   32 1   
    16    9   34 1   
    17   10   35 1   
    18   11   36 1   
    19   11   37 1   
    20   11   39 1   
    21   11   40 1   
    22   12   13 1   
    23   12   15 1   
    24   12   38 1   
    25   13   26 1   
    26   13   41 1   
    27   14   20 1   
    28   14   46 1   
    29   15   27 1   
    30   15   44 1   
    31   15   45 1   
    32   16   25 1   
    33   16   30 1   
    34   17   22 1   
    35   17   23 1   
    36   18   22 1   
    37   18   47 1   
    38   19   50 1   
    39   21   22 1   
    40   21   25 1   
    41   21   49 1   
    42   23   24 1   
    43   23   26 1   
    44   24   25 1   
    45   24   29 1   
    46   26   27 1   
    47   28   49 1   
    48   42   47 1   
    49   47   48 1   
@<TRIPOS>SUBSTRUCTURE
     1 ZYP         1 TEMP              0 ****  ****    0 ROOT
