@<TRIPOS>MOLECULE
ZYP
   50    48     1     0     0
SMALL
bcc


@<TRIPOS>ATOM
      1 OAA        -0.1130    0.4180   -0.2520 o         1 ZYP     -0.239000
      2 OAB         5.6950   -0.8370   -0.2600 o         1 ZYP     -0.917000
      3 OAC         5.8480    1.4830    0.1290 o         1 ZYP     -0.917000
      4 CAF         2.6910    1.1600    6.4340 c2        1 ZYP     -0.578000
      5 CAG         1.4970    0.4330    6.0880 c1        1 ZYP      0.020000
      6 CAH         3.9900   -0.5520   -3.3620 c1        1 ZYP     -0.282000
      7 CAI         3.5310    1.8050   -3.5290 c1        1 ZYP     -0.199000
      8 CAJ         4.0910   -1.6710   -2.7180 c2        1 ZYP     -0.095000
      9 CAK         3.1890    2.8750   -3.1130 c1        1 ZYP     -0.141000
     10 CAL         3.0040    1.4020    7.7020 c1        1 ZYP      0.386000
     11 CAM         8.4500   -2.8210   -0.9420 c3        1 ZYP     -0.282000
     12 CAN         7.4770   -0.2810    2.7210 c2        1 ZYP     -0.163000
     13 CAO         6.1900   -0.2590    3.1480 c2        1 ZYP     -0.056000
     14 CAP        -0.6050    0.2790   -3.3640 c1        1 ZYP     -0.229500
     15 CAQ         7.6320   -0.0330    1.2610 c3        1 ZYP     -0.822000
     16 NAR         1.1640   -0.0140    4.8930 nh        1 ZYP     -0.165000
     17 NAS         3.1790    0.1940    1.1410 n2        1 ZYP     -0.242000
     18 CAU         1.1050    0.3730   -0.0810 c2        1 ZYP      0.330000
     19 CAV         3.9980    0.5720   -4.0620 c2        1 ZYP      0.229000
     20 CAW         0.0450    0.2190   -4.3680 c1        1 ZYP     -0.229500
     21 CAX         1.0980    0.1680    2.4140 c2        1 ZYP      0.128000
     22 CAY         1.8120    0.2410    1.2030 c2        1 ZYP     -0.161000
     23 CAZ         3.8780    0.0510    2.2840 c2        1 ZYP      0.195000
     24 CBA         3.2330   -0.0320    3.5690 c2        1 ZYP     -0.152000
     25 CBB         1.8510    0.0470    3.6540 c2        1 ZYP      0.031000
     26 NBC         5.2610   -0.0020    2.1180 nh        1 ZYP     -0.677000
     27 SBD         6.0430    0.1930    0.6230 s6        1 ZYP      2.788000
     28 HOAD       -0.7010    0.2800    1.6990 ho        1 ZYP      0.269000
     29 HAF         3.3470    1.6030    5.6550 ha        1 ZYP      0.174000
     30 HAG         0.2380   -0.4030    4.8290 hn        1 ZYP      0.282000
     31 HAH         4.9870   -1.9150   -2.1110 ha        1 ZYP      0.163500
     32 HAI         2.9050    3.8400   -2.7640 ha        1 ZYP      0.248000
     33 HAJ         3.3020   -2.4410   -2.7300 ha        1 ZYP      0.163500
     34 HAK         0.6040    0.1660   -5.2720 ha        1 ZYP      0.236500
     35 HAL         3.8410   -0.1680    4.4790 ha        1 ZYP      0.184000
     36 HAM         8.5730   -3.6560   -1.6670 hc        1 ZYP      0.071000
     37 HAMA        7.4130   -2.4210   -1.0100 hc        1 ZYP      0.071000
     38 HAN         8.3480   -0.4610    3.3570 ha        1 ZYP      0.190000
     39 HANA        9.1800   -2.0180   -1.1820 hc        1 ZYP      0.071000
     40 HAO         8.6390   -3.2000    0.0870 hc        1 ZYP      0.071000
     41 HAOA        5.8460   -0.4250    4.1780 h4        1 ZYP      0.184000
     42 HAP         2.5020    1.3190   -1.3200 hn        1 ZYP      0.281000
     43 HAPA        1.3110    0.4790   -2.1630 hn        1 ZYP      0.281000
     44 HAQ         8.1640   -0.9020    0.7780 h1        1 ZYP      0.196000
     45 HAQA        8.2960    0.8590    1.0930 h1        1 ZYP      0.196000
     46 HNAT       -1.2320    0.3280   -2.5050 ha        1 ZYP      0.236500
     47 NAT         1.9270    0.4620   -1.3300 n4        1 ZYP     -0.131000
     48 HAT2        2.5740   -0.3420   -1.4040 hn        1 ZYP      0.281000
     49 OAD        -0.2500    0.1860    2.5560 oh        1 ZYP     -0.215000
     50 FAE         4.4550    0.6090   -5.3420 f         1 ZYP     -0.065000
@<TRIPOS>BOND
     1    1   18 1   
     2    2   27 1   
     3    3   27 1   
     4    4    5 1   
     5    4   10 1   
     6    4   29 1   
     7    5   16 1   
     8    6    8 1   
     9    6   19 1   
    10    7    9 1   
    11    7   19 1   
    12    8   31 1   
    13    8   33 1   
    14    9   32 1   
    15   11   36 1   
    16   11   37 1   
    17   11   39 1   
    18   11   40 1   
    19   12   13 1   
    20   12   15 1   
    21   12   38 1   
    22   13   26 1   
    23   13   41 1   
    24   14   20 1   
    25   14   46 1   
    26   15   27 1   
    27   15   44 1   
    28   15   45 1   
    29   16   25 1   
    30   16   30 1   
    31   17   22 1   
    32   17   23 1   
    33   18   22 1   
    34   18   47 1   
    35   19   50 1   
    36   20   34 1   
    37   21   22 1   
    38   21   25 1   
    39   21   49 1   
    40   23   24 1   
    41   23   26 1   
    42   24   25 1   
    43   24   35 1   
    44   26   27 1   
    45   28   49 1   
    46   42   47 1   
    47   43   47 1   
    48   47   48 1   
@<TRIPOS>SUBSTRUCTURE
     1 ZYP         1 TEMP              0 ****  ****    0 ROOT
