@<TRIPOS>MOLECULE
ZYQ
   26    26     1     0     0
SMALL
bcc


@<TRIPOS>ATOM
      1 CAA        -5.3060   -0.3100    1.1310 c3        1 ZYQ     -0.238000
      2 CAK        -3.7930   -0.3130    1.1290 c2        1 ZYQ      0.302000
      3 OAB        -3.1850   -0.4480    2.1720 o         1 ZYQ     -0.344000
      4 NAI        -3.0850   -0.1330   -0.0860 n         1 ZYQ     -0.298000
      5 CAN        -1.6660   -0.1110   -0.0840 c2        1 ZYQ     -0.181000
      6 NAG        -0.8190   -0.8640   -0.9380 n2        1 ZYQ     -0.165000
      7 CAM         0.6780   -0.4400   -0.6570 c1        1 ZYQ     -0.012000
      8 CAF         2.1770   -1.3600   -0.6340 c2        1 ZYQ     -0.103000
      9 CAD         3.6200   -0.2980   -1.0030 c3        1 ZYQ     -0.196000
     10 CAE         3.3710    1.1440   -0.5580 c3        1 ZYQ     -0.070000
     11 NAH         2.2840    1.3490   -0.5130 n         1 ZYQ     -0.311000
     12 CAL         1.7950    0.9180    0.5570 c2        1 ZYQ      0.361000
     13 OAC         2.4840    0.3870    1.4060 o         1 ZYQ     -0.255000
     14 CAO         0.6800    0.5480    0.3500 c2        1 ZYQ     -0.582000
     15 SAJ        -0.7850    0.8060    0.7610 ss        1 ZYQ      0.710000
     16 HAA1       -5.6350   -0.9520    0.4680 hc        1 ZYQ      0.115333
     17 HAA2       -5.6320   -0.5620    2.0200 hc        1 ZYQ      0.115333
     18 HAA3       -5.6310    0.5870    0.9060 hc        1 ZYQ      0.115333
     19 HAI        -3.5420   -0.0260   -0.8680 hn        1 ZYQ      0.255000
     20 HAF1        2.2930   -1.7600    0.2500 ha        1 ZYQ      0.107000
     21 HAF2        2.1260   -2.0720   -1.3030 ha        1 ZYQ      0.107000
     22 HAD1        3.7910   -0.3120   -1.9660 hc        1 ZYQ      0.092500
     23 HAD2        4.4040   -0.6480   -0.5330 hc        1 ZYQ      0.092500
     24 HAE1        3.7900    1.7580   -1.1970 h1        1 ZYQ      0.103000
     25 HAE2        3.7630    1.2820    0.3300 h1        1 ZYQ      0.103000
     26 HAH         1.8200    1.8300   -1.1390 hn        1 ZYQ      0.174000
@<TRIPOS>BOND
     1    1    2 1   
     2    1   16 1   
     3    1   17 1   
     4    1   18 1   
     5    2    3 1   
     6    2    4 1   
     7    4    5 1   
     8    4   19 1   
     9    5    6 1   
    10    5   15 1   
    11    6    7 1   
    12    7   14 1   
    13    8    9 1   
    14    8   20 1   
    15    8   21 1   
    16    9   10 1   
    17    9   22 1   
    18    9   23 1   
    19   10   11 1   
    20   10   24 1   
    21   10   25 1   
    22   11   12 1   
    23   11   26 1   
    24   12   13 1   
    25   12   14 1   
    26   14   15 1   
@<TRIPOS>SUBSTRUCTURE
     1 ZYQ         1 TEMP              0 ****  ****    0 ROOT
