@<TRIPOS>MOLECULE
ZYQ
   27    28     1     0     0
SMALL
bcc


@<TRIPOS>ATOM
      1 CAA         0.8160    0.7400   -1.1230 c3        1 ZYQ     -0.183100
      2 CAK         1.5530    0.2290    0.0620 c         1 ZYQ      0.575100
      3 OAB         1.6030    0.6580    1.2000 o         1 ZYQ     -0.400100
      4 NAI         2.3640   -1.0580   -0.1660 n4        1 ZYQ     -0.626500
      5 CAN         3.7240   -0.7540   -0.5750 cc        1 ZYQ      0.283300
      6 NAG         3.9710   -0.1700   -1.7890 nd        1 ZYQ     -0.605000
      7 CAM         5.3210   -0.0020   -1.9290 cd        1 ZYQ      0.410600
      8 CAF         5.9510    0.5400   -3.1660 c3        1 ZYQ     -0.121700
      9 CAD         6.7210    1.8240   -2.9370 c3        1 ZYQ     -0.103400
     10 CAE         7.4690    1.9000   -1.6060 c3        1 ZYQ      0.092000
     11 NAH         8.1790    0.7190   -1.2080 n         1 ZYQ     -0.544900
     12 CAL         7.5580   -0.4230   -0.7680 c         1 ZYQ      0.730100
     13 OAC         8.2010   -1.4020   -0.3440 o         1 ZYQ     -0.602500
     14 CAO         6.0720   -0.4580   -0.8130 cc        1 ZYQ     -0.271000
     15 SAJ         5.1060   -1.0810    0.3540 ss        1 ZYQ      0.284700
     16 HAA1        0.0680   -0.0120   -1.4820 hc        1 ZYQ      0.121700
     17 HAA2        0.2730    1.6770   -0.8230 hc        1 ZYQ      0.121700
     18 HAA3        1.5210    0.9830   -1.9610 hc        1 ZYQ      0.121700
     19 HAI         1.9070   -1.6190   -0.8980 hn        1 ZYQ      0.467300
     20 HAF1        5.1770    0.7170   -3.9620 hc        1 ZYQ      0.085700
     21 HAF2        6.6490   -0.2550   -3.5540 hc        1 ZYQ      0.085700
     22 HAD1        6.0190    2.7000   -2.9720 hc        1 ZYQ      0.070200
     23 HAD2        7.4470    1.9450   -3.7850 hc        1 ZYQ      0.070200
     24 HAE1        6.7270    2.1660   -0.7970 h1        1 ZYQ      0.061700
     25 HAE2        8.2170    2.7440   -1.6710 h1        1 ZYQ      0.061700
     26 HAH         9.1740    0.7130   -1.2580 hn        1 ZYQ      0.349500
     27 HAI2        2.4010   -1.6010    0.7060 hn        1 ZYQ      0.467300
@<TRIPOS>BOND
     1    1    2 1   
     2    1   16 1   
     3    1   17 1   
     4    1   18 1   
     5    2    3 2   
     6    2    4 1   
     7    4    5 1   
     8    4   19 1   
     9    4   27 1   
    10    5    6 2   
    11    5   15 1   
    12    6    7 1   
    13    7    8 1   
    14    7   14 2   
    15    8    9 1   
    16    8   20 1   
    17    8   21 1   
    18    9   10 1   
    19    9   22 1   
    20    9   23 1   
    21   10   11 1   
    22   10   24 1   
    23   10   25 1   
    24   11   12 1   
    25   11   26 1   
    26   12   13 2   
    27   12   14 1   
    28   14   15 1   
@<TRIPOS>SUBSTRUCTURE
     1 ZYQ         1 TEMP              0 ****  ****    0 ROOT
