@<TRIPOS>MOLECULE
ZYQ
   26    27     1     0     0
SMALL
bcc


@<TRIPOS>ATOM
      1 CAA         5.0510   -0.3920    0.1410 c3        1 ZYQ     -0.170100
      2 CAK         3.6180    0.0680    0.1250 c         1 ZYQ      0.658100
      3 OAB         3.2890    1.2500    0.3410 o         1 ZYQ     -0.583100
      4 NAI         2.6500   -0.8940   -0.1460 n         1 ZYQ     -0.530400
      5 CAN         1.2870   -0.6030   -0.2010 cc        1 ZYQ      0.468300
      6 NAG         0.3480   -1.5590   -0.4570 nd        1 ZYQ     -0.691000
      7 CAM        -0.8990   -0.9740   -0.4420 cd        1 ZYQ      0.408600
      8 CAF        -2.1360   -1.7430   -0.7550 c3        1 ZYQ     -0.112700
      9 CAD        -3.1110   -1.8100    0.4030 c3        1 ZYQ     -0.097400
     10 CAE        -3.1680   -0.5400    1.2550 c3        1 ZYQ      0.102000
     11 NAH        -3.2110    0.7010    0.5410 n         1 ZYQ     -0.569900
     12 CAL        -2.1190    1.2220   -0.1290 c         1 ZYQ      0.752100
     13 OAC        -2.2070    2.3490   -0.6590 o         1 ZYQ     -0.643500
     14 CAO        -0.8970    0.4060   -0.1760 cc        1 ZYQ     -0.350000
     15 SAJ         0.6500    0.9780    0.0400 ss        1 ZYQ      0.140700
     16 HAA1        5.7030    0.4850    0.3780 hc        1 ZYQ      0.075700
     17 HAA2        5.2020   -1.1790    0.9200 hc        1 ZYQ      0.075700
     18 HAA3        5.3420   -0.8030   -0.8560 hc        1 ZYQ      0.075700
     19 HAI         2.9290   -1.8350   -0.3170 hn        1 ZYQ      0.340500
     20 HAF1       -2.6290   -1.2370   -1.6300 hc        1 ZYQ      0.066200
     21 HAF2       -1.8830   -2.7890   -1.0760 hc        1 ZYQ      0.066200
     22 HAD1       -4.1300   -2.0370   -0.0080 hc        1 ZYQ      0.049700
     23 HAD2       -2.8290   -2.6540    1.0870 hc        1 ZYQ      0.049700
     24 HAE1       -4.0850   -0.5960    1.9090 h1        1 ZYQ      0.049200
     25 HAE2       -2.2630   -0.5340    1.9310 h1        1 ZYQ      0.049200
     26 HAH        -4.0710    1.1930    0.4840 hn        1 ZYQ      0.322500
@<TRIPOS>BOND
     1    1    2 1   
     2    1   16 1   
     3    1   17 1   
     4    1   18 1   
     5    2    3 2   
     6    2    4 1   
     7    4    5 1   
     8    4   19 1   
     9    5    6 2   
    10    5   15 1   
    11    6    7 1   
    12    7    8 1   
    13    7   14 2   
    14    8    9 1   
    15    8   20 1   
    16    8   21 1   
    17    9   10 1   
    18    9   22 1   
    19    9   23 1   
    20   10   11 1   
    21   10   24 1   
    22   10   25 1   
    23   11   12 1   
    24   11   26 1   
    25   12   13 2   
    26   12   14 1   
    27   14   15 1   
@<TRIPOS>SUBSTRUCTURE
     1 ZYQ         1 TEMP              0 ****  ****    0 ROOT
