@<TRIPOS>MOLECULE
ZYQ
   26    27     1     0     0
SMALL
bcc


@<TRIPOS>ATOM
      1 CAA        -0.0400   -0.0910    0.0300 c3        1 ZYQ     -0.170100
      2 CAK         1.4640   -0.0610    0.1030 c         1 ZYQ      0.658100
      3 OAB         2.0850   -0.0820    1.1830 o         1 ZYQ     -0.583100
      4 NAI         2.1530   -0.0080   -1.1050 ns        1 ZYQ     -0.530400
      5 CAN         3.5450    0.0140   -1.1820 cc        1 ZYQ      0.468300
      6 NAG         4.2070    0.0770   -2.3730 nd        1 ZYQ     -0.691000
      7 CAM         5.5630    0.0910   -2.1290 cd        1 ZYQ      0.408600
      8 CAF         6.5640    0.0880   -3.2330 c3        1 ZYQ     -0.112700
      9 CAD         7.4370    1.3260   -3.2550 c3        1 ZYQ     -0.097400
     10 CAE         7.7930    1.8730   -1.8710 c3        1 ZYQ      0.102000
     11 NAH         8.1920    0.9070   -0.8920 ns        1 ZYQ     -0.569900
     12 CAL         7.3070    0.0280   -0.2950 c         1 ZYQ      0.752100
     13 OAC         7.7130   -0.7280    0.6110 o         1 ZYQ     -0.643500
     14 CAO         5.9160    0.0390   -0.7700 cc        1 ZYQ     -0.350000
     15 SAJ         4.5680   -0.0400    0.2020 ss        1 ZYQ      0.140700
     16 HAA1       -0.4450   -0.1230    1.0710 hc        1 ZYQ      0.075700
     17 HAA2       -0.3870   -0.9970   -0.5240 hc        1 ZYQ      0.075700
     18 HAA3       -0.4260    0.8230   -0.4830 hc        1 ZYQ      0.075700
     19 HAI         1.6410    0.0080   -1.9590 hn        1 ZYQ      0.340500
     20 HAF1        7.2100   -0.8230   -3.0930 hc        1 ZYQ      0.066200
     21 HAF2        6.0560   -0.0160   -4.2300 hc        1 ZYQ      0.066200
     22 HAD1        8.3760    1.0840   -3.8200 hc        1 ZYQ      0.049700
     23 HAD2        6.9130    2.1480   -3.8110 hc        1 ZYQ      0.049700
     24 HAE1        8.6340    2.6140   -1.9910 h1        1 ZYQ      0.049200
     25 HAE2        6.8950    2.4330   -1.4780 h1        1 ZYQ      0.049200
     26 HAH         9.1540    0.8310   -0.6570 hn        1 ZYQ      0.322500
@<TRIPOS>BOND
     1    1    2 1   
     2    1   16 1   
     3    1   17 1   
     4    1   18 1   
     5    2    3 2   
     6    2    4 1   
     7    4    5 1   
     8    4   19 1   
     9    5    6 2   
    10    5   15 1   
    11    6    7 1   
    12    7    8 1   
    13    7   14 2   
    14    8    9 1   
    15    8   20 1   
    16    8   21 1   
    17    9   10 1   
    18    9   22 1   
    19    9   23 1   
    20   10   11 1   
    21   10   24 1   
    22   10   25 1   
    23   11   12 1   
    24   11   26 1   
    25   12   13 2   
    26   12   14 1   
    27   14   15 1   
@<TRIPOS>SUBSTRUCTURE
     1 ZYQ         1 TEMP              0 ****  ****    0 ROOT
