@<TRIPOS>MOLECULE
ZYR
   24    26     1     0     0
SMALL
bcc


@<TRIPOS>ATOM
      1 OAA        -0.1020   -0.0930   -0.1460 o         1 ZYR     -0.626500
      2 CAL         1.1340   -0.0430   -0.0170 c         1 ZYR      0.730100
      3 CAN         1.8810   -0.0020    1.2340 cc        1 ZYR     -0.228600
      4 CAK         1.3800   -0.0040    2.5680 cc        1 ZYR     -0.021300
      5 CAF        -0.0470   -0.0110    2.9460 c3        1 ZYR     -0.024100
      6 CAD        -0.2290   -0.3720    4.4090 c3        1 ZYR     -0.075400
      7 CAC         0.7620    0.3570    5.2940 c3        1 ZYR     -0.072400
      8 CAE         2.1980    0.0010    4.9460 c3        1 ZYR      0.001900
      9 CAJ         2.4170    0.0260    3.4880 cd        1 ZYR     -0.145400
     10 SAI         3.9290    0.0660    2.7570 ss        1 ZYR      0.107200
     11 CAM         3.2970    0.0380    1.2050 cd        1 ZYR      0.142300
     12 NAG         4.0280    0.0500    0.0280 nd        1 ZYR     -0.588100
     13 CAB         3.3220    0.0180   -1.0880 cc        1 ZYR      0.484800
     14 NAH         1.9390   -0.0280   -1.1820 n         1 ZYR     -0.491400
     15 HAH         1.4950   -0.0540   -2.0720 hn        1 ZYR      0.337500
     16 HAF1       -0.4740    1.0100    2.7480 hc        1 ZYR      0.069700
     17 HAF2       -0.6100   -0.7310    2.2920 hc        1 ZYR      0.069700
     18 HAD1       -1.2740   -0.1140    4.7240 hc        1 ZYR      0.044200
     19 HAD2       -0.1010   -1.4780    4.5410 hc        1 ZYR      0.044200
     20 HAC1        0.6150    1.4630    5.1820 hc        1 ZYR      0.044200
     21 HAC2        0.5710    0.0970    6.3680 hc        1 ZYR      0.044200
     22 HAE1        2.8940    0.7170    5.4600 hc        1 ZYR      0.049200
     23 HAE2        2.4300   -1.0290    5.3360 hc        1 ZYR      0.049200
     24 HAB         3.8820    0.0270   -2.0480 h5        1 ZYR      0.053800
@<TRIPOS>BOND
     1    1    2 2   
     2    2    3 1   
     3    2   14 1   
     4    3    4 1   
     5    3   11 2   
     6    4    5 1   
     7    4    9 2   
     8    5    6 1   
     9    5   16 1   
    10    5   17 1   
    11    6    7 1   
    12    6   18 1   
    13    6   19 1   
    14    7    8 1   
    15    7   20 1   
    16    7   21 1   
    17    8    9 1   
    18    8   22 1   
    19    8   23 1   
    20    9   10 1   
    21   10   11 1   
    22   11   12 1   
    23   12   13 2   
    24   13   14 1   
    25   13   24 1   
    26   14   15 1   
@<TRIPOS>SUBSTRUCTURE
     1 ZYR         1 TEMP              0 ****  ****    0 ROOT
