@<TRIPOS>MOLECULE
ZYR
   24    26     1     0     0
SMALL
bcc


@<TRIPOS>ATOM
      1 OAA        -1.4680   -2.6010   -0.0430 o         1 ZYR     -0.626500
      2 CAL        -1.6730   -1.3740   -0.0140 c         1 ZYR      0.730100
      3 CAN        -0.6670   -0.3200    0.0070 cc        1 ZYR     -0.228600
      4 CAK         0.7520   -0.4470    0.0040 cc        1 ZYR     -0.021300
      5 CAF         1.4970   -1.7200    0.0160 c3        1 ZYR     -0.024100
      6 CAD         2.9550   -1.5120   -0.3520 c3        1 ZYR     -0.075400
      7 CAC         3.5450   -0.3080    0.3550 c3        1 ZYR     -0.072400
      8 CAE         2.8250    0.9770   -0.0210 c3        1 ZYR      0.001900
      9 CAJ         1.3620    0.7980    0.0100 cd        1 ZYR     -0.145400
     10 SAI         0.2540    2.0610    0.0320 ss        1 ZYR      0.107200
     11 CAM        -1.0730    1.0380    0.0250 cd        1 ZYR      0.142300
     12 NAG        -2.4030    1.4280    0.0340 nd        1 ZYR     -0.588100
     13 CAB        -3.2890    0.4500    0.0200 cc        1 ZYR      0.484800
     14 NAH        -3.0110   -0.9100   -0.0030 n         1 ZYR     -0.491400
     15 HAH        -3.7500   -1.5750   -0.0160 hn        1 ZYR      0.337500
     16 HAF1        1.4230   -2.1680    1.0460 hc        1 ZYR      0.069700
     17 HAF2        1.0150   -2.4500   -0.6900 hc        1 ZYR      0.069700
     18 HAD1        3.5380   -2.4300   -0.0790 hc        1 ZYR      0.044200
     19 HAD2        3.0450   -1.3720   -1.4610 hc        1 ZYR      0.044200
     20 HAC1        3.4790   -0.4600    1.4640 hc        1 ZYR      0.044200
     21 HAC2        4.6300   -0.2100    0.0900 hc        1 ZYR      0.044200
     22 HAE1        3.1370    1.7960    0.6800 hc        1 ZYR      0.049200
     23 HAE2        3.1370    1.2860   -1.0570 hc        1 ZYR      0.049200
     24 HAB        -4.3640    0.7330    0.0270 h5        1 ZYR      0.053800
@<TRIPOS>BOND
     1    1    2 2   
     2    2    3 1   
     3    2   14 1   
     4    3    4 1   
     5    3   11 2   
     6    4    5 1   
     7    4    9 2   
     8    5    6 1   
     9    5   16 1   
    10    5   17 1   
    11    6    7 1   
    12    6   18 1   
    13    6   19 1   
    14    7    8 1   
    15    7   20 1   
    16    7   21 1   
    17    8    9 1   
    18    8   22 1   
    19    8   23 1   
    20    9   10 1   
    21   10   11 1   
    22   11   12 1   
    23   12   13 2   
    24   13   14 1   
    25   13   24 1   
    26   14   15 1   
@<TRIPOS>SUBSTRUCTURE
     1 ZYR         1 TEMP              0 ****  ****    0 ROOT
