@<TRIPOS>MOLECULE
ZYR
   24    22     1     0     0
SMALL
bcc


@<TRIPOS>ATOM
      1 OAA        -1.6290   -0.0600   -2.6960 o         1 ZYR     -0.351000
      2 CAL        -0.4140   -0.0600   -2.6960 c1        1 ZYR      0.367000
      3 CAN         0.3250   -0.0600   -1.4150 c1        1 ZYR     -0.208000
      4 CAK        -0.1710    0.0230    0.0980 c1        1 ZYR     -0.014000
      5 CAF        -1.5820    0.0390    0.7810 c2        1 ZYR     -0.110000
      6 CAD        -1.6070   -0.1370    2.1980 c3        1 ZYR     -0.154000
      7 CAC        -0.5160    0.4630    2.9570 c3        1 ZYR     -0.151000
      8 CAE         0.8120    0.1440    2.5430 c3        1 ZYR     -0.084000
      9 CAJ         1.0450   -0.0150    1.0000 c2        1 ZYR     -0.408000
     10 SAI         2.2850   -0.1190    0.1060 ss        1 ZYR      0.647000
     11 CAM         1.7830   -0.1450   -1.4190 c1        1 ZYR     -0.267000
     12 NAG         2.4880   -0.2220   -2.6590 n1        1 ZYR     -0.161000
     13 CAB         1.7480   -0.3000   -3.9170 c1        1 ZYR      0.061000
     14 NAH         0.2950   -0.1420   -3.9220 n2        1 ZYR     -0.331000
     15 HAH        -0.1630   -0.1910   -4.7090 hn        1 ZYR      0.251000
     16 HAF1       -2.0060    0.8930    0.5760 ha        1 ZYR      0.109000
     17 HAF2       -2.1180   -0.6720    0.3800 ha        1 ZYR      0.109000
     18 HAD1       -1.6080   -1.0950    2.3820 hc        1 ZYR      0.083500
     19 HAD2       -2.4450    0.2370    2.5320 hc        1 ZYR      0.083500
     20 HAC1       -0.6130    0.1890    3.8890 hc        1 ZYR      0.083500
     21 HAC2       -0.6190    1.4330    2.9140 hc        1 ZYR      0.083500
     22 HAE1        1.0690   -0.6930    2.9740 hc        1 ZYR      0.088500
     23 HAE2        1.4050    0.8480    2.8660 hc        1 ZYR      0.088500
     24 HAB         2.2340   -0.3560   -4.7620 ha        1 ZYR      0.183000
@<TRIPOS>BOND
     1    1    2 1   
     2    2   14 1   
     3    3    4 1   
     4    3   11 1   
     5    4    9 1   
     6    5    6 1   
     7    5   16 1   
     8    5   17 1   
     9    6    7 1   
    10    6   18 1   
    11    6   19 1   
    12    7    8 1   
    13    7   20 1   
    14    7   21 1   
    15    8    9 1   
    16    8   22 1   
    17    8   23 1   
    18    9   10 1   
    19   10   11 1   
    20   12   13 1   
    21   13   24 1   
    22   14   15 1   
@<TRIPOS>SUBSTRUCTURE
     1 ZYR         1 TEMP              0 ****  ****    0 ROOT
