@<TRIPOS>MOLECULE
ZYS
   38    39     1     0     0
SMALL
bcc


@<TRIPOS>ATOM
      1 CAA         1.7280    0.2760    1.2450 c3        1 ZYS     -0.134767
      2 CAS         1.8640    0.3280   -0.2730 c3        1 ZYS      0.164200
      3 CAB         3.1870    0.9670   -0.6800 c3        1 ZYS     -0.134767
      4 CAC         1.7860   -1.0910   -0.8460 c3        1 ZYS     -0.134767
      5 NAL         0.6840    1.1280   -0.8820 n4        1 ZYS     -0.735700
      6 CAQ         0.4990    2.4650   -0.3420 cc        1 ZYS      0.350300
      7 SAM         1.5950    3.7600   -0.5290 ss        1 ZYS      0.384700
      8 NAK        -0.6270    2.7680    0.3660 nd        1 ZYS     -0.577000
      9 CAO        -0.5600    4.1010    0.7270 cd        1 ZYS      0.428200
     10 NAD        -1.6340    4.7220    1.4920 n4        1 ZYS     -0.800300
     11 CAR         0.6100    4.7780    0.2930 cc        1 ZYS     -0.286000
     12 CAN         0.8900    6.2260    0.5000 c         1 ZYS      0.638300
     13 OAE         0.0320    6.9240    1.0540 o         1 ZYS     -0.518100
     14 CAP         2.1520    6.7240   -0.0420 ca        1 ZYS     -0.211600
     15 CAI         2.2010    8.0440   -0.5130 ca        1 ZYS     -0.089000
     16 CAG         3.3840    8.5440   -1.0640 ca        1 ZYS     -0.108500
     17 CAF         4.5190    7.7390   -1.1320 ca        1 ZYS     -0.055000
     18 CAH         4.4810    6.4300   -0.6340 ca        1 ZYS     -0.108500
     19 CAJ         3.3080    5.9240   -0.0870 ca        1 ZYS     -0.089000
     20 HAA1        1.8050    1.2930    1.6990 hc        1 ZYS      0.085367
     21 HAA2        2.5640   -0.3510    1.6510 hc        1 ZYS      0.085367
     22 HAA3        0.7640   -0.1970    1.5560 hc        1 ZYS      0.085367
     23 HAB1        3.2720    2.0200   -0.3100 hc        1 ZYS      0.085367
     24 HAB2        4.0190    0.3770   -0.2130 hc        1 ZYS      0.085367
     25 HAB3        3.3340    0.9450   -1.7880 hc        1 ZYS      0.085367
     26 HAC1        1.8710   -1.0950   -1.9600 hc        1 ZYS      0.085367
     27 HAC2        0.8440   -1.6090   -0.5400 hc        1 ZYS      0.085367
     28 HAC3        2.6480   -1.6780   -0.4340 hc        1 ZYS      0.085367
     29 HAD1       -1.5280    5.7580    1.4470 hn        1 ZYS      0.497133
     30 HAD2       -2.5520    4.4520    1.1100 hn        1 ZYS      0.497133
     31 HAI         1.3050    8.6850   -0.4450 ha        1 ZYS      0.143000
     32 HAJ         3.3390    4.9320    0.3980 ha        1 ZYS      0.143000
     33 HAG         3.4160    9.5830   -1.4360 ha        1 ZYS      0.171500
     34 HAF         5.4550    8.1350   -1.5630 ha        1 ZYS      0.177000
     35 HAH         5.3940    5.8130   -0.6560 ha        1 ZYS      0.171500
     36 HAL        -0.1700    0.5650   -0.7250 hn        1 ZYS      0.475800
     37 HAL2        0.8360    1.2070   -1.8970 hn        1 ZYS      0.475800
     38 HAD3       -1.5760    4.4190    2.4760 hn        1 ZYS      0.497133
@<TRIPOS>BOND
     1    1    2 1   
     2    1   20 1   
     3    1   21 1   
     4    1   22 1   
     5    2    3 1   
     6    2    4 1   
     7    2    5 1   
     8    3   23 1   
     9    3   24 1   
    10    3   25 1   
    11    4   26 1   
    12    4   27 1   
    13    4   28 1   
    14    5    6 1   
    15    5   36 1   
    16    5   37 1   
    17    6    7 1   
    18    6    8 2   
    19    7   11 1   
    20    8    9 1   
    21    9   10 1   
    22    9   11 2   
    23   10   29 1   
    24   10   30 1   
    25   10   38 1   
    26   11   12 1   
    27   12   13 2   
    28   12   14 1   
    29   14   15 ar  
    30   14   19 ar  
    31   15   16 ar  
    32   15   31 1   
    33   16   17 ar  
    34   16   33 1   
    35   17   18 ar  
    36   17   34 1   
    37   18   19 ar  
    38   18   35 1   
    39   19   32 1   
@<TRIPOS>SUBSTRUCTURE
     1 ZYS         1 TEMP              0 ****  ****    0 ROOT
