@<TRIPOS>MOLECULE
ZYS
   36    37     1     0     0
SMALL
bcc


@<TRIPOS>ATOM
      1 CAA        -4.4260    0.1470   -1.3630 c3        1 ZYS     -0.106100
      2 CAS        -4.1250   -0.6410   -0.0790 c3        1 ZYS      0.229200
      3 CAB        -4.6340    0.1720    1.1200 c3        1 ZYS     -0.106100
      4 CAC        -4.9500   -1.9450   -0.1370 c3        1 ZYS     -0.106100
      5 NAL        -2.7080   -0.9980    0.0600 nh        1 ZYS     -0.819900
      6 CAQ        -1.6830   -0.0750    0.1050 cc        1 ZYS      0.715300
      7 SAM        -0.0320   -0.6600    0.0790 ss        1 ZYS     -0.163300
      8 NAK        -1.8020    1.2590    0.2690 nd        1 ZYS     -0.775000
      9 CAO        -0.5190    1.8340    0.3880 cd        1 ZYS      0.730200
     10 NAD        -0.3650    3.1690    0.6140 nh        1 ZYS     -0.941500
     11 CAR         0.5610    0.9140    0.2730 cc        1 ZYS     -0.418000
     12 CAN         1.9570    1.2600    0.2700 c         1 ZYS      0.643300
     13 OAE         2.3650    2.4360    0.3580 o         1 ZYS     -0.597100
     14 CAP         2.9310    0.1480    0.1150 ca        1 ZYS     -0.151600
     15 CAI         4.0460    0.3400   -0.7120 ca        1 ZYS     -0.095500
     16 CAG         4.9740   -0.6860   -0.8810 ca        1 ZYS     -0.138500
     17 CAF         4.8040   -1.9000   -0.2160 ca        1 ZYS     -0.114000
     18 CAH         3.7050   -2.0870    0.6220 ca        1 ZYS     -0.138500
     19 CAJ         2.7680   -1.0670    0.7880 ca        1 ZYS     -0.095500
     20 HAA1       -3.9030    1.1320   -1.3640 hc        1 ZYS      0.047256
     21 HAA2       -4.1130   -0.4300   -2.2660 hc        1 ZYS      0.047256
     22 HAA3       -5.5250    0.3330   -1.4250 hc        1 ZYS      0.047256
     23 HAB1       -5.7480    0.2310    1.0620 hc        1 ZYS      0.047256
     24 HAB2       -4.3510   -0.3180    2.0820 hc        1 ZYS      0.047256
     25 HAB3       -4.2270    1.2100    1.1080 hc        1 ZYS      0.047256
     26 HAC1       -4.6570   -2.5690   -1.0140 hc        1 ZYS      0.047256
     27 HAC2       -4.8150   -2.5410    0.7970 hc        1 ZYS      0.047256
     28 HAC3       -6.0300   -1.6810   -0.2380 hc        1 ZYS      0.047256
     29 HAD1       -1.1460    3.7760    0.5850 hn        1 ZYS      0.455300
     30 HAD2        0.5570    3.5430    0.6010 hn        1 ZYS      0.455300
     31 HAI         4.1810    1.3090   -1.2160 ha        1 ZYS      0.147500
     32 HAJ         1.9120   -1.2160    1.4670 ha        1 ZYS      0.147500
     33 HAG         5.8450   -0.5330   -1.5360 ha        1 ZYS      0.134000
     34 HAF         5.5400   -2.7080   -0.3470 ha        1 ZYS      0.132000
     35 HAH         3.5760   -3.0400    1.1570 ha        1 ZYS      0.134000
     36 HAL        -2.4640   -1.8370   -0.4260 hn        1 ZYS      0.419800
@<TRIPOS>BOND
     1    1    2 1   
     2    1   20 1   
     3    1   21 1   
     4    1   22 1   
     5    2    3 1   
     6    2    4 1   
     7    2    5 1   
     8    3   23 1   
     9    3   24 1   
    10    3   25 1   
    11    4   26 1   
    12    4   27 1   
    13    4   28 1   
    14    5    6 1   
    15    5   36 1   
    16    6    7 1   
    17    6    8 2   
    18    7   11 1   
    19    8    9 1   
    20    9   10 1   
    21    9   11 2   
    22   10   29 1   
    23   10   30 1   
    24   11   12 1   
    25   12   13 2   
    26   12   14 1   
    27   14   15 ar  
    28   14   19 ar  
    29   15   16 ar  
    30   15   31 1   
    31   16   17 ar  
    32   16   33 1   
    33   17   18 ar  
    34   17   34 1   
    35   18   19 ar  
    36   18   35 1   
    37   19   32 1   
@<TRIPOS>SUBSTRUCTURE
     1 ZYS         1 TEMP              0 ****  ****    0 ROOT
