@<TRIPOS>MOLECULE
ZYS
   36    37     1     0     0
SMALL
bcc


@<TRIPOS>ATOM
      1 CAA        -0.0070   -0.2150    0.0850 c3        1 ZYS     -0.106433
      2 CAS         1.4990    0.0310   -0.0860 c3        1 ZYS      0.230200
      3 CAB         2.1860   -0.2130    1.2660 c3        1 ZYS     -0.106433
      4 CAC         2.0310   -1.0310   -1.0710 c3        1 ZYS     -0.106433
      5 NAL         1.7780    1.3610   -0.6420 nu        1 ZYS     -0.820900
      6 CAQ         1.4950    2.5430    0.0090 cc        1 ZYS      0.717300
      7 SAM         2.1680    4.0320   -0.6210 ss        1 ZYS     -0.168300
      8 NAK         0.6720    2.7030    1.0670 nd        1 ZYS     -0.775000
      9 CAO         0.5580    4.0770    1.3690 cd        1 ZYS      0.729200
     10 NAD        -0.1900    4.5040    2.4260 nv        1 ZYS     -0.938500
     11 CAR         1.3070    4.9400    0.5200 cc        1 ZYS     -0.417000
     12 CAN         1.3000    6.3770    0.5750 c         1 ZYS      0.643300
     13 OAE         0.6130    7.0220    1.3910 o         1 ZYS     -0.597100
     14 CAP         2.1320    7.0970   -0.4240 ca        1 ZYS     -0.150600
     15 CAI         1.6110    8.2470   -1.0320 ca        1 ZYS     -0.095000
     16 CAG         2.3640    8.9420   -1.9760 ca        1 ZYS     -0.138500
     17 CAF         3.6470    8.5030   -2.3080 ca        1 ZYS     -0.114000
     18 CAH         4.1760    7.3690   -1.6910 ca        1 ZYS     -0.138500
     19 CAJ         3.4220    6.6660   -0.7530 ca        1 ZYS     -0.095000
     20 HAA1       -0.4220    0.3830    0.9290 hc        1 ZYS      0.047256
     21 HAA2       -0.1680   -1.2970    0.3090 hc        1 ZYS      0.047256
     22 HAA3       -0.5610    0.0430   -0.8490 hc        1 ZYS      0.047256
     23 HAB1        1.8080    0.4910    2.0440 hc        1 ZYS      0.047256
     24 HAB2        1.9680   -1.2560    1.6010 hc        1 ZYS      0.047256
     25 HAB3        3.2920   -0.0940    1.1760 hc        1 ZYS      0.047256
     26 HAC1        1.5280   -0.9390   -2.0630 hc        1 ZYS      0.047256
     27 HAC2        3.1350   -0.9340   -1.2110 hc        1 ZYS      0.047256
     28 HAC3        1.8170   -2.0440   -0.6560 hc        1 ZYS      0.047256
     29 HAD1       -0.7890    3.8730    2.8980 hn        1 ZYS      0.453300
     30 HAD2       -0.3180    5.4850    2.5380 hn        1 ZYS      0.453300
     31 HAI         0.6050    8.5960   -0.7490 ha        1 ZYS      0.146000
     32 HAJ         3.8540    5.7800   -0.2560 ha        1 ZYS      0.146000
     33 HAG         1.9480    9.8400   -2.4560 ha        1 ZYS      0.134000
     34 HAF         4.2420    9.0540   -3.0510 ha        1 ZYS      0.132000
     35 HAH         5.1910    7.0290   -1.9430 ha        1 ZYS      0.134000
     36 HAL         2.6150    1.3960   -1.1870 hn        1 ZYS      0.420800
@<TRIPOS>BOND
     1    1    2 1   
     2    1   20 1   
     3    1   21 1   
     4    1   22 1   
     5    2    3 1   
     6    2    4 1   
     7    2    5 1   
     8    3   23 1   
     9    3   24 1   
    10    3   25 1   
    11    4   26 1   
    12    4   27 1   
    13    4   28 1   
    14    5    6 1   
    15    5   36 1   
    16    6    7 1   
    17    6    8 2   
    18    7   11 1   
    19    8    9 1   
    20    9   10 1   
    21    9   11 2   
    22   10   29 1   
    23   10   30 1   
    24   11   12 1   
    25   12   13 2   
    26   12   14 1   
    27   14   15 ar  
    28   14   19 ar  
    29   15   16 ar  
    30   15   31 1   
    31   16   17 ar  
    32   16   33 1   
    33   17   18 ar  
    34   17   34 1   
    35   18   19 ar  
    36   18   35 1   
    37   19   32 1   
@<TRIPOS>SUBSTRUCTURE
     1 ZYS         1 TEMP              0 ****  ****    0 ROOT
