@<TRIPOS>MOLECULE
ZYT
   24    25     1     0     0
SMALL
bcc


@<TRIPOS>ATOM
      1 CAA         4.4910   -0.0330    1.0880 c3        1 ZYT     -0.046000
      2 SAI         2.8540   -0.3350    1.6370 ss        1 ZYT     -0.236400
      3 CAL         1.8850    0.3910    0.4470 cc        1 ZYT      0.488800
      4 NAG         0.4930    0.4560    0.5630 na        1 ZYT     -0.277900
      5 NAH         2.3150    0.9820   -0.7060 nd        1 ZYT     -0.730000
      6 CAM         1.1480    1.4170   -1.3450 cd        1 ZYT      0.524600
      7 OAB         1.0850    2.0700   -2.5460 oh        1 ZYT     -0.599300
      8 CAN         0.0010    1.0960   -0.5820 cc        1 ZYT     -0.231900
      9 CAC        -1.4210    1.3790   -0.8600 c3        1 ZYT      0.080200
     10 CAK        -2.3370    0.3640   -0.3080 cc        1 ZYT     -0.122400
     11 CAF        -2.7170    0.2520    1.0180 cd        1 ZYT     -0.176000
     12 CAD        -3.6260   -0.8320    1.2180 cd        1 ZYT     -0.154000
     13 CAE        -3.8960   -1.4900    0.0370 cc        1 ZYT     -0.177100
     14 SAJ        -3.0750   -0.8170   -1.2460 ss        1 ZYT      0.048200
     15 HAA1        5.1440   -0.4930    1.8660 h1        1 ZYT      0.078033
     16 HAA2        4.6990   -0.5070    0.1020 h1        1 ZYT      0.078033
     17 HAA3        4.7160    1.0540    1.0080 h1        1 ZYT      0.078033
     18 HAG        -0.0660    0.0440    1.2650 hn        1 ZYT      0.316700
     19 HAB         1.9910    2.1600   -2.8840 ho        1 ZYT      0.435000
     20 HAC1       -1.6830    2.3880   -0.4290 hc        1 ZYT      0.073200
     21 HAC2       -1.5390    1.4560   -1.9780 hc        1 ZYT      0.073200
     22 HAF        -2.3880    0.9140    1.8210 ha        1 ZYT      0.152000
     23 HAD        -4.0470   -1.0870    2.1930 ha        1 ZYT      0.154000
     24 HAE        -4.5600   -2.3460   -0.0700 h4        1 ZYT      0.172000
@<TRIPOS>BOND
     1    1    2 1   
     2    1   15 1   
     3    1   16 1   
     4    1   17 1   
     5    2    3 1   
     6    3    4 1   
     7    3    5 2   
     8    4    8 1   
     9    4   18 1   
    10    5    6 1   
    11    6    7 1   
    12    6    8 2   
    13    7   19 1   
    14    8    9 1   
    15    9   10 1   
    16    9   20 1   
    17    9   21 1   
    18   10   11 2   
    19   10   14 1   
    20   11   12 1   
    21   11   22 1   
    22   12   13 2   
    23   12   23 1   
    24   13   14 1   
    25   13   24 1   
@<TRIPOS>SUBSTRUCTURE
     1 ZYT         1 TEMP              0 ****  ****    0 ROOT
