@<TRIPOS>MOLECULE
ZYT
   24    25     1     0     0
SMALL
bcc


@<TRIPOS>ATOM
      1 CAA        -0.0170    0.1040    0.0890 c3        1 ZYT     -0.046000
      2 SAI         0.8590    1.3180    0.9990 ss        1 ZYT     -0.236400
      3 CAL         1.4550    0.4690    2.3430 cc        1 ZYT      0.488800
      4 NAG         2.1410    1.1080    3.3800 na        1 ZYT     -0.277900
      5 NAH         1.3380   -0.8710    2.5780 nd        1 ZYT     -0.730000
      6 CAM         1.9910   -1.0820    3.7980 cd        1 ZYT      0.524600
      7 OAB         2.1310   -2.2830    4.4380 oh        1 ZYT     -0.599300
      8 CAN         2.5060    0.1310    4.3140 cc        1 ZYT     -0.231900
      9 CAC         3.2410    0.3780    5.5700 c3        1 ZYT      0.080200
     10 CAK         4.1990    1.4960    5.4740 cc        1 ZYT     -0.122400
     11 CAF         3.8800    2.8420    5.5070 cd        1 ZYT     -0.176000
     12 CAD         5.0430    3.6650    5.4050 cd        1 ZYT     -0.154000
     13 CAE         6.1900    2.9080    5.3020 cc        1 ZYT     -0.177100
     14 SAJ         5.8570    1.2750    5.3260 ss        1 ZYT      0.048200
     15 HAA1       -0.8540   -0.3400    0.6740 h1        1 ZYT      0.078033
     16 HAA2       -0.4280    0.6490   -0.7930 h1        1 ZYT      0.078033
     17 HAA3        0.6430   -0.7210   -0.2590 h1        1 ZYT      0.078033
     18 HAG         2.4160    2.0560    3.4160 hn        1 ZYT      0.316700
     19 HAB         1.7150   -2.9650    3.8860 ho        1 ZYT      0.435000
     20 HAC1        2.4980    0.5970    6.3910 hc        1 ZYT      0.073200
     21 HAC2        3.7700   -0.5770    5.8480 hc        1 ZYT      0.073200
     22 HAF         2.8700    3.2430    5.6170 ha        1 ZYT      0.152000
     23 HAD         5.0050    4.7560    5.4140 ha        1 ZYT      0.154000
     24 HAE         7.2010    3.3030    5.2160 h4        1 ZYT      0.172000
@<TRIPOS>BOND
     1    1    2 1   
     2    1   15 1   
     3    1   16 1   
     4    1   17 1   
     5    2    3 1   
     6    3    4 1   
     7    3    5 2   
     8    4    8 1   
     9    4   18 1   
    10    5    6 1   
    11    6    7 1   
    12    6    8 2   
    13    7   19 1   
    14    8    9 1   
    15    9   10 1   
    16    9   20 1   
    17    9   21 1   
    18   10   11 2   
    19   10   14 1   
    20   11   12 1   
    21   11   22 1   
    22   12   13 2   
    23   12   23 1   
    24   13   14 1   
    25   13   24 1   
@<TRIPOS>SUBSTRUCTURE
     1 ZYT         1 TEMP              0 ****  ****    0 ROOT
