@<TRIPOS>MOLECULE
ZYU
   26    28     1     0     0
SMALL
bcc


@<TRIPOS>ATOM
      1 CAO        -2.1690   -1.1670   -0.2460 c3        1 ZYU      0.154300
      2 CAN        -3.5280   -0.5820   -0.6540 c3        1 ZYU      0.121400
      3 OAL        -3.9330    0.4730    0.2090 os        1 ZYU     -0.414600
      4 CAK        -2.9640    1.5130    0.2630 c3        1 ZYU      0.121400
      5 CAP        -1.5900    0.9900    0.7050 c3        1 ZYU      0.154300
      6 C6          0.1820   -0.5640    0.0530 ca        1 ZYU      0.730200
      7 N1          0.4740   -1.8950    0.1940 nb        1 ZYU     -0.778000
      8 C2          1.7800   -2.2780    0.2270 ca        1 ZYU      0.675900
      9 N3          2.9010   -1.5280    0.1530 nb        1 ZYU     -0.716000
     10 C4          2.6280   -0.1970    0.0210 ca        1 ZYU      0.437800
     11 C5          1.2740    0.3640   -0.0280 ca        1 ZYU     -0.185200
     12 N7          1.3580    1.7560   -0.1840 nc        1 ZYU     -0.540100
     13 C8          2.6690    2.0350   -0.2260 cd        1 ZYU      0.406700
     14 N9          3.4920    0.8960   -0.1070 na        1 ZYU     -0.379000
     15 N6         -1.1480   -0.1330   -0.1110 nh        1 ZYU     -0.726300
     16 HAO1       -2.2960   -1.7350    0.7200 h1        1 ZYU      0.063950
     17 HAO2       -1.8470   -1.8920   -1.0440 h1        1 ZYU      0.063950
     18 HAN1       -3.5000   -0.2120   -1.7130 h1        1 ZYU      0.058200
     19 HAN2       -4.3250   -1.3620   -0.5390 h1        1 ZYU      0.058200
     20 HAK1       -2.8940    2.0170   -0.7370 h1        1 ZYU      0.058200
     21 HAK2       -3.3610    2.2280    1.0310 h1        1 ZYU      0.058200
     22 HAP1       -0.8610    1.8400    0.6260 h1        1 ZYU      0.063950
     23 HAP2       -1.6590    0.6780    1.7880 h1        1 ZYU      0.063950
     24 H2          1.9410   -3.3730    0.3380 h5        1 ZYU      0.055100
     25 H9          4.4770    0.8620   -0.1120 hn        1 ZYU      0.320700
     26 H8          3.0980    3.0380   -0.3430 h5        1 ZYU      0.074800
@<TRIPOS>BOND
     1    1    2 1   
     2    1   15 1   
     3    1   16 1   
     4    1   17 1   
     5    2    3 1   
     6    2   18 1   
     7    2   19 1   
     8    3    4 1   
     9    4    5 1   
    10    4   20 1   
    11    4   21 1   
    12    5   15 1   
    13    5   22 1   
    14    5   23 1   
    15    6    7 ar  
    16    6   11 ar  
    17    6   15 1   
    18    7    8 ar  
    19    8    9 ar  
    20    8   24 1   
    21    9   10 ar  
    22   10   11 ar  
    23   10   14 1   
    24   11   12 1   
    25   12   13 2   
    26   13   14 1   
    27   13   26 1   
    28   14   25 1   
@<TRIPOS>SUBSTRUCTURE
     1 ZYU         1 TEMP              0 ****  ****    0 ROOT
