@<TRIPOS>MOLECULE
ZYU
   26    28     1     0     0
SMALL
bcc


@<TRIPOS>ATOM
      1 CAO         0.0510    0.0580    0.0360 c3        1 ZYU      0.154300
      2 CAN         1.5800   -0.0600   -0.0200 c3        1 ZYU      0.121400
      3 OAL         2.1580   -0.0870    1.2790 os        1 ZYU     -0.414600
      4 CAK         1.6280   -1.1410    2.0720 c3        1 ZYU      0.121400
      5 CAP         0.1000   -1.0500    2.1950 c3        1 ZYU      0.154300
      6 C6         -1.9470   -1.0900    0.8570 ca        1 ZYU      0.730200
      7 N1         -2.7120   -0.2110    0.1360 nb        1 ZYU     -0.778000
      8 C2         -4.0480   -0.4420    0.0300 ca        1 ZYU      0.675900
      9 N3         -4.7960   -1.4380    0.5530 nb        1 ZYU     -0.716000
     10 C4         -4.0500   -2.3190    1.2830 ca        1 ZYU      0.437800
     11 C5         -2.6030   -2.2000    1.4860 ca        1 ZYU     -0.185200
     12 N7         -2.1580   -3.2780    2.2670 nc        1 ZYU     -0.540100
     13 C8         -3.2520   -4.0080    2.5300 cd        1 ZYU      0.406700
     14 N9         -4.4310   -3.4820    1.9620 na        1 ZYU     -0.379000
     15 N6         -0.5450   -0.9640    0.8910 nh        1 ZYU     -0.726300
     16 HAO1       -0.3470   -0.0680   -1.0090 h1        1 ZYU      0.063950
     17 HAO2       -0.2190    1.0920    0.3970 h1        1 ZYU      0.063950
     18 HAN1        1.8880   -0.9780   -0.5870 h1        1 ZYU      0.058200
     19 HAN2        2.0120    0.8550   -0.5020 h1        1 ZYU      0.058200
     20 HAK1        1.9330   -2.1300    1.6390 h1        1 ZYU      0.058200
     21 HAK2        2.0960   -0.9980    3.0810 h1        1 ZYU      0.058200
     22 HAP1       -0.2520   -1.9640    2.7440 h1        1 ZYU      0.063950
     23 HAP2       -0.1540   -0.1410    2.8140 h1        1 ZYU      0.063950
     24 H2         -4.6040    0.3090   -0.5730 h5        1 ZYU      0.055100
     25 H9         -5.3440   -3.8470    2.0230 hn        1 ZYU      0.320700
     26 H8         -3.2690   -4.9320    3.1210 h5        1 ZYU      0.074800
@<TRIPOS>BOND
     1    1    2 1   
     2    1   15 1   
     3    1   16 1   
     4    1   17 1   
     5    2    3 1   
     6    2   18 1   
     7    2   19 1   
     8    3    4 1   
     9    4    5 1   
    10    4   20 1   
    11    4   21 1   
    12    5   15 1   
    13    5   22 1   
    14    5   23 1   
    15    6    7 ar  
    16    6   11 ar  
    17    6   15 1   
    18    7    8 ar  
    19    8    9 ar  
    20    8   24 1   
    21    9   10 ar  
    22   10   11 ar  
    23   10   14 1   
    24   11   12 1   
    25   12   13 2   
    26   13   14 1   
    27   13   26 1   
    28   14   25 1   
@<TRIPOS>SUBSTRUCTURE
     1 ZYU         1 TEMP              0 ****  ****    0 ROOT
