@<TRIPOS>MOLECULE
ZYU
   26    28     1     0     0
SMALL
bcc


@<TRIPOS>ATOM
      1 CAO         0.0500    0.0570    0.0340 c3        1 ZYU      0.154300
      2 CAN         1.5780   -0.0640   -0.0270 c3        1 ZYU      0.121400
      3 OAL         2.1600   -0.0920    1.2710 os        1 ZYU     -0.414600
      4 CAK         1.6310   -1.1470    2.0640 c3        1 ZYU      0.121400
      5 CAP         0.1040   -1.0540    2.1910 c3        1 ZYU      0.154300
      6 C6         -1.9480   -1.0880    0.8590 ca        1 ZYU      0.730200
      7 N1         -2.7130   -0.2080    0.1410 nb        1 ZYU     -0.778000
      8 C2         -4.0500   -0.4370    0.0380 ca        1 ZYU      0.675900
      9 N3         -4.7980   -1.4320    0.5630 nb        1 ZYU     -0.716000
     10 C4         -4.0510   -2.3150    1.2900 ca        1 ZYU      0.437800
     11 C5         -2.6040   -2.1990    1.4900 ca        1 ZYU     -0.185200
     12 N7         -2.1580   -3.2770    2.2690 nc        1 ZYU     -0.540100
     13 C8         -3.2530   -4.0060    2.5340 cd        1 ZYU      0.406700
     14 N9         -4.4320   -3.4770    1.9700 na        1 ZYU     -0.379000
     15 N6         -0.5450   -0.9650    0.8900 nh        1 ZYU     -0.726300
     16 HAO1       -0.3510   -0.0670   -1.0100 h1        1 ZYU      0.063950
     17 HAO2       -0.2170    1.0910    0.3960 h1        1 ZYU      0.063950
     18 HAN1        1.8830   -0.9810   -0.5960 h1        1 ZYU      0.058200
     19 HAN2        2.0110    0.8520   -0.5090 h1        1 ZYU      0.058200
     20 HAK1        1.9330   -2.1350    1.6290 h1        1 ZYU      0.058200
     21 HAK2        2.1020   -1.0060    3.0720 h1        1 ZYU      0.058200
     22 HAP1       -0.2480   -1.9680    2.7400 h1        1 ZYU      0.063950
     23 HAP2       -0.1480   -0.1450    2.8130 h1        1 ZYU      0.063950
     24 H2         -4.6060    0.3150   -0.5620 h5        1 ZYU      0.055100
     25 H9         -5.3460   -3.8410    2.0330 hn        1 ZYU      0.320700
     26 H8         -3.2690   -4.9300    3.1250 h5        1 ZYU      0.074800
@<TRIPOS>BOND
     1    1    2 1   
     2    1   15 1   
     3    1   16 1   
     4    1   17 1   
     5    2    3 1   
     6    2   18 1   
     7    2   19 1   
     8    3    4 1   
     9    4    5 1   
    10    4   20 1   
    11    4   21 1   
    12    5   15 1   
    13    5   22 1   
    14    5   23 1   
    15    6    7 ar  
    16    6   11 ar  
    17    6   15 1   
    18    7    8 ar  
    19    8    9 ar  
    20    8   24 1   
    21    9   10 ar  
    22   10   11 ar  
    23   10   14 1   
    24   11   12 1   
    25   12   13 2   
    26   13   14 1   
    27   13   26 1   
    28   14   25 1   
@<TRIPOS>SUBSTRUCTURE
     1 ZYU         1 TEMP              0 ****  ****    0 ROOT
