@<TRIPOS>MOLECULE
ZYV
   32    34     1     0     0
SMALL
bcc


@<TRIPOS>ATOM
      1 C5          0.0040   -0.0540    0.0380 ca        1 ZYV     -0.308800
      2 N7          1.3710   -0.3020   -0.0160 na        1 ZYV     -0.274300
      3 C8          1.7890   -0.4870    1.3160 cc        1 ZYV      0.454700
      4 N9          0.8070   -0.3690    2.2220 nd        1 ZYV     -0.602700
      5 C4         -0.3640   -0.0920    1.4680 ca        1 ZYV      0.570300
      6 N3         -1.6440    0.1180    1.8760 nb        1 ZYV     -0.606000
      7 C2         -2.5140    0.3550    0.8690 ca        1 ZYV      0.635900
      8 N1         -2.2840    0.4180   -0.4750 nb        1 ZYV     -0.723000
      9 C6         -1.0140    0.2080   -0.9140 ca        1 ZYV      0.609200
     10 N6         -0.6760    0.1970   -2.3140 nh        1 ZYV     -0.729300
     11 CAG        -1.8000   -0.1120   -3.1940 c3        1 ZYV      0.144800
     12 CAF        -0.0250    1.4370   -2.7460 c3        1 ZYV      0.124800
     13 CAE         0.4640    1.3150   -4.1890 c3        1 ZYV      0.121400
     14 OAL        -0.5540    0.8930   -5.1000 os        1 ZYV     -0.430600
     15 CAP        -1.3670   -0.1840   -4.6670 c3        1 ZYV      0.122100
     16 CAD        -0.6450   -1.5210   -4.9360 c3        1 ZYV      0.061800
     17 NAA        -0.1700   -1.6050   -6.3470 nz        1 ZYV     -0.834600
     18 H7          1.9170   -0.3870   -0.8300 hn        1 ZYV      0.310700
     19 H8          2.8400   -0.7010    1.5650 h5        1 ZYV      0.087800
     20 H2         -3.5700    0.5320    1.1740 h5        1 ZYV      0.073100
     21 HAG1       -2.6200    0.6640   -3.1330 h1        1 ZYV      0.088700
     22 HAG2       -2.2340   -1.1020   -2.8820 h1        1 ZYV      0.088700
     23 HAF1       -0.7190    2.3230   -2.6680 h1        1 ZYV      0.077200
     24 HAF2        0.8610    1.6290   -2.0800 h1        1 ZYV      0.077200
     25 HAP        -2.2890   -0.1040   -5.3160 h1        1 ZYV      0.100700
     26 HAE1        1.3230    0.5960   -4.2630 h1        1 ZYV      0.064200
     27 HAE2        0.7670    2.3240   -4.5820 h1        1 ZYV      0.064200
     28 HAD1       -1.3450   -2.3800   -4.7370 hx        1 ZYV      0.121200
     29 HAD2        0.2540   -1.6090   -4.2600 hx        1 ZYV      0.121200
     30 HAA1        0.4560   -2.4040   -6.4700 hn        1 ZYV      0.464133
     31 HAA2        0.3290   -0.7340   -6.5790 hn        1 ZYV      0.464133
     32 HAA3       -0.9670   -1.6980   -6.9850 hn        1 ZYV      0.464133
@<TRIPOS>BOND
     1    1    2 1   
     2    1    5 ar  
     3    1    9 ar  
     4    2    3 1   
     5    2   18 1   
     6    3    4 2   
     7    3   19 1   
     8    4    5 1   
     9    5    6 ar  
    10    6    7 ar  
    11    7    8 ar  
    12    7   20 1   
    13    8    9 ar  
    14    9   10 1   
    15   10   11 1   
    16   10   12 1   
    17   11   15 1   
    18   11   21 1   
    19   11   22 1   
    20   12   13 1   
    21   12   23 1   
    22   12   24 1   
    23   13   14 1   
    24   13   26 1   
    25   13   27 1   
    26   14   15 1   
    27   15   16 1   
    28   15   25 1   
    29   16   17 1   
    30   16   28 1   
    31   16   29 1   
    32   17   30 1   
    33   17   31 1   
    34   17   32 1   
@<TRIPOS>SUBSTRUCTURE
     1 ZYV         1 TEMP              0 ****  ****    0 ROOT
