@<TRIPOS>MOLECULE
ZYV
   31    27     1     0     0
SMALL
bcc


@<TRIPOS>ATOM
      1 C5          0.5130   -0.1060    2.4420 c1        1 ZYV     -0.119000
      2 N7          1.7060   -0.7650    2.4100 n1        1 ZYV     -0.155000
      3 C8          2.0520   -1.0690    3.6880 c1        1 ZYV      0.212400
      4 N9          1.0820   -0.6030    4.5080 ne        1 ZYV     -0.390400
      5 C4          0.1270   -0.0050    3.7350 cg        1 ZYV      0.369800
      6 N3         -1.0350    0.6110    4.0470 n1        1 ZYV     -0.480800
      7 C2         -1.8220    1.1330    3.0600 c1        1 ZYV      0.341300
      8 N1         -1.4350    1.0330    1.7430 n1        1 ZYV     -0.513800
      9 C6         -0.2910    0.4270    1.4300 c1        1 ZYV      0.156800
     10 N6         -0.0430    0.3260   -0.0300 n3        1 ZYV     -0.585200
     11 CAG        -1.1540   -0.2950   -0.6660 c3        1 ZYV      0.137800
     12 CAF         0.2320    1.5950   -0.5480 c3        1 ZYV      0.128800
     13 CAE         0.3640    1.5870   -2.0580 c3        1 ZYV      0.124400
     14 OAL        -0.7390    0.9670   -2.6960 os        1 ZYV     -0.415600
     15 CAP        -1.0180   -0.3030   -2.1810 c3        1 ZYV      0.095100
     16 CAD         0.1340   -1.2760   -2.5760 c3        1 ZYV      0.127800
     17 NAA         0.0950   -1.5180   -3.9430 n3        1 ZYV     -0.895800
     18 H7          2.2110   -0.9770    1.6250 DU        1 ZYV      0.240500
     19 H8          2.8890   -1.5180    3.9720 DU        1 ZYV      0.240500
     20 H2         -2.6430    1.5650    3.2850 ha        1 ZYV      0.138500
     21 HAG1       -1.2260   -1.2580   -0.3360 h1        1 ZYV      0.058200
     22 HAG2       -1.9760    0.1910   -0.4210 h1        1 ZYV      0.058200
     23 HAF1        1.0700    1.9220   -0.1570 h1        1 ZYV      0.059200
     24 HAF2       -0.5040    2.2130   -0.2940 h1        1 ZYV      0.059200
     25 HAP        -1.8380   -0.6180   -2.5660 h1        1 ZYV      0.076700
     26 HAE1        0.4320    2.5140   -2.3720 h1        1 ZYV      0.056200
     27 HAE2        1.1970    1.0990   -2.3060 h1        1 ZYV      0.056200
     28 HAD1        0.9790   -0.8810   -2.3440 h1        1 ZYV      0.058200
     29 HAD2        0.0250   -2.1370   -2.0840 h1        1 ZYV      0.058200
     30 HAA1        0.9630   -1.6080   -4.2660 hn        1 ZYV      0.349300
     31 HAA2       -0.3470   -2.2480   -4.0970 hn        1 ZYV      0.349300
@<TRIPOS>BOND
     1    1    9 3   
     2    2    3 2   
     3    3    4 2   
     4    4    5 1   
     5    5    6 3   
     6    7    8 3   
     7    7   20 1   
     8    9   10 1   
     9   10   11 1   
    10   10   12 1   
    11   11   15 1   
    12   11   21 1   
    13   11   22 1   
    14   12   13 1   
    15   12   23 1   
    16   12   24 1   
    17   13   14 1   
    18   13   26 1   
    19   13   27 1   
    20   14   15 1   
    21   15   16 1   
    22   15   25 1   
    23   16   17 1   
    24   16   28 1   
    25   16   29 1   
    26   17   30 1   
    27   17   31 1   
@<TRIPOS>SUBSTRUCTURE
     1 ZYV         1 TEMP              0 ****  ****    0 ROOT
