@<TRIPOS>MOLECULE
ZYV
   31    33     1     0     0
SMALL
bcc


@<TRIPOS>ATOM
      1 C5          1.8020   -0.3470    0.1680 ca        1 ZYV     -0.314800
      2 N7          1.7980   -1.6760    0.5790 na        1 ZYV     -0.258300
      3 C8          3.1330   -1.9940    0.8780 cc        1 ZYV      0.436700
      4 N9          4.0000   -0.9880    0.6680 nd        1 ZYV     -0.623700
      5 C4          3.2030    0.0970    0.2170 ca        1 ZYV      0.555300
      6 N3          3.5550    1.3680   -0.1290 nb        1 ZYV     -0.633000
      7 C2          2.5130    2.1420   -0.5000 ca        1 ZYV      0.628900
      8 N1          1.1830    1.8320   -0.5880 nb        1 ZYV     -0.724000
      9 C6          0.8000    0.5740   -0.2530 ca        1 ZYV      0.643200
     10 N6         -0.5650    0.1360   -0.2440 nh        1 ZYV     -0.727300
     11 CAG        -1.5500    1.1940   -0.0340 c3        1 ZYV      0.143800
     12 CAF        -0.9030   -0.6860   -1.4050 c3        1 ZYV      0.134800
     13 CAE        -2.3320   -1.2300   -1.3010 c3        1 ZYV      0.126400
     14 OAL        -3.2840   -0.2010   -1.0790 os        1 ZYV     -0.411600
     15 CAP        -2.9860    0.6460    0.0290 c3        1 ZYV      0.129100
     16 CAD        -3.2550   -0.0590    1.3680 c3        1 ZYV      0.135800
     17 NAA        -4.6350   -0.4450    1.5340 n3        1 ZYV     -0.914800
     18 H7          0.9960   -2.2230    0.7500 hn        1 ZYV      0.317700
     19 H8          3.4200   -2.9920    1.2370 h5        1 ZYV      0.076800
     20 H2          2.7650    3.1860   -0.7830 h5        1 ZYV      0.059100
     21 HAG1       -1.3080    1.7060    0.9380 h1        1 ZYV      0.066200
     22 HAG2       -1.5170    1.9650   -0.8580 h1        1 ZYV      0.066200
     23 HAF1       -0.8100   -0.1000   -2.3650 h1        1 ZYV      0.052700
     24 HAF2       -0.1860   -1.5510   -1.4520 h1        1 ZYV      0.052700
     25 HAP        -3.7040    1.5070   -0.1070 h1        1 ZYV      0.095700
     26 HAE1       -2.6390   -1.6830   -2.2810 h1        1 ZYV      0.053200
     27 HAE2       -2.4060   -1.9970   -0.4850 h1        1 ZYV      0.053200
     28 HAD1       -2.5450   -0.9330    1.4580 h1        1 ZYV      0.035700
     29 HAD2       -3.0040    0.6610    2.1980 h1        1 ZYV      0.035700
     30 HAA1       -5.0190   -0.7820    0.6720 hn        1 ZYV      0.354300
     31 HAA2       -4.7180   -1.1540    2.2340 hn        1 ZYV      0.354300
@<TRIPOS>BOND
     1    1    2 1   
     2    1    5 ar  
     3    1    9 ar  
     4    2    3 1   
     5    2   18 1   
     6    3    4 2   
     7    3   19 1   
     8    4    5 1   
     9    5    6 ar  
    10    6    7 ar  
    11    7    8 ar  
    12    7   20 1   
    13    8    9 ar  
    14    9   10 1   
    15   10   11 1   
    16   10   12 1   
    17   11   15 1   
    18   11   21 1   
    19   11   22 1   
    20   12   13 1   
    21   12   23 1   
    22   12   24 1   
    23   13   14 1   
    24   13   26 1   
    25   13   27 1   
    26   14   15 1   
    27   15   16 1   
    28   15   25 1   
    29   16   17 1   
    30   16   28 1   
    31   16   29 1   
    32   17   30 1   
    33   17   31 1   
@<TRIPOS>SUBSTRUCTURE
     1 ZYV         1 TEMP              0 ****  ****    0 ROOT
