@<TRIPOS>MOLECULE
ZYV
   32    34     1     0     0
SMALL
bcc


@<TRIPOS>ATOM
      1 C5          0.0020   -0.0530    0.0380 ca        1 ZYV     -0.308800
      2 N7          1.3690   -0.3050   -0.0150 na        1 ZYV     -0.274300
      3 C8          1.7860   -0.4900    1.3180 cc        1 ZYV      0.454700
      4 N9          0.8030   -0.3680    2.2230 nd        1 ZYV     -0.602700
      5 C4         -0.3670   -0.0880    1.4680 ca        1 ZYV      0.570300
      6 N3         -1.6450    0.1250    1.8750 nb        1 ZYV     -0.606000
      7 C2         -2.5150    0.3640    0.8670 ca        1 ZYV      0.635900
      8 N1         -2.2830    0.4250   -0.4760 nb        1 ZYV     -0.723000
      9 C6         -1.0150    0.2110   -0.9140 ca        1 ZYV      0.609200
     10 N6         -0.6750    0.1980   -2.3150 nh        1 ZYV     -0.729300
     11 CAG        -1.7990   -0.1090   -3.1950 c3        1 ZYV      0.144800
     12 CAF        -0.0210    1.4360   -2.7470 c3        1 ZYV      0.124800
     13 CAE         0.4680    1.3120   -4.1900 c3        1 ZYV      0.121400
     14 OAL        -0.5500    0.8910   -5.1010 os        1 ZYV     -0.430600
     15 CAP        -1.3660   -0.1830   -4.6670 c3        1 ZYV      0.122100
     16 CAD        -0.6470   -1.5220   -4.9350 c3        1 ZYV      0.061800
     17 NAA        -0.1710   -1.6090   -6.3460 n4        1 ZYV     -0.834600
     18 H7          1.9150   -0.3920   -0.8280 hn        1 ZYV      0.310700
     19 H8          2.8360   -0.7070    1.5670 h5        1 ZYV      0.087800
     20 H2         -3.5700    0.5440    1.1710 h5        1 ZYV      0.073100
     21 HAG1       -2.6180    0.6690   -3.1350 h1        1 ZYV      0.088700
     22 HAG2       -2.2360   -1.0980   -2.8820 h1        1 ZYV      0.088700
     23 HAF1       -0.7130    2.3240   -2.6700 h1        1 ZYV      0.077200
     24 HAF2        0.8650    1.6270   -2.0810 h1        1 ZYV      0.077200
     25 HAP        -2.2870   -0.1020   -5.3170 h1        1 ZYV      0.100700
     26 HAE1        1.3260    0.5910   -4.2630 h1        1 ZYV      0.064200
     27 HAE2        0.7740    2.3190   -4.5830 h1        1 ZYV      0.064200
     28 HAD1        0.2510   -1.6120   -4.2580 hx        1 ZYV      0.121200
     29 HAD2       -1.3490   -2.3800   -4.7350 hx        1 ZYV      0.121200
     30 HAA1        0.3300   -0.7390   -6.5780 hn        1 ZYV      0.464133
     31 HAA2       -0.9680   -1.7010   -6.9830 hn        1 ZYV      0.464133
     32 HAA3        0.4530   -2.4100   -6.4680 hn        1 ZYV      0.464133
@<TRIPOS>BOND
     1    1    2 1   
     2    1    5 ar  
     3    1    9 ar  
     4    2    3 1   
     5    2   18 1   
     6    3    4 2   
     7    3   19 1   
     8    4    5 1   
     9    5    6 ar  
    10    6    7 ar  
    11    7    8 ar  
    12    7   20 1   
    13    8    9 ar  
    14    9   10 1   
    15   10   11 1   
    16   10   12 1   
    17   11   15 1   
    18   11   21 1   
    19   11   22 1   
    20   12   13 1   
    21   12   23 1   
    22   12   24 1   
    23   13   14 1   
    24   13   26 1   
    25   13   27 1   
    26   14   15 1   
    27   15   16 1   
    28   15   25 1   
    29   16   17 1   
    30   16   28 1   
    31   16   29 1   
    32   17   30 1   
    33   17   31 1   
    34   17   32 1   
@<TRIPOS>SUBSTRUCTURE
     1 ZYV         1 TEMP              0 ****  ****    0 ROOT
