@<TRIPOS>MOLECULE
ZYW
   33    35     1     0     0
SMALL
bcc


@<TRIPOS>ATOM
      1 BR          0.0750    0.0450    0.0500 br        1 ZYW     -0.041100
      2 CAM         1.9390    0.0330   -0.0040 ca        1 ZYW     -0.154200
      3 CAC         2.6430    0.0590    1.2410 ca        1 ZYW      0.457200
      4 NAJ         3.9650    0.0510    1.3910 nb        1 ZYW     -0.632000
      5 CAP         4.6690    0.0180    0.2180 ca        1 ZYW      0.434800
      6 NAK         6.0600   -0.0040    0.0040 na        1 ZYW     -0.096800
      7 NAI         6.3540   -0.0280   -1.2960 nc        1 ZYW     -0.474100
      8 CAD         5.2050   -0.0350   -2.0060 cd        1 ZYW      0.332800
      9 CAO         4.0660   -0.0080   -1.1070 ca        1 ZYW     -0.350200
     10 CAN         2.6610    0.0010   -1.2060 ca        1 ZYW      0.194600
     11 NAQ         1.9650   -0.0200   -2.4570 nh        1 ZYW     -0.620000
     12 CAH         2.1550   -1.2610   -3.1950 c3        1 ZYW      0.154800
     13 CAG         2.2120    1.1560   -3.2860 c3        1 ZYW      0.134800
     14 CAF         1.3750    1.1200   -4.5670 c3        1 ZYW      0.136400
     15 OAL         1.5370   -0.1130   -5.2800 os        1 ZYW     -0.467600
     16 CAR         1.2850   -1.2580   -4.4670 c3        1 ZYW      0.117100
     17 CAE         1.6620   -2.4780   -5.3270 c3        1 ZYW      0.097800
     18 NAA         0.9780   -2.4550   -6.6510 n4        1 ZYW     -0.832600
     19 HAC         2.0680    0.0900    2.1910 h4        1 ZYW      0.056100
     20 HAK         6.7750    0.0340    0.6970 hn        1 ZYW      0.352700
     21 HAD         5.2010   -0.0480   -3.0960 h4        1 ZYW      0.050800
     22 HAH1        1.8340   -2.1150   -2.5350 h1        1 ZYW      0.062700
     23 HAH2        3.2340   -1.4190   -3.4890 h1        1 ZYW      0.062700
     24 HAG1        3.3030    1.2520   -3.5600 h1        1 ZYW      0.071700
     25 HAG2        1.9160    2.0660   -2.6910 h1        1 ZYW      0.071700
     26 HAR         0.1930   -1.2820   -4.1920 h1        1 ZYW      0.081700
     27 HAF1        1.7380    1.8950   -5.2940 h1        1 ZYW      0.078700
     28 HAF2        0.2860    1.2670   -4.3440 h1        1 ZYW      0.078700
     29 HAE1        2.7750   -2.4770   -5.5190 hx        1 ZYW      0.119200
     30 HAE2        1.3740   -3.4210   -4.7820 hx        1 ZYW      0.119200
     31 HAA1        1.1750   -1.5520   -7.1090 hn        1 ZYW      0.467133
     32 HAA2       -0.0350   -2.5390   -6.5290 hn        1 ZYW      0.467133
     33 HAA3        1.3160   -3.2200   -7.2410 hn        1 ZYW      0.467133
@<TRIPOS>BOND
     1    1    2 1   
     2    2    3 ar  
     3    2   10 ar  
     4    3    4 ar  
     5    3   19 1   
     6    4    5 ar  
     7    5    6 1   
     8    5    9 ar  
     9    6    7 1   
    10    6   20 1   
    11    7    8 2   
    12    8    9 1   
    13    8   21 1   
    14    9   10 ar  
    15   10   11 1   
    16   11   12 1   
    17   11   13 1   
    18   12   16 1   
    19   12   22 1   
    20   12   23 1   
    21   13   14 1   
    22   13   24 1   
    23   13   25 1   
    24   14   15 1   
    25   14   27 1   
    26   14   28 1   
    27   15   16 1   
    28   16   17 1   
    29   16   26 1   
    30   17   18 1   
    31   17   29 1   
    32   17   30 1   
    33   18   31 1   
    34   18   32 1   
    35   18   33 1   
@<TRIPOS>SUBSTRUCTURE
     1 ZYW         1 TEMP              0 ****  ****    0 ROOT
