@<TRIPOS>MOLECULE
ZYW
   32    34     1     0     0
SMALL
bcc


@<TRIPOS>ATOM
      1 BR          1.2820    2.5260    0.0120 br        1 ZYW     -0.052100
      2 CAM         1.6540    0.7000    0.1110 ca        1 ZYW     -0.167200
      3 CAC         2.9920    0.3120    0.4190 ca        1 ZYW      0.453200
      4 NAJ         3.4410   -0.9370    0.5320 nb        1 ZYW     -0.659000
      5 CAP         2.4890   -1.8970    0.3220 ca        1 ZYW      0.431800
      6 NAK         2.6030   -3.2990    0.3600 na        1 ZYW     -0.113800
      7 NAI         1.4350   -3.8930    0.0960 nc        1 ZYW     -0.498100
      8 CAD         0.5030   -2.9430   -0.1250 cd        1 ZYW      0.355800
      9 CAO         1.0970   -1.6240    0.0010 ca        1 ZYW     -0.349200
     10 CAN         0.6740   -0.2830   -0.1060 ca        1 ZYW      0.226600
     11 NAQ        -0.6690    0.0970   -0.4170 nh        1 ZYW     -0.624000
     12 CAH        -1.6220   -0.2930    0.6190 c3        1 ZYW      0.139800
     13 CAG        -1.0830   -0.3190   -1.7550 c3        1 ZYW      0.136800
     14 CAF        -2.5390    0.0640   -2.0470 c3        1 ZYW      0.125400
     15 OAL        -3.4170   -0.4010   -1.0290 os        1 ZYW     -0.401600
     16 CAR        -3.0630    0.1180    0.2550 c3        1 ZYW      0.138100
     17 CAE        -4.0440   -0.5110    1.2610 c3        1 ZYW      0.164800
     18 NAA        -5.2880    0.2070    1.3650 n3        1 ZYW     -0.911800
     19 HAC         3.7600    1.0950    0.5880 h4        1 ZYW      0.042100
     20 HAK         3.4220   -3.8290    0.5440 hn        1 ZYW      0.339700
     21 HAD        -0.5350   -3.1870   -0.3620 h4        1 ZYW      0.063800
     22 HAH1       -1.6010   -1.4060    0.8050 h1        1 ZYW      0.048700
     23 HAH2       -1.3250    0.2310    1.5690 h1        1 ZYW      0.048700
     24 HAG1       -0.4150    0.1990   -2.4960 h1        1 ZYW      0.049700
     25 HAG2       -0.9680   -1.4340   -1.8950 h1        1 ZYW      0.049700
     26 HAR        -3.1430    1.2400    0.2330 h1        1 ZYW      0.059700
     27 HAF1       -2.6410    1.1750   -2.1610 h1        1 ZYW      0.059700
     28 HAF2       -2.8920   -0.4540   -2.9770 h1        1 ZYW      0.059700
     29 HAE1       -4.2810   -1.5570    0.9120 h1        1 ZYW      0.038200
     30 HAE2       -3.5030   -0.5920    2.2510 h1        1 ZYW      0.038200
     31 HAA1       -5.8910   -0.2320    2.0310 hn        1 ZYW      0.352800
     32 HAA2       -5.1400    1.1620    1.6240 hn        1 ZYW      0.352800
@<TRIPOS>BOND
     1    1    2 1   
     2    2    3 ar  
     3    2   10 ar  
     4    3    4 ar  
     5    3   19 1   
     6    4    5 ar  
     7    5    6 1   
     8    5    9 ar  
     9    6    7 1   
    10    6   20 1   
    11    7    8 2   
    12    8    9 1   
    13    8   21 1   
    14    9   10 ar  
    15   10   11 1   
    16   11   12 1   
    17   11   13 1   
    18   12   16 1   
    19   12   22 1   
    20   12   23 1   
    21   13   14 1   
    22   13   24 1   
    23   13   25 1   
    24   14   15 1   
    25   14   27 1   
    26   14   28 1   
    27   15   16 1   
    28   16   17 1   
    29   16   26 1   
    30   17   18 1   
    31   17   29 1   
    32   17   30 1   
    33   18   31 1   
    34   18   32 1   
@<TRIPOS>SUBSTRUCTURE
     1 ZYW         1 TEMP              0 ****  ****    0 ROOT
