@<TRIPOS>MOLECULE
ZYX
   27    27     1     0     0
SMALL
bcc


@<TRIPOS>ATOM
      1 C1          0.0280   -0.0760   -0.0530 ca        1 ZYX     -0.509500
      2 C2          1.4190   -0.2730    0.0780 ca        1 ZYX      0.023000
      3 C3          2.0290   -0.3010    1.3260 ca        1 ZYX     -0.140000
      4 C4          1.2650   -0.1320    2.4900 ca        1 ZYX      0.010700
      5 C5         -0.1230    0.0280    2.3810 ca        1 ZYX     -0.140000
      6 C6         -0.7280    0.0600    1.1290 ca        1 ZYX      0.023000
      7 S          -0.6470    0.1670   -1.5110 sy        1 ZYX      1.474200
      8 O1         -1.8810    0.7720   -1.4560 o         1 ZYX     -0.543800
      9 O2          0.2700    0.3750   -2.5150 o         1 ZYX     -0.543800
     10 N1         -1.1730   -1.6170   -1.9060 nz        1 ZYX     -0.795500
     11 C7          1.9220   -0.0240    3.8250 c3        1 ZYX     -0.083100
     12 C8          2.6070   -1.3310    4.2200 c3        1 ZYX      0.104800
     13 N2          3.3110   -1.2370    5.5320 nz        1 ZYX     -0.838600
     14 H2          2.0450   -0.3680   -0.8320 ha        1 ZYX      0.184500
     15 H3          3.1230   -0.4220    1.3890 ha        1 ZYX      0.172000
     16 H5         -0.7450    0.1610    3.2840 ha        1 ZYX      0.172000
     17 H6         -1.8210    0.2320    1.0620 ha        1 ZYX      0.184500
     18 HN11       -2.1830   -1.6630   -2.0550 hn        1 ZYX      0.465133
     19 HN12       -0.7270   -1.9350   -2.7700 hn        1 ZYX      0.465133
     20 H71         1.1580    0.2590    4.6020 hc        1 ZYX      0.097700
     21 H72         2.6750    0.8140    3.7750 hc        1 ZYX      0.097700
     22 H81         3.3720   -1.6190    3.4400 hx        1 ZYX      0.118700
     23 H82         1.8430   -2.1590    4.3010 hx        1 ZYX      0.118700
     24 HN21        3.7550   -2.1370    5.7550 hn        1 ZYX      0.472800
     25 HN22        4.0350   -0.5090    5.5010 hn        1 ZYX      0.472800
     26 H13        -0.9400   -2.2840   -1.1770 hn        1 ZYX      0.465133
     27 H23         2.6470   -1.0020    6.2800 hn        1 ZYX      0.472800
@<TRIPOS>BOND
     1    1    2 ar  
     2    1    6 ar  
     3    1    7 1   
     4    2    3 ar  
     5    2   14 1   
     6    3    4 ar  
     7    3   15 1   
     8    4    5 ar  
     9    4   11 1   
    10    5    6 ar  
    11    5   16 1   
    12    6   17 1   
    13    7    8 2   
    14    7    9 2   
    15    7   10 1   
    16   10   18 1   
    17   10   19 1   
    18   10   26 1   
    19   11   12 1   
    20   11   20 1   
    21   11   21 1   
    22   12   13 1   
    23   12   22 1   
    24   12   23 1   
    25   13   24 1   
    26   13   25 1   
    27   13   27 1   
@<TRIPOS>SUBSTRUCTURE
     1 ZYX         1 TEMP              0 ****  ****    0 ROOT
