@<TRIPOS>MOLECULE
ZYX
   25    25     1     0     0
SMALL
bcc


@<TRIPOS>ATOM
      1 C1          1.7780   -1.1070    2.6870 ca        1 ZYX     -0.390500
      2 C2          0.7720   -0.4290    1.9900 ca        1 ZYX     -0.014000
      3 C3          0.7700   -0.3810    0.5990 ca        1 ZYX     -0.157500
      4 C4          1.7860   -1.0140   -0.1280 ca        1 ZYX     -0.008300
      5 C5          2.8040   -1.6860    0.5620 ca        1 ZYX     -0.157500
      6 C6          2.7960   -1.7280    1.9520 ca        1 ZYX     -0.014000
      7 S           1.7880   -1.1410    4.3760 sy        1 ZYX      1.528200
      8 O1          3.1200   -1.3100    4.8100 o         1 ZYX     -0.658800
      9 O2          1.0810   -0.0140    4.8480 o         1 ZYX     -0.658800
     10 N1          0.9530   -2.4640    4.7210 n3        1 ZYX     -1.026700
     11 C7          1.7980   -0.9640   -1.6140 c3        1 ZYX     -0.095100
     12 C8          1.4040   -2.3240   -2.2100 c3        1 ZYX      0.157800
     13 N2          1.4080   -2.4140   -3.6440 n3        1 ZYX     -0.906800
     14 H2         -0.0210    0.0900    2.5570 ha        1 ZYX      0.153000
     15 H3         -0.0290    0.1600    0.0700 ha        1 ZYX      0.141000
     16 H5          3.6130   -2.1770    0.0010 ha        1 ZYX      0.141000
     17 H6          3.6130   -2.2410    2.4900 ha        1 ZYX      0.153000
     18 HN11        1.3640   -3.3560    4.8380 hn        1 ZYX      0.446800
     19 HN12       -0.0250   -2.4720    4.8640 hn        1 ZYX      0.446800
     20 H71         2.8270   -0.6820   -1.9650 hc        1 ZYX      0.053700
     21 H72         1.0910   -0.1720   -1.9790 hc        1 ZYX      0.053700
     22 H81         2.1120   -3.1040   -1.8100 h1        1 ZYX      0.057700
     23 H82         0.3680   -2.5840   -1.8500 h1        1 ZYX      0.057700
     24 HN21        2.3190   -2.2310   -4.0180 hn        1 ZYX      0.348800
     25 HN22        0.7550   -1.7750   -4.0520 hn        1 ZYX      0.348800
@<TRIPOS>BOND
     1    1    2 ar  
     2    1    6 ar  
     3    1    7 1   
     4    2    3 ar  
     5    2   14 1   
     6    3    4 ar  
     7    3   15 1   
     8    4    5 ar  
     9    4   11 1   
    10    5    6 ar  
    11    5   16 1   
    12    6   17 1   
    13    7    8 2   
    14    7    9 2   
    15    7   10 1   
    16   10   18 1   
    17   10   19 1   
    18   11   12 1   
    19   11   20 1   
    20   11   21 1   
    21   12   13 1   
    22   12   22 1   
    23   12   23 1   
    24   13   24 1   
    25   13   25 1   
@<TRIPOS>SUBSTRUCTURE
     1 ZYX         1 TEMP              0 ****  ****    0 ROOT
