@<TRIPOS>MOLECULE
ZYX
   27    27     1     0     0
SMALL
bcc


@<TRIPOS>ATOM
      1 C1         -0.0610   -0.0680    0.0000 ca        1 ZYX     -0.509500
      2 C2          1.3410    0.0700   -0.0590 ca        1 ZYX      0.023000
      3 C3          2.1200    0.0330    1.0930 ca        1 ZYX     -0.140000
      4 C4          1.5180   -0.1350    2.3470 ca        1 ZYX      0.010700
      5 C5          0.1280   -0.3070    2.4220 ca        1 ZYX     -0.140000
      6 C6         -0.6450   -0.2730    1.2680 ca        1 ZYX      0.023000
      7 S          -0.9820    0.1800   -1.3140 sy        1 ZYX      1.474200
      8 O1         -2.3120    0.3850   -1.0250 o         1 ZYX     -0.543800
      9 O2         -0.3160    0.7920   -2.3500 o         1 ZYX     -0.543800
     10 N1         -1.0570   -1.6000   -1.9770 n4        1 ZYX     -0.795500
     11 C7          2.3420   -0.0320    3.5870 c3        1 ZYX     -0.083100
     12 C8          2.3410   -1.3430    4.3700 c3        1 ZYX      0.104800
     13 N2          3.1220   -1.2550    5.6380 n4        1 ZYX     -0.838600
     14 H2          1.8330    0.2490   -1.0370 ha        1 ZYX      0.184500
     15 H3          3.2130    0.1680    1.0090 ha        1 ZYX      0.172000
     16 H5         -0.3680   -0.4340    3.3990 ha        1 ZYX      0.172000
     17 H6         -1.7470   -0.3710    1.3510 ha        1 ZYX      0.184500
     18 HN11       -0.6780   -1.6400   -2.9260 hn        1 ZYX      0.465133
     19 HN12       -0.5430   -2.2690   -1.4130 hn        1 ZYX      0.465133
     20 H71         1.9190    0.8010    4.2170 hc        1 ZYX      0.097700
     21 H72         3.3970    0.2540    3.3170 hc        1 ZYX      0.097700
     22 H81         2.7960   -2.1680    3.7460 hx        1 ZYX      0.118700
     23 H82         1.2830   -1.6350    4.6380 hx        1 ZYX      0.118700
     24 HN21        3.0930   -2.1580    6.1290 hn        1 ZYX      0.472800
     25 HN22        4.1020   -1.0180    5.4410 hn        1 ZYX      0.472800
     26 H13        -2.0270   -1.9190   -2.0270 hn        1 ZYX      0.465133
     27 H23         2.7300   -0.5320    6.2530 hn        1 ZYX      0.472800
@<TRIPOS>BOND
     1    1    2 ar  
     2    1    6 ar  
     3    1    7 1   
     4    2    3 ar  
     5    2   14 1   
     6    3    4 ar  
     7    3   15 1   
     8    4    5 ar  
     9    4   11 1   
    10    5    6 ar  
    11    5   16 1   
    12    6   17 1   
    13    7    8 2   
    14    7    9 2   
    15    7   10 1   
    16   10   18 1   
    17   10   19 1   
    18   10   26 1   
    19   11   12 1   
    20   11   20 1   
    21   11   21 1   
    22   12   13 1   
    23   12   22 1   
    24   12   23 1   
    25   13   24 1   
    26   13   25 1   
    27   13   27 1   
@<TRIPOS>SUBSTRUCTURE
     1 ZYX         1 TEMP              0 ****  ****    0 ROOT
