@<TRIPOS>MOLECULE
ZYY
   61    59     1     0     0
SMALL
bcc


@<TRIPOS>ATOM
      1 ND         -0.3690   -0.5580   -0.4040 nh        1 ZYY     -0.764000
      2 NE          1.9230   -0.4990    4.7810 ns        1 ZYY     -0.230000
      3 NF         -1.5810   -3.9360   -0.0800 n         1 ZYY     -0.154000
      4 NG          0.4120   -1.3630    2.5400 na        1 ZYY     -0.009000
      5 CAA         2.9740    3.4970    5.8780 c3        1 ZYY     -0.275000
      6 CAB         4.2680    0.4440    7.8060 c2        1 ZYY     -0.423000
      7 CAC         0.3970    3.4130    3.1200 c3        1 ZYY     -0.275000
      8 CAD         0.7460   -0.4980   -1.3100 c3        1 ZYY     -0.082000
      9 CAL         0.2190   -5.7290   -3.4130 c1        1 ZYY     -0.290000
     10 CAM        -1.6060   -7.1480   -3.7690 c2        1 ZYY     -0.305000
     11 CAN        -0.1690   -5.4340   -2.2720 c1        1 ZYY     -0.096000
     12 CAO        -2.0360   -6.8210   -2.5080 c1        1 ZYY     -0.087000
     13 CAP        -2.2720   -4.9090   -0.9600 c3        1 ZYY      0.017000
     14 CAQ         1.7830    0.2540    3.7340 c1        1 ZYY     -0.043000
     15 NAR        -1.2860   -2.7660   -0.5630 n2        1 ZYY      0.091000
     16 CAS         1.2290   -1.7630    4.9150 c2        1 ZYY      0.325000
     17 CAT        -0.4040   -6.5880   -4.3400 c2        1 ZYY      0.405000
     18 CAU        -1.3210   -5.9620   -1.5310 c3        1 ZYY     -0.024000
     19 CAV        -0.0340   -3.4730    3.4060 c2        1 ZYY      0.283000
     20 CAW         0.5610   -2.2380    3.6950 c2        1 ZYY     -0.277000
     21 CAX        -0.6440   -1.8150    0.1690 c2        1 ZYY     -0.014000
     22 CAY        -1.2290   -4.3950    1.2460 c2        1 ZYY      0.341000
     23 CAZ        -0.5450   -3.3970    2.0380 c2        1 ZYY     -0.259000
     24 CBA        -0.2510   -2.1240    1.5250 c2        1 ZYY      0.108000
     25 CBC         0.8500   -0.1120    2.6290 c2        1 ZYY      0.129000
     26 SBH        -1.5110    0.6540   -0.2530 s6        1 ZYY      2.815000
     27 HAA         2.6070    3.9860    6.8060 hc        1 ZYY      0.069625
     28 HAAA        2.2170    3.6130    5.0690 hc        1 ZYY      0.069625
     29 HAAB        3.9310    3.9660    5.5610 hc        1 ZYY      0.069625
     30 HAB         4.7250    1.4360    7.9920 ha        1 ZYY      0.236000
     31 HABA        3.1400    2.4120    6.0710 hc        1 ZYY      0.069625
     32 HABB        4.5310   -0.2850    8.5990 ha        1 ZYY      0.236000
     33 HAC        -0.3870    3.0700    2.4060 hc        1 ZYY      0.069625
     34 HACA       -0.0820    3.8220    4.0350 hc        1 ZYY      0.069625
     35 HACB        1.0160    4.2040    2.6420 hc        1 ZYY      0.069625
     36 HAD         1.5460   -1.2280   -1.0160 h1        1 ZYY      0.098667
     37 HADA        1.1710    2.6520    0.7330 ha        1 ZYY      0.001750
     38 HADB        0.4280   -0.7330   -2.3640 h1        1 ZYY      0.098667
     39 HAE        -1.2620    0.9220   -2.6110 h1        1 ZYY      0.181667
     40 HAEA       -0.4800    2.2340   -1.6690 h1        1 ZYY      0.181667
     41 HAEB       -2.2580    2.1790   -1.8390 h1        1 ZYY      0.181667
     42 HAL        -0.8780   -0.5580   -4.3470 ha        1 ZYY      0.001750
     43 HAM        -2.1830   -7.8530   -4.3890 ha        1 ZYY      0.196000
     44 HAN        -0.3880   -0.1110   -4.4840 ha        1 ZYY      0.001750
     45 HAO        -0.9550   -6.6410   -0.6950 hc        1 ZYY      0.194000
     46 HAP        -3.0450   -5.4310   -0.3220 h1        1 ZYY      0.157000
     47 HAPA       -2.7900   -4.3610   -1.7970 h1        1 ZYY      0.157000
     48 HAQ         1.0490    2.5510    3.3940 hc        1 ZYY      0.069625
     49 HAQA        1.2430    2.2450    0.1930 ha        1 ZYY      0.001750
     50 HBC         0.6290    0.6700    1.8590 h4        1 ZYY      0.260000
     51 OAF         1.2580   -2.3970    5.9710 o         1 ZYY     -0.225000
     52 OAG        -1.5060   -5.5410    1.6250 o         1 ZYY     -0.304000
     53 OAJ        -0.1060   -4.5060    4.2440 oh        1 ZYY     -0.146000
     54 HOAJ       -0.5950   -5.2380    3.8050 ho        1 ZYY      0.287000
     55 HBB         2.6140   -0.2070    5.6210 hn        1 ZYY      0.377000
     56 HD1         1.1790    0.5400   -1.2750 h1        1 ZYY      0.098667
     57 CBB         3.5190    0.1640    6.7970 c1        1 ZYY      0.105000
     58 CAE        -1.3530    1.5310   -1.6740 c3        1 ZYY     -0.973000
     59 OAH        -2.7840    0.0860   -0.1430 o         1 ZYY     -0.923500
     60 OAI        -1.0780    1.4340    0.8400 o         1 ZYY     -0.923500
     61 FAK         0.0090   -6.8410   -5.5670 f         1 ZYY     -0.024000
@<TRIPOS>BOND
     1    1    8 1   
     2    1   21 1   
     3    1   26 1   
     4    2   14 1   
     5    2   16 1   
     6    2   55 1   
     7    3   13 1   
     8    3   15 1   
     9    3   22 1   
    10    4   20 1   
    11    4   24 1   
    12    4   25 1   
    13    5   27 1   
    14    5   28 1   
    15    5   29 1   
    16    5   31 1   
    17    6   30 1   
    18    6   32 1   
    19    6   57 1   
    20    7   33 1   
    21    7   34 1   
    22    7   35 1   
    23    7   48 1   
    24    8   36 1   
    25    8   38 1   
    26    8   56 1   
    27    9   11 1   
    28    9   17 1   
    29   10   12 1   
    30   10   17 1   
    31   10   43 1   
    32   11   18 1   
    33   12   18 1   
    34   13   18 1   
    35   13   46 1   
    36   13   47 1   
    37   14   25 1   
    38   15   21 1   
    39   16   20 1   
    40   16   51 1   
    41   17   61 1   
    42   18   45 1   
    43   19   20 1   
    44   19   23 1   
    45   19   53 1   
    46   21   24 1   
    47   22   23 1   
    48   22   52 1   
    49   23   24 1   
    50   25   50 1   
    51   26   58 1   
    52   26   59 1   
    53   26   60 1   
    54   37   49 1   
    55   39   58 1   
    56   40   58 1   
    57   41   58 1   
    58   42   44 1   
    59   53   54 1   
@<TRIPOS>SUBSTRUCTURE
     1 ZYY         1 TEMP              0 ****  ****    0 ROOT
