@<TRIPOS>MOLECULE
ZYY
   60    63     1     0     0
SMALL
bcc


@<TRIPOS>ATOM
      1 ND        -40.0390   32.0220  -22.6650 nh        1 ZYY     -0.736500
      2 NE        -38.0790   28.1530  -18.9710 n         1 ZYY     -0.464800
      3 NF        -38.1720   34.6990  -21.1450 n         1 ZYY     -0.197800
      4 NG        -38.4930   30.6610  -20.3020 na        1 ZYY     -0.004100
      5 CAA       -37.3950   25.7780  -19.2440 c3        1 ZYY     -0.110100
      6 CAB       -39.2370   26.3620  -17.6750 c3        1 ZYY     -0.110100
      7 CAC       -38.0180   28.9800  -22.0790 c3        1 ZYY     -0.128100
      8 CAD       -41.3770   31.8400  -22.1700 c3        1 ZYY      0.194100
      9 CAE       -39.9840   33.2300  -25.0110 c3        1 ZYY     -0.371300
     10 OAH       -38.2940   31.4600  -24.3800 o         1 ZYY     -0.645800
     11 OAI       -40.5560   30.7880  -24.7580 o         1 ZYY     -0.645800
     12 CAL       -41.1930   38.2460  -21.0730 ca        1 ZYY     -0.172000
     13 CAM       -40.1560   38.0240  -18.8730 ca        1 ZYY     -0.172000
     14 CAN       -40.1820   37.4600  -21.6170 ca        1 ZYY     -0.083000
     15 CAO       -39.1530   37.2430  -19.4370 ca        1 ZYY     -0.083000
     16 CAP       -38.0500   36.1460  -21.4020 c3        1 ZYY      0.154300
     17 CAQ       -39.1480   28.3100  -19.9260 c3        1 ZYY      0.089000
     18 NAR       -38.9730   34.0130  -21.9320 nc        1 ZYY     -0.427300
     19 CAS       -37.4320   29.2760  -18.4650 c         1 ZYY      0.758100
     20 CAT       -41.1820   38.5300  -19.6950 ca        1 ZYY      0.135900
     21 CAU       -39.1590   36.9600  -20.8080 ca        1 ZYY     -0.136300
     22 CAV       -37.1730   31.8260  -18.8160 cc        1 ZYY      0.233100
     23 CAW       -37.6760   30.5490  -19.1510 cd        1 ZYY     -0.297900
     24 CAX       -39.1530   32.6930  -21.7870 cd        1 ZYY      0.532800
     25 CAY       -37.5080   34.1640  -19.9730 c         1 ZYY      0.735100
     26 CAZ       -37.6820   32.7430  -19.7940 cc        1 ZYY     -0.260600
     27 CBA       -38.4860   31.9740  -20.7030 cd        1 ZYY     -0.043200
     28 CBC       -38.9500   29.4540  -20.9650 c3        1 ZYY      0.043000
     29 SBH       -39.6630   31.7540  -24.2460 s6        1 ZYY      1.455900
     30 HAA       -37.1860   24.8630  -18.6400 hc        1 ZYY      0.043033
     31 HAAA      -38.1350   25.5160  -20.0380 hc        1 ZYY      0.043033
     32 HAAB      -36.4470   26.1080  -19.7320 hc        1 ZYY      0.043033
     33 HAB       -39.0240   25.4160  -17.1210 hc        1 ZYY      0.043033
     34 HABA      -39.6450   27.1110  -16.9550 hc        1 ZYY      0.043033
     35 HABB      -40.0110   26.1530  -18.4510 hc        1 ZYY      0.043033
     36 HAC       -38.5010   28.1230  -22.6070 hc        1 ZYY      0.065700
     37 HACA      -37.8240   29.7930  -22.8230 hc        1 ZYY      0.065700
     38 HACB      -37.0390   28.6400  -21.6630 hc        1 ZYY      0.065700
     39 HAD       -41.8950   31.0610  -22.7930 h1        1 ZYY      0.056033
     40 HADA      -41.3550   31.4940  -21.1020 h1        1 ZYY      0.056033
     41 HADB      -41.9580   32.8010  -22.2150 h1        1 ZYY      0.056033
     42 HAE       -39.9150   33.1170  -26.1230 h1        1 ZYY      0.121700
     43 HAEA      -41.0040   33.6380  -24.8050 h1        1 ZYY      0.121700
     44 HAEB      -39.2600   34.0380  -24.7360 h1        1 ZYY      0.121700
     45 HAL       -41.9980   38.6470  -21.7050 ha        1 ZYY      0.151500
     46 HAM       -40.1560   38.2510  -17.7970 ha        1 ZYY      0.151500
     47 HAN       -40.1920   37.2350  -22.6950 ha        1 ZYY      0.151000
     48 HAO       -38.3440   36.8380  -18.8030 ha        1 ZYY      0.151000
     49 HAP       -37.0650   36.4640  -20.9490 h1        1 ZYY      0.084700
     50 HAPA      -38.0030   36.3180  -22.5150 h1        1 ZYY      0.084700
     51 HAQ       -39.2550   27.3490  -20.5060 h1        1 ZYY      0.056200
     52 HAQA      -40.1180   28.4970  -19.3780 h1        1 ZYY      0.056200
     53 HBC       -39.9690   29.6690  -21.4070 h1        1 ZYY      0.077700
     54 CBB       -37.9390   26.8620  -18.3100 c3        1 ZYY      0.097700
     55 OAF       -36.6460   29.2240  -17.4930 o         1 ZYY     -0.664500
     56 OAG       -36.8580   34.9360  -19.2530 o         1 ZYY     -0.597500
     57 OAJ       -36.3790   32.1640  -17.7820 oh        1 ZYY     -0.447100
     58 FAK       -42.1630   39.2920  -19.1560 f         1 ZYY     -0.138900
     59 HOAJ      -36.1480   31.3420  -17.3040 ho        1 ZYY      0.463000
     60 HBB       -37.1790   27.0070  -17.4780 h1        1 ZYY      0.094700
@<TRIPOS>BOND
     1    1    8 1   
     2    1   24 1   
     3    1   29 1   
     4    2   17 1   
     5    2   19 1   
     6    2   54 1   
     7    3   16 1   
     8    3   18 1   
     9    3   25 1   
    10    4   23 1   
    11    4   27 1   
    12    4   28 1   
    13    5   30 1   
    14    5   31 1   
    15    5   32 1   
    16    5   54 1   
    17    6   33 1   
    18    6   34 1   
    19    6   35 1   
    20    6   54 1   
    21    7   28 1   
    22    7   36 1   
    23    7   37 1   
    24    7   38 1   
    25    8   39 1   
    26    8   40 1   
    27    8   41 1   
    28    9   29 1   
    29    9   42 1   
    30    9   43 1   
    31    9   44 1   
    32   10   29 2   
    33   11   29 2   
    34   12   14 ar  
    35   12   20 ar  
    36   12   45 1   
    37   13   15 ar  
    38   13   20 ar  
    39   13   46 1   
    40   14   21 ar  
    41   14   47 1   
    42   15   21 ar  
    43   15   48 1   
    44   16   21 1   
    45   16   49 1   
    46   16   50 1   
    47   17   28 1   
    48   17   51 1   
    49   17   52 1   
    50   18   24 2   
    51   19   23 1   
    52   19   55 2   
    53   20   58 1   
    54   22   23 2   
    55   22   26 1   
    56   22   57 1   
    57   24   27 1   
    58   25   26 1   
    59   25   56 2   
    60   26   27 2   
    61   28   53 1   
    62   54   60 1   
    63   57   59 1   
@<TRIPOS>SUBSTRUCTURE
     1 ZYY         1 TEMP              0 ****  ****    0 ROOT
