@<TRIPOS>MOLECULE
ZYY
   60    59     1     0     0
SMALL
bcc


@<TRIPOS>ATOM
      1 ND          0.2520   -0.3170   -0.4760 nh        1 ZYY     -0.555000
      2 NE          2.1460   -0.3530    5.2790 n         1 ZYY     -0.190000
      3 NF         -1.3110   -3.5480    0.1610 n         1 ZYY     -0.150000
      4 NG          0.4170   -0.6780    2.6870 na        1 ZYY     -0.081000
      5 CAA         1.7160    1.9590    6.1020 c3        1 ZYY     -0.222500
      6 CAB         3.9440    0.9000    6.4760 c3        1 ZYY     -0.222500
      7 CAC         0.3630    1.7160    3.4750 c1        1 ZYY     -0.035000
      8 CAD         1.4920   -0.1360   -0.8450 c1        1 ZYY     -0.136000
      9 CAE        -0.2030    1.3790   -2.5020 c3        1 ZYY     -0.950000
     10 OAH        -2.0920    0.3130   -1.2200 o         1 ZYY     -0.915000
     11 OAI        -0.7700    1.9320   -0.0830 o         1 ZYY     -0.915000
     12 CAL        -2.7040   -6.3580   -3.5260 c2        1 ZYY     -0.233000
     13 CAM        -0.4680   -5.3520   -3.7880 c2        1 ZYY     -0.287000
     14 CAN        -2.9820   -5.5320   -2.4950 c2        1 ZYY     -0.036000
     15 CAO        -0.6990   -4.4790   -2.7130 c1        1 ZYY     -0.085000
     16 CAP        -1.8840   -4.5350   -0.5680 c1        1 ZYY      0.106000
     17 CAQ         3.1120   -0.8160    4.5240 c1        1 ZYY     -0.130000
     18 NAR        -0.8290   -2.4210   -0.4120 n2        1 ZYY     -0.015000
     19 CAS         0.7670   -0.7900    5.2280 c2        1 ZYY      0.319000
     20 CAT        -1.4200   -6.2680   -4.2000 c2        1 ZYY      0.220000
     21 CAU        -2.0200   -4.4830   -2.0610 c3        1 ZYY     -0.222000
     22 CAV        -0.3250   -2.5870    3.7410 c2        1 ZYY      0.165000
     23 CAW         0.3000   -1.3330    3.9370 c2        1 ZYY     -0.213000
     24 CAX        -0.2560   -1.4390    0.2640 c2        1 ZYY      0.000000
     25 CAY        -1.2120   -3.7870    1.6090 c2        1 ZYY      0.392000
     26 CAZ        -0.5850   -2.7080    2.3410 c2        1 ZYY     -0.294000
     27 CBA        -0.1120   -1.5080    1.7250 c2        1 ZYY      0.017000
     28 CBC         0.8630    0.7070    2.5770 c3        1 ZYY     -0.140000
     29 SBH        -0.8350    0.8970   -1.0280 s6        1 ZYY      2.810000
     30 HAA         2.0280    2.6870    6.8880 hc        1 ZYY      0.092500
     31 HAAA        0.6100    1.8150    6.1770 hc        1 ZYY      0.092500
     32 HAAB        1.9590    2.3940    5.1000 hc        1 ZYY      0.092500
     33 HAB         4.3560    1.3480    5.5400 hc        1 ZYY      0.092500
     34 HABA        4.4960   -0.0480    6.6810 hc        1 ZYY      0.092500
     35 HABB        4.1030    1.6070    7.3250 hc        1 ZYY      0.092500
     36 HAC         4.1680    1.0570    2.5790 ha        1 ZYY      0.002167
     37 HACA       -0.4530    1.5050    4.1770 ha        1 ZYY      0.088000
     38 HACB        4.2670    0.7860    3.1940 ha        1 ZYY      0.002167
     39 HAD         2.9170    1.6050    0.1530 ha        1 ZYY      0.002167
     40 HADA        2.9380    1.2220    0.7120 ha        1 ZYY      0.002167
     41 HADB        0.5980    1.1390    1.5520 h1        1 ZYY      0.192500
     42 HAE        -0.3780    0.6390   -3.3250 h1        1 ZYY      0.181333
     43 HAEA       -0.6690    2.3410   -2.8420 h1        1 ZYY      0.181333
     44 HAEB        0.9060    1.5610   -2.4880 h1        1 ZYY      0.181333
     45 HAL        -3.4130   -7.1230   -3.8750 ha        1 ZYY      0.157000
     46 HAM         0.5090   -5.3060   -4.2950 ha        1 ZYY      0.162000
     47 HAN        -3.9320   -5.6030   -1.9400 ha        1 ZYY      0.152000
     48 HAO        -2.4650   -3.4730   -2.3820 hc        1 ZYY      0.204000
     49 HAP        -3.5130   -1.2080   -2.2330 ha        1 ZYY      0.002167
     50 HAPA       -3.6350   -1.6830   -2.7010 ha        1 ZYY      0.002167
     51 HAQ         2.8450   -1.5980    3.7810 ha        1 ZYY      0.055000
     52 HAQA        2.0030    0.7050    2.6430 h1        1 ZYY      0.192500
     53 HBC         2.2890   -0.8590   -0.6040 ha        1 ZYY      0.104000
     54 CBB         2.4480    0.6380    6.3370 c3        1 ZYY      0.017000
     55 OAF         0.0330   -0.7350    6.2190 o         1 ZYY     -0.252000
     56 OAG        -1.6350   -4.8210    2.1330 o         1 ZYY     -0.271000
     57 OAJ        -0.5720   -3.4780    4.7260 oh        1 ZYY     -0.204000
     58 FAK        -1.1970   -7.1150   -5.2200 f         1 ZYY     -0.085000
     59 HOAJ       -1.0150   -4.2470    4.3170 ho        1 ZYY      0.260000
     60 HBB         2.0660    0.1870    7.3040 h1        1 ZYY      0.114000
@<TRIPOS>BOND
     1    1    8 1   
     2    1   24 1   
     3    1   29 1   
     4    2   17 1   
     5    2   19 1   
     6    2   54 1   
     7    3   16 1   
     8    3   18 1   
     9    3   25 1   
    10    4   23 1   
    11    4   27 1   
    12    4   28 1   
    13    5   30 1   
    14    5   31 1   
    15    5   32 1   
    16    5   54 1   
    17    6   33 1   
    18    6   34 1   
    19    6   35 1   
    20    6   54 1   
    21    7   28 1   
    22    7   37 1   
    23    8   53 1   
    24    9   29 1   
    25    9   42 1   
    26    9   43 1   
    27    9   44 1   
    28   10   29 1   
    29   11   29 1   
    30   12   14 1   
    31   12   20 1   
    32   12   45 1   
    33   13   15 1   
    34   13   20 1   
    35   13   46 1   
    36   14   21 1   
    37   14   47 1   
    38   15   21 1   
    39   16   21 1   
    40   17   51 1   
    41   18   24 1   
    42   19   23 1   
    43   19   55 1   
    44   20   58 1   
    45   21   48 1   
    46   22   23 1   
    47   22   26 1   
    48   22   57 1   
    49   24   27 1   
    50   25   26 1   
    51   25   56 1   
    52   26   27 1   
    53   28   41 1   
    54   28   52 1   
    55   36   38 1   
    56   39   40 1   
    57   49   50 1   
    58   54   60 1   
    59   57   59 1   
@<TRIPOS>SUBSTRUCTURE
     1 ZYY         1 TEMP              0 ****  ****    0 ROOT
