@<TRIPOS>MOLECULE
ZYZ
   47    47     1     0     0
SMALL
bcc


@<TRIPOS>ATOM
      1 SE         -4.9740    0.2020   -0.3530 s4        1 ZYZ      0.578700
      2 C1         -3.5680   -0.8230   -0.5980 c3        1 ZYZ     -0.091800
      3 N1          2.8150    0.1170    0.7460 n         1 ZYZ     -0.521900
      4 C2         -2.3380   -0.0950   -0.2200 ca        1 ZYZ     -0.067300
      5 C3         -1.8530   -0.1600    1.0920 ca        1 ZYZ     -0.126500
      6 C4         -0.6930    0.5230    1.4500 ca        1 ZYZ     -0.113000
      7 C5          0.0050    1.2790    0.5010 ca        1 ZYZ     -0.078300
      8 O5          3.2160   -0.8350   -1.3690 o         1 ZYZ     -0.587000
      9 C6         -0.4760    1.3380   -0.8130 ca        1 ZYZ     -0.113000
     10 O6          3.8320   -1.9160    0.5470 os        1 ZYZ     -0.442900
     11 C7         -1.6340    0.6540   -1.1710 ca        1 ZYZ     -0.126500
     12 C8          1.2300    2.0270    0.8850 c3        1 ZYZ     -0.037100
     13 C9          2.5000    1.4280    0.2420 c3        1 ZYZ      0.066700
     14 C10         3.6300    2.4270    0.4930 c         1 ZYZ      0.593100
     15 C12         4.6270    4.4610   -0.2350 c3        1 ZYZ      0.124700
     16 C13         4.1870   -3.1200   -0.1870 c3        1 ZYZ      0.186800
     17 C14         5.3150   -2.8350   -1.1640 c3        1 ZYZ     -0.114767
     18 C15         4.6650   -4.0560    0.9220 c3        1 ZYZ     -0.114767
     19 C16         2.9710   -3.7030   -0.8870 c3        1 ZYZ     -0.114767
     20 H1         -3.6480   -1.7720   -0.0070 h1        1 ZYZ      0.108700
     21 H1A        -3.5240   -1.1260   -1.6780 h1        1 ZYZ      0.108700
     22 HN1         3.1110    0.0570    1.6960 hn        1 ZYZ      0.329500
     23 H3         -2.3870   -0.7600    1.8450 ha        1 ZYZ      0.139000
     24 H4         -0.3220    0.4610    2.4840 ha        1 ZYZ      0.137000
     25 H6          0.0710    1.9220   -1.5690 ha        1 ZYZ      0.137000
     26 H7         -1.9920    0.6960   -2.2110 ha        1 ZYZ      0.139000
     27 H8          1.1500    3.0890    0.5230 hc        1 ZYZ      0.067700
     28 H8A         1.3420    2.0520    2.0010 hc        1 ZYZ      0.067700
     29 H9          2.3400    1.3570   -0.8790 h1        1 ZYZ      0.125700
     30 H12         4.5520    4.9370    0.7720 h1        1 ZYZ      0.054033
     31 H12A        5.6310    3.9900   -0.3620 h1        1 ZYZ      0.054033
     32 H12B        4.4080    5.1910   -1.0530 h1        1 ZYZ      0.054033
     33 H14         6.1520   -2.3140   -0.6410 hc        1 ZYZ      0.053033
     34 H14A        5.6910   -3.7970   -1.5850 hc        1 ZYZ      0.053033
     35 H14B        4.9540   -2.1880   -2.0000 hc        1 ZYZ      0.053033
     36 H15         3.8430   -4.2390    1.6530 hc        1 ZYZ      0.053033
     37 H15A        4.9790   -5.0250    0.4680 hc        1 ZYZ      0.053033
     38 H15B        5.5300   -3.6030    1.4620 hc        1 ZYZ      0.053033
     39 H16         2.6480   -3.0410   -1.7270 hc        1 ZYZ      0.053033
     40 H16A        3.2270   -4.7090   -1.2960 hc        1 ZYZ      0.053033
     41 H16B        2.1260   -3.8070   -0.1650 hc        1 ZYZ      0.053033
     42 O51        -5.9090   -0.3090   -1.6800 oh        1 ZYZ     -0.598800
     43 O61        -5.7830   -0.4560    0.6770 o         1 ZYZ     -0.527200
     44 H23        -6.6190   -0.8980   -1.4150 ho        1 ZYZ      0.452000
     45 C11         3.2880   -0.8550   -0.1300 c         1 ZYZ      0.746100
     46 O3          4.5050    2.3970    1.3590 o         1 ZYZ     -0.536000
     47 O4          3.6040    3.4730   -0.3830 os        1 ZYZ     -0.433900
@<TRIPOS>BOND
     1    1    2 1   
     2    1   42 1   
     3    1   43 2   
     4    2    4 1   
     5    2   20 1   
     6    2   21 1   
     7    3   13 1   
     8    3   22 1   
     9    3   45 1   
    10    4    5 ar  
    11    4   11 ar  
    12    5    6 ar  
    13    5   23 1   
    14    6    7 ar  
    15    6   24 1   
    16    7    9 ar  
    17    7   12 1   
    18    8   45 2   
    19    9   11 ar  
    20    9   25 1   
    21   10   16 1   
    22   10   45 1   
    23   11   26 1   
    24   12   13 1   
    25   12   27 1   
    26   12   28 1   
    27   13   14 1   
    28   13   29 1   
    29   14   46 2   
    30   14   47 1   
    31   15   30 1   
    32   15   31 1   
    33   15   32 1   
    34   15   47 1   
    35   16   17 1   
    36   16   18 1   
    37   16   19 1   
    38   17   33 1   
    39   17   34 1   
    40   17   35 1   
    41   18   36 1   
    42   18   37 1   
    43   18   38 1   
    44   19   39 1   
    45   19   40 1   
    46   19   41 1   
    47   42   44 1   
@<TRIPOS>SUBSTRUCTURE
     1 ZYZ         1 TEMP              0 ****  ****    0 ROOT
