@<TRIPOS>MOLECULE
ZYZ
   47    44     1     0     0
SMALL
bcc


@<TRIPOS>ATOM
      1 SE         -4.3050    4.7350   -3.6930 ss        1 ZYZ      1.492000
      2 C1         -2.7730    3.7400   -4.2440 c3        1 ZYZ     -0.604000
      3 N1          0.1210   -1.5000    0.8080 n         1 ZYZ     -0.331000
      4 C2         -2.3290    2.8220   -3.1060 c2        1 ZYZ     -0.060000
      5 C3         -2.7680    1.5040   -3.0590 c1        1 ZYZ     -0.129000
      6 O3         -0.2290   -0.0080    2.9830 o         1 ZYZ     -0.347000
      7 C4         -2.3400    0.6640   -2.0390 c2        1 ZYZ     -0.110000
      8 O4          0.7380    1.8150    2.0340 os        1 ZYZ     -0.272000
      9 C5         -1.4650    1.1460   -1.0580 c1        1 ZYZ     -0.071000
     10 O5          2.3880   -1.3320    0.9020 o         1 ZYZ     -0.398000
     11 C6         -1.0280    2.4560   -1.1050 c1        1 ZYZ     -0.116000
     12 O6          1.6370   -3.4710    0.6540 os        1 ZYZ     -0.281000
     13 C7         -1.4580    3.2990   -2.1290 c2        1 ZYZ     -0.124000
     14 C8         -1.5090    0.1460    0.1430 c3        1 ZYZ     -0.123000
     15 C9         -0.0650   -0.1180    0.6550 c3        1 ZYZ      0.040000
     16 C10         0.1260    0.5490    1.9640 c2        1 ZYZ      0.264000
     17 C11         1.4460   -2.0530    0.8350 c2        1 ZYZ      0.400000
     18 C12         0.8810    2.3080    3.3780 c3        1 ZYZ     -0.065000
     19 C13         2.7790   -4.0110    1.3790 c3        1 ZYZ      0.115000
     20 C14         2.6780   -3.5920    2.8840 c3        1 ZYZ     -0.232667
     21 C15         2.7780   -5.5720    1.2620 c3        1 ZYZ     -0.232667
     22 C16         4.0670   -3.4550    0.7790 c3        1 ZYZ     -0.232667
     23 H1         -2.0550    4.3500   -4.4650 h1        1 ZYZ      0.148000
     24 H1A        -2.9960    3.2040   -5.0280 h1        1 ZYZ      0.148000
     25 HN1        -0.6070   -2.0560    0.8440 hn        1 ZYZ      0.243000
     26 H3         -3.3890    1.1630   -3.7550 DU        1 ZYZ      0.141000
     27 H4         -2.6550   -0.2820   -2.0050 ha        1 ZYZ      0.136000
     28 H6         -0.4040    2.7990   -0.4060 ha        1 ZYZ      0.138000
     29 H7         -1.1460    4.2340   -2.1610 ha        1 ZYZ      0.137000
     30 H8         -2.0570    0.5330    0.8780 hc        1 ZYZ      0.107000
     31 H8A        -1.9110   -0.7080   -0.1540 hc        1 ZYZ      0.107000
     32 H9          0.6180    0.2490   -0.0250 h1        1 ZYZ      0.165000
     33 H12        -0.0340    2.3840    3.8050 h1        1 ZYZ      0.093333
     34 H12A        1.3140    3.1960    3.3630 h1        1 ZYZ      0.093333
     35 H12B        1.4300    1.6890    3.8920 h1        1 ZYZ      0.093333
     36 H14         3.0700   -4.2840    3.4460 hc        1 ZYZ      0.092333
     37 H14A        3.1670   -2.7390    3.0220 hc        1 ZYZ      0.092333
     38 H14B        1.7410   -3.4710    3.1240 hc        1 ZYZ      0.092333
     39 H15         2.6400   -5.8320    0.3050 hc        1 ZYZ      0.092333
     40 H15A        2.0500   -5.9420    1.8100 hc        1 ZYZ      0.092333
     41 H15B        3.6340   -5.9240    1.5740 hc        1 ZYZ      0.092333
     42 H16         4.2830   -2.5910    1.2110 hc        1 ZYZ      0.092333
     43 H16A        4.8090   -4.0950    0.9310 hc        1 ZYZ      0.092333
     44 H16B        3.9410   -3.3140   -0.2110 hc        1 ZYZ      0.092333
     45 O51        -4.1210    6.4360   -3.1620 o         1 ZYZ     -0.613000
     46 O61        -5.8010    4.0440   -3.7420 o         1 ZYZ     -0.799000
     47 H23        -4.8880    6.8860   -3.3190 ho        1 ZYZ      0.251000
@<TRIPOS>BOND
     1    1    2 1   
     2    1   46 1   
     3    2    4 1   
     4    2   23 1   
     5    2   24 1   
     6    3   15 1   
     7    3   17 1   
     8    3   25 1   
     9    4    5 1   
    10    4   13 1   
    11    5    7 1   
    12    6   16 1   
    13    7    9 1   
    14    7   27 1   
    15    8   16 1   
    16    8   18 1   
    17    9   14 1   
    18   10   17 1   
    19   11   13 1   
    20   11   28 1   
    21   12   17 1   
    22   12   19 1   
    23   13   29 1   
    24   14   15 1   
    25   14   30 1   
    26   14   31 1   
    27   15   16 1   
    28   15   32 1   
    29   18   33 1   
    30   18   34 1   
    31   18   35 1   
    32   19   20 1   
    33   19   21 1   
    34   19   22 1   
    35   20   36 1   
    36   20   37 1   
    37   20   38 1   
    38   21   39 1   
    39   21   40 1   
    40   21   41 1   
    41   22   42 1   
    42   22   43 1   
    43   22   44 1   
    44   45   47 1   
@<TRIPOS>SUBSTRUCTURE
     1 ZYZ         1 TEMP              0 ****  ****    0 ROOT
