@<TRIPOS>MOLECULE
ZYZ
   48    44     1     0     0
SMALL
bcc


@<TRIPOS>ATOM
      1 SE          2.1060   -2.6590    1.4980 s4        1 ZYZ      0.635700
      2 C1          1.1420   -1.6120    2.5210 c3        1 ZYZ     -0.023000
      3 N1          6.0270   -1.8100    2.5490 n4        1 ZYZ     -0.705400
      4 C2          0.5490   -2.3980    3.5440 c1        1 ZYZ     -0.203100
      5 C3          0.0160   -3.0220    4.4180 c1        1 ZYZ     -0.052100
      6 C4         -0.6160   -3.7790    5.4470 c3        1 ZYZ     -0.038000
      7 C5          5.5300    3.5580    4.8990 c1        1 ZYZ     -0.095900
      8 O5          6.9710   -0.5450    0.7740 o         1 ZYZ     -0.420000
      9 C6          5.8860    4.0740    3.8030 c1        1 ZYZ     -0.034900
     10 O6          8.1910   -2.2090    1.8150 os        1 ZYZ     -0.342200
     11 C7          6.2520    4.6200    2.6780 c2        1 ZYZ     -0.193100
     12 C8          5.1510    3.0850    6.0620 ce        1 ZYZ     -0.076100
     13 C9          5.0630    1.6800    6.4050 ce        1 ZYZ     -0.315300
     14 C10         5.3810    0.7220    5.5530 c1        1 ZYZ      0.581600
     15 C12         4.5530    1.3320    7.7780 c3        1 ZYZ      0.208600
     16 C13         9.3660   -1.9870    1.0380 c2        1 ZYZ      0.050900
     17 C14         7.9030   -2.7850    5.2070 c3        1 ZYZ     -0.136800
     18 C15        10.5490   -2.1400    1.9140 c3        1 ZYZ     -0.063900
     19 C16         9.3230   -1.7720   -0.2770 c2        1 ZYZ     -0.197000
     20 H1          1.7360   -0.7710    2.9720 h1        1 ZYZ      0.121700
     21 H1A         0.3390   -1.1230    1.8950 h1        1 ZYZ      0.121700
     22 HN1         6.4080   -1.9430    3.4980 hn        1 ZYZ      0.497467
     23 H3          0.1470   -4.2630    6.1100 hc        1 ZYZ      0.071700
     24 H4         -1.2630   -4.5820    5.0030 hc        1 ZYZ      0.071700
     25 H6          6.5550    4.0250    1.8050 ha        1 ZYZ      0.142500
     26 H7          6.2760    5.7130    2.5450 ha        1 ZYZ      0.142500
     27 H8          4.8660    3.7720    6.8850 ha        1 ZYZ      0.183000
     28 H8A        -1.2640   -3.1130    6.0770 hc        1 ZYZ      0.071700
     29 H9          5.3000   -1.0750    2.5670 hn        1 ZYZ      0.497467
     30 H12         3.4310    1.4290    7.7980 h1        1 ZYZ      0.059700
     31 H12A        5.9640    2.1920    8.7910 ho        1 ZYZ      0.411000
     32 H12B        4.8480    0.2830    8.0530 h1        1 ZYZ      0.059700
     33 H14         8.4360   -2.7230    4.2300 hc        1 ZYZ      0.035700
     34 H14A        8.6470   -2.9680    6.0130 hc        1 ZYZ      0.035700
     35 H14B        7.3730   -1.8280    5.4160 hc        1 ZYZ      0.035700
     36 H15        10.7970   -1.1620    2.3980 hc        1 ZYZ      0.075700
     37 H15A       10.3580   -2.8960    2.7160 hc        1 ZYZ      0.075700
     38 H15B       11.4230   -2.4760    1.3020 hc        1 ZYZ      0.075700
     39 H16         7.1750   -3.6260    5.1880 hc        1 ZYZ      0.035700
     40 H16A        8.3920   -1.6470   -0.8460 ha        1 ZYZ      0.159500
     41 H16B       10.2530   -1.6900   -0.8600 ha        1 ZYZ      0.159500
     42 O51         2.0190   -1.7780    0.0570 oh        1 ZYZ     -0.568800
     43 O61         3.5210   -2.3200    1.8090 o         1 ZYZ     -0.658200
     44 H23         2.8090   -1.2640   -0.1220 ho        1 ZYZ      0.458000
     45 O3          5.6600   -0.1520    4.7830 o         1 ZYZ     -0.496500
     46 O4          5.0000    2.2420    8.7550 oh        1 ZYZ     -0.572800
     47 H121        5.5650   -2.6780    2.2310 hn        1 ZYZ      0.497467
     48 C11         7.1050   -1.4330    1.6030 c         1 ZYZ      0.621100
@<TRIPOS>BOND
     1    1    2 1   
     2    1   42 1   
     3    1   43 2   
     4    2    4 1   
     5    2   20 1   
     6    2   21 1   
     7    3   22 1   
     8    3   29 1   
     9    3   47 1   
    10    3   48 1   
    11    4    5 3   
    12    5    6 1   
    13    6   23 1   
    14    6   24 1   
    15    6   28 1   
    16    7    9 2   
    17    7   12 2   
    18    8   48 2   
    19    9   11 2   
    20   10   16 1   
    21   10   48 1   
    22   11   25 1   
    23   11   26 1   
    24   12   13 1   
    25   12   27 1   
    26   13   14 2   
    27   13   15 1   
    28   14   45 2   
    29   15   30 1   
    30   15   32 1   
    31   15   46 1   
    32   16   18 1   
    33   16   19 2   
    34   17   33 1   
    35   17   34 1   
    36   17   35 1   
    37   17   39 1   
    38   18   36 1   
    39   18   37 1   
    40   18   38 1   
    41   19   40 1   
    42   19   41 1   
    43   31   46 1   
    44   42   44 1   
@<TRIPOS>SUBSTRUCTURE
     1 ZYZ         1 TEMP              0 ****  ****    0 ROOT
