@<TRIPOS>MOLECULE
ZZ0
   25    26     1     0     0
SMALL
bcc


@<TRIPOS>ATOM
      1 C7         -1.6270   -1.4990   -0.3340 ca        1 ZZ0     -0.179500
      2 C9         -3.0120   -1.4640   -0.3560 ca        1 ZZ0     -0.100500
      3 C5         -3.6880   -0.3140    0.0580 ca        1 ZZ0     -0.043600
      4 CL1        -5.3950   -0.2680    0.0190 cl        1 ZZ0     -0.143400
      5 C10        -2.9700    0.7950    0.5060 ca        1 ZZ0     -0.100500
      6 C8         -1.5810    0.7670    0.5420 ca        1 ZZ0     -0.179500
      7 C4         -0.8670   -0.3790    0.1130 ca        1 ZZ0      0.207600
      8 N1          0.5130   -0.5150    0.1820 nh        1 ZZ0     -0.740300
      9 C1          1.4800    0.4880    0.0110 ca        1 ZZ0      0.663200
     10 N2          1.1060    1.8050   -0.0730 nb        1 ZZ0     -0.757000
     11 C11         2.0740    2.7280   -0.1940 ca        1 ZZ0      0.405200
     12 C12         3.4420    2.4390   -0.2360 ca        1 ZZ0     -0.314300
     13 C6          3.8220    1.0960   -0.1600 ca        1 ZZ0     -0.053000
     14 C2          2.8640    0.0920   -0.0490 ca        1 ZZ0     -0.272900
     15 C3          3.3620   -1.3450   -0.0190 c         1 ZZ0      0.919200
     16 O2          2.5790   -2.2880   -0.3470 o         1 ZZ0     -0.825800
     17 O1          4.5650   -1.5310    0.3110 o         1 ZZ0     -0.825800
     18 H7         -1.1090   -2.4130   -0.6670 ha        1 ZZ0      0.154500
     19 H9         -3.5740   -2.3420   -0.7070 ha        1 ZZ0      0.130500
     20 H10        -3.5000    1.7000    0.8400 ha        1 ZZ0      0.130500
     21 H8         -1.0500    1.6530    0.9190 ha        1 ZZ0      0.154500
     22 H1          0.8760   -1.4490    0.0150 hn        1 ZZ0      0.498800
     23 H11         1.7110    3.7690   -0.2610 h4        1 ZZ0     -0.006900
     24 H12         4.1840    3.2380   -0.3260 ha        1 ZZ0      0.120000
     25 H6          4.8850    0.8000   -0.1820 ha        1 ZZ0      0.160000
@<TRIPOS>BOND
     1    1    2 ar  
     2    1    7 ar  
     3    1   18 1   
     4    2    3 ar  
     5    2   19 1   
     6    3    4 1   
     7    3    5 ar  
     8    5    6 ar  
     9    5   20 1   
    10    6    7 ar  
    11    6   21 1   
    12    7    8 1   
    13    8    9 1   
    14    8   22 1   
    15    9   10 ar  
    16    9   14 ar  
    17   10   11 ar  
    18   11   12 ar  
    19   11   23 1   
    20   12   13 ar  
    21   12   24 1   
    22   13   14 ar  
    23   13   25 1   
    24   14   15 1   
    25   15   16 1   
    26   15   17 1   
@<TRIPOS>SUBSTRUCTURE
     1 ZZ0         1 TEMP              0 ****  ****    0 ROOT
