@<TRIPOS>MOLECULE
ZZ0
   25    26     1     0     0
SMALL
bcc


@<TRIPOS>ATOM
      1 C7         -0.0080    0.0760    0.0590 ca        1 ZZ0     -0.179500
      2 C9          1.3660    0.1720   -0.0950 ca        1 ZZ0     -0.100500
      3 C5          2.1970    0.1590    1.0280 ca        1 ZZ0     -0.043600
      4 Cl1         3.8910    0.2660    0.8370 cl        1 ZZ0     -0.143400
      5 C10         1.6430    0.0600    2.3050 ca        1 ZZ0     -0.100500
      6 C8          0.2660   -0.0270    2.4710 ca        1 ZZ0     -0.179500
      7 C4         -0.6010   -0.0320    1.3500 ca        1 ZZ0      0.207600
      8 N1         -1.9870   -0.0450    1.4320 nu        1 ZZ0     -0.740300
      9 C1         -2.7800   -0.6910    2.3920 ca        1 ZZ0      0.663200
     10 N2         -2.2050   -1.2550    3.5020 nb        1 ZZ0     -0.757000
     11 C11        -3.0130   -1.8230    4.4110 ca        1 ZZ0      0.405200
     12 C12        -4.4070   -1.8760    4.3060 ca        1 ZZ0     -0.314300
     13 C6         -4.9930   -1.3100    3.1700 ca        1 ZZ0     -0.053000
     14 C2         -4.2060   -0.7190    2.1850 ca        1 ZZ0     -0.272900
     15 C3         -4.9210   -0.1690    0.9600 c         1 ZZ0      0.919200
     16 O2         -4.2820   -0.0210   -0.1250 o         1 ZZ0     -0.825800
     17 O1         -6.1490    0.0930    1.0790 o         1 ZZ0     -0.825800
     18 H7         -0.6480    0.0850   -0.8380 ha        1 ZZ0      0.154500
     19 H9          1.7980    0.2530   -1.1030 ha        1 ZZ0      0.130500
     20 H10         2.2950    0.0560    3.1920 ha        1 ZZ0      0.130500
     21 H8         -0.1340   -0.0840    3.4940 ha        1 ZZ0      0.154500
     22 H1         -2.4840    0.1390    0.5640 hn        1 ZZ0      0.498800
     23 H11        -2.4920   -2.2630    5.2790 h4        1 ZZ0     -0.006900
     24 H12        -5.0140   -2.3460    5.0870 ha        1 ZZ0      0.120000
     25 H6         -6.0870   -1.3130    3.0280 ha        1 ZZ0      0.160000
@<TRIPOS>BOND
     1    1    2 ar  
     2    1    7 ar  
     3    1   18 1   
     4    2    3 ar  
     5    2   19 1   
     6    3    4 1   
     7    3    5 ar  
     8    5    6 ar  
     9    5   20 1   
    10    6    7 ar  
    11    6   21 1   
    12    7    8 1   
    13    8    9 1   
    14    8   22 1   
    15    9   10 ar  
    16    9   14 ar  
    17   10   11 ar  
    18   11   12 ar  
    19   11   23 1   
    20   12   13 ar  
    21   12   24 1   
    22   13   14 ar  
    23   13   25 1   
    24   14   15 1   
    25   15   16 1   
    26   15   17 1   
@<TRIPOS>SUBSTRUCTURE
     1 ZZ0         1 TEMP              0 ****  ****    0 ROOT
