@<TRIPOS>MOLECULE
ZZ0
   26    27     1     0     0
SMALL
bcc


@<TRIPOS>ATOM
      1 C7          0.1560   -1.0110    1.0410 ca        1 ZZ0     -0.130000
      2 C9          1.5450   -1.0130    0.9620 ca        1 ZZ0     -0.109500
      3 C5          2.2730    0.1130    1.3550 ca        1 ZZ0      0.006400
      4 CL1         3.9690    0.1040    1.2520 cl        1 ZZ0     -0.090400
      5 C10         1.6110    1.2470    1.8320 ca        1 ZZ0     -0.109500
      6 C8          0.2240    1.2540    1.9230 ca        1 ZZ0     -0.130000
      7 C4         -0.5260    0.1230    1.5270 ca        1 ZZ0      0.128600
      8 N1         -1.9400    0.1820    1.5410 nh        1 ZZ0     -0.729300
      9 C1         -2.7320   -0.7710    2.2050 ca        1 ZZ0      0.675200
     10 N2         -2.1660   -1.9130    2.7170 nb        1 ZZ0     -0.710000
     11 C11        -2.9740   -2.8080    3.2990 ca        1 ZZ0      0.460200
     12 C12        -4.3660   -2.6540    3.4390 ca        1 ZZ0     -0.295300
     13 C6         -4.9470   -1.4980    2.9320 ca        1 ZZ0     -0.008000
     14 C2         -4.1460   -0.5450    2.2910 ca        1 ZZ0     -0.352900
     15 C3         -4.7820    0.6750    1.7690 c         1 ZZ0      0.642700
     16 O2         -5.5300    1.4380    2.3800 o         1 ZZ0     -0.480000
     17 O1         -4.5590    1.0550    0.4740 oh        1 ZZ0     -0.584100
     18 H7         -0.3990   -1.9060    0.7210 ha        1 ZZ0      0.147000
     19 H9          2.0660   -1.9070    0.5850 ha        1 ZZ0      0.151000
     20 H10         2.1830    2.1360    2.1420 ha        1 ZZ0      0.151000
     21 H8         -0.2810    2.1550    2.3050 ha        1 ZZ0      0.147000
     22 H1         -2.3070    1.1130    1.5970 hn        1 ZZ0      0.433800
     23 H11        -2.4620   -3.7090    3.6890 h4        1 ZZ0      0.031100
     24 H12        -4.9660   -3.4230    3.9420 ha        1 ZZ0      0.156000
     25 H6         -6.0290   -1.3150    3.0280 ha        1 ZZ0      0.159000
     26 H121       -4.0790    0.3630   -0.0030 ho        1 ZZ0      0.438000
@<TRIPOS>BOND
     1    1    2 ar  
     2    1    7 ar  
     3    1   18 1   
     4    2    3 ar  
     5    2   19 1   
     6    3    4 1   
     7    3    5 ar  
     8    5    6 ar  
     9    5   20 1   
    10    6    7 ar  
    11    6   21 1   
    12    7    8 1   
    13    8    9 1   
    14    8   22 1   
    15    9   10 ar  
    16    9   14 ar  
    17   10   11 ar  
    18   11   12 ar  
    19   11   23 1   
    20   12   13 ar  
    21   12   24 1   
    22   13   14 ar  
    23   13   25 1   
    24   14   15 1   
    25   15   16 2   
    26   15   17 1   
    27   17   26 1   
@<TRIPOS>SUBSTRUCTURE
     1 ZZ0         1 TEMP              0 ****  ****    0 ROOT
