@<TRIPOS>MOLECULE
ZZ1
   20    21     1     0     0
SMALL
bcc


@<TRIPOS>ATOM
      1 O8          3.0210   -1.3740    0.0010 o         1 ZZ1     -0.567500
      2 C8          2.0130   -0.6680    0.0000 c         1 ZZ1      0.720800
      3 O1          0.8570   -1.4490    0.0000 os        1 ZZ1     -0.324200
      4 C11        -0.3660   -0.8150    0.0000 ca        1 ZZ1      0.151100
      5 C10        -1.4920   -1.6620    0.0000 ca        1 ZZ1     -0.148000
      6 C1         -2.7560   -1.0940   -0.0000 ca        1 ZZ1     -0.084000
      7 C2         -2.9110    0.3000   -0.0000 ca        1 ZZ1     -0.159000
      8 C3         -1.8000    1.1300   -0.0000 ca        1 ZZ1     -0.076000
      9 C4         -0.5030    0.5880   -0.0000 ca        1 ZZ1     -0.148800
     10 C5          0.7000    1.3990   -0.0000 cc        1 ZZ1      0.047600
     11 C6          0.5810    2.8750   -0.0000 c3        1 ZZ1     -0.073900
     12 C7          1.9040    0.7810    0.0000 cd        1 ZZ1     -0.263200
     13 H10        -1.3460   -2.7520    0.0000 ha        1 ZZ1      0.160000
     14 H1         -3.6460   -1.7410   -0.0000 ha        1 ZZ1      0.141000
     15 H2         -3.9220    0.7340   -0.0010 ha        1 ZZ1      0.140000
     16 H3         -1.9280    2.2230   -0.0010 ha        1 ZZ1      0.138000
     17 H6C1        1.5870    3.3620   -0.0000 hc        1 ZZ1      0.059033
     18 H6C2        0.0220    3.2160   -0.9080 hc        1 ZZ1      0.059033
     19 H6C3        0.0220    3.2160    0.9070 hc        1 ZZ1      0.059033
     20 H7          2.8580    1.3290    0.0000 ha        1 ZZ1      0.169000
@<TRIPOS>BOND
     1    1    2 2   
     2    2    3 1   
     3    2   12 1   
     4    3    4 1   
     5    4    5 ar  
     6    4    9 ar  
     7    5    6 ar  
     8    5   13 1   
     9    6    7 ar  
    10    6   14 1   
    11    7    8 ar  
    12    7   15 1   
    13    8    9 ar  
    14    8   16 1   
    15    9   10 1   
    16   10   11 1   
    17   10   12 2   
    18   11   17 1   
    19   11   18 1   
    20   11   19 1   
    21   12   20 1   
@<TRIPOS>SUBSTRUCTURE
     1 ZZ1         1 TEMP              0 ****  ****    0 ROOT
