@<TRIPOS>MOLECULE
ZZ1
   20    21     1     0     0
SMALL
bcc


@<TRIPOS>ATOM
      1 O8         -0.0450    0.0120    0.1730 o         1 ZZ1     -0.567500
      2 C8          1.1710    0.0090   -0.0110 c         1 ZZ1      0.720800
      3 O1          1.8590    0.0060    1.2030 os        1 ZZ1     -0.324200
      4 C11         3.2370    0.0040    1.1790 ca        1 ZZ1      0.151100
      5 C10         3.8680    0.0000    2.4380 ca        1 ZZ1     -0.148000
      6 C1          5.2530   -0.0030    2.4920 ca        1 ZZ1     -0.084000
      7 C2          6.0120   -0.0020    1.3120 ca        1 ZZ1     -0.159000
      8 C3          5.3860    0.0010    0.0750 ca        1 ZZ1     -0.076000
      9 C4          3.9830    0.0040   -0.0170 ca        1 ZZ1     -0.148800
     10 C5          3.2670    0.0070   -1.2780 cc        1 ZZ1      0.047600
     11 C6          4.0300    0.0070   -2.5470 c3        1 ZZ1     -0.073900
     12 C7          1.9130    0.0100   -1.2600 cd        1 ZZ1     -0.263200
     13 H10         3.2530    0.0000    3.3500 ha        1 ZZ1      0.160000
     14 H1          5.7630   -0.0050    3.4680 ha        1 ZZ1      0.141000
     15 H2          7.1110   -0.0050    1.3730 ha        1 ZZ1      0.140000
     16 H3          5.9870    0.0010   -0.8470 ha        1 ZZ1      0.138000
     17 H6C1        3.3460    0.0100   -3.4310 hc        1 ZZ1      0.059033
     18 H6C2        4.6840    0.9140   -2.6020 hc        1 ZZ1      0.059033
     19 H6C3        4.6800   -0.9020   -2.6050 hc        1 ZZ1      0.059033
     20 H7          1.3030    0.0130   -2.1760 ha        1 ZZ1      0.169000
@<TRIPOS>BOND
     1    1    2 2   
     2    2    3 1   
     3    2   12 1   
     4    3    4 1   
     5    4    5 ar  
     6    4    9 ar  
     7    5    6 ar  
     8    5   13 1   
     9    6    7 ar  
    10    6   14 1   
    11    7    8 ar  
    12    7   15 1   
    13    8    9 ar  
    14    8   16 1   
    15    9   10 1   
    16   10   11 1   
    17   10   12 2   
    18   11   17 1   
    19   11   18 1   
    20   11   19 1   
    21   12   20 1   
@<TRIPOS>SUBSTRUCTURE
     1 ZZ1         1 TEMP              0 ****  ****    0 ROOT
