@<TRIPOS>MOLECULE
ZZ2
   26    26     1     0     0
SMALL
bcc


@<TRIPOS>ATOM
      1 N2         -0.0440    0.4760   -0.1120 nv        1 ZZ2     -0.929500
      2 C3          1.3230    0.1880   -0.0590 ca        1 ZZ2      0.900900
      3 N3          1.9070    0.1190    1.2020 nb        1 ZZ2     -0.823000
      4 C4          3.2500   -0.0500    1.2080 ca        1 ZZ2      0.695600
      5 C5          4.0340   -0.1740    0.0310 ca        1 ZZ2     -0.435600
      6 C2          3.3400   -0.1200   -1.1910 ca        1 ZZ2      0.499600
      7 C1          4.1130   -0.2560   -2.4650 c3        1 ZZ2     -0.154400
      8 N1          1.9980    0.0500   -1.2630 nb        1 ZZ2     -0.779000
      9 O1          3.9600   -0.1340    2.3830 os        1 ZZ2     -0.447100
     10 C6          3.2360    0.0490    3.6130 c3        1 ZZ2      0.135400
     11 C7          4.2900   -0.0350    4.7130 c3        1 ZZ2      0.118400
     12 O2          4.5520    1.3030    5.1280 os        1 ZZ2     -0.420600
     13 C8          5.6280    1.3880    6.0460 c3        1 ZZ2      0.116700
     14 H21N       -0.5660    0.3280    0.7190 hn        1 ZZ2      0.427800
     15 H22N       -0.5070    0.2820   -0.9690 hn        1 ZZ2      0.427800
     16 H5          5.1170   -0.3060    0.0910 ha        1 ZZ2      0.165000
     17 H11C        4.0520    0.6940   -3.0520 hc        1 ZZ2      0.058033
     18 H12C        3.6980   -1.0840   -3.0910 hc        1 ZZ2      0.058033
     19 H13C        5.1850   -0.4750   -2.2420 hc        1 ZZ2      0.058033
     20 H61C        2.7300    1.0490    3.6130 h1        1 ZZ2      0.069200
     21 H62C        2.4840   -0.7730    3.7240 h1        1 ZZ2      0.069200
     22 H71C        3.8910   -0.6210    5.5830 h1        1 ZZ2      0.044700
     23 H72C        5.2300   -0.5160    4.3330 h1        1 ZZ2      0.044700
     24 H81C        6.5750    1.0190    5.5800 h1        1 ZZ2      0.034033
     25 H82C        5.4050    0.8000    6.9710 h1        1 ZZ2      0.034033
     26 H83C        5.7060    2.4780    6.2840 h1        1 ZZ2      0.034033
@<TRIPOS>BOND
     1    1    2 1   
     2    1   14 1   
     3    1   15 1   
     4    2    3 ar  
     5    2    8 ar  
     6    3    4 ar  
     7    4    5 ar  
     8    4    9 1   
     9    5    6 ar  
    10    5   16 1   
    11    6    7 1   
    12    6    8 ar  
    13    7   17 1   
    14    7   18 1   
    15    7   19 1   
    16    9   10 1   
    17   10   11 1   
    18   10   20 1   
    19   10   21 1   
    20   11   12 1   
    21   11   22 1   
    22   11   23 1   
    23   12   13 1   
    24   13   24 1   
    25   13   25 1   
    26   13   26 1   
@<TRIPOS>SUBSTRUCTURE
     1 ZZ2         1 TEMP              0 ****  ****    0 ROOT
