@<TRIPOS>MOLECULE
ZZ2
   26    26     1     0     0
SMALL
bcc


@<TRIPOS>ATOM
      1 N2         -2.7890    2.4730   -0.3030 nh        1 ZZ2     -0.926500
      2 C3         -2.2280    1.1980   -0.1740 ca        1 ZZ2      0.898900
      3 N3         -0.8500    1.1290    0.0100 nb        1 ZZ2     -0.822000
      4 C4         -0.3600   -0.1110    0.2400 ca        1 ZZ2      0.694600
      5 C5         -1.1630   -1.2810    0.2800 ca        1 ZZ2     -0.435600
      6 C2         -2.5390   -1.1020    0.0540 ca        1 ZZ2      0.499600
      7 C1         -3.4330   -2.3020    0.0700 c3        1 ZZ2     -0.154400
      8 N1         -3.0910    0.1130   -0.1810 nb        1 ZZ2     -0.778000
      9 O1          0.9810   -0.3270    0.4560 os        1 ZZ2     -0.447100
     10 C6          1.8570    0.8140    0.3960 c3        1 ZZ2      0.135400
     11 C7          3.2560    0.2560    0.6370 c3        1 ZZ2      0.118400
     12 O2          3.8920    0.1850   -0.6370 os        1 ZZ2     -0.421600
     13 C8          5.1530   -0.4580   -0.5820 c3        1 ZZ2      0.116700
     14 H21N       -2.1720    3.2080   -0.5610 hn        1 ZZ2      0.426800
     15 H22N       -3.7060    2.5160   -0.6830 hn        1 ZZ2      0.426800
     16 H5         -0.7160   -2.2600    0.4700 ha        1 ZZ2      0.165000
     17 H11C       -4.1880   -2.2090    0.8910 hc        1 ZZ2      0.058033
     18 H12C       -3.9800   -2.3950   -0.9010 hc        1 ZZ2      0.058033
     19 H13C       -2.8320   -3.2280    0.2360 hc        1 ZZ2      0.058033
     20 H61C        1.7840    1.2980   -0.6120 h1        1 ZZ2      0.068700
     21 H62C        1.5760    1.5380    1.2020 h1        1 ZZ2      0.068700
     22 H71C        3.8370    0.9500    1.3010 h1        1 ZZ2      0.045200
     23 H72C        3.2080   -0.7630    1.1060 h1        1 ZZ2      0.045200
     24 H81C        5.8490    0.0960    0.0970 h1        1 ZZ2      0.034033
     25 H82C        5.0430   -1.5150   -0.2330 h1        1 ZZ2      0.034033
     26 H83C        5.5270   -0.4290   -1.6360 h1        1 ZZ2      0.034033
@<TRIPOS>BOND
     1    1    2 1   
     2    1   14 1   
     3    1   15 1   
     4    2    3 ar  
     5    2    8 ar  
     6    3    4 ar  
     7    4    5 ar  
     8    4    9 1   
     9    5    6 ar  
    10    5   16 1   
    11    6    7 1   
    12    6    8 ar  
    13    7   17 1   
    14    7   18 1   
    15    7   19 1   
    16    9   10 1   
    17   10   11 1   
    18   10   20 1   
    19   10   21 1   
    20   11   12 1   
    21   11   22 1   
    22   11   23 1   
    23   12   13 1   
    24   13   24 1   
    25   13   25 1   
    26   13   26 1   
@<TRIPOS>SUBSTRUCTURE
     1 ZZ2         1 TEMP              0 ****  ****    0 ROOT
