@<TRIPOS>MOLECULE
ZZ2
   27    27     1     0     0
SMALL
bcc


@<TRIPOS>ATOM
      1 N2         -0.1130    0.1690   -0.1050 n4        1 ZZ2     -0.818300
      2 C3          1.3770    0.0380   -0.0410 ca        1 ZZ2      0.735900
      3 N3          1.8990   -0.0540    1.2250 nb        1 ZZ2     -0.768000
      4 C4          3.2600   -0.1620    1.2550 ca        1 ZZ2      0.712600
      5 C5          4.0510   -0.1850    0.0650 ca        1 ZZ2     -0.329600
      6 C2          3.3880   -0.0880   -1.1660 ca        1 ZZ2      0.500600
      7 C1          4.1660   -0.1050   -2.4400 c3        1 ZZ2     -0.168400
      8 N1          2.0220    0.0280   -1.2360 nb        1 ZZ2     -0.701000
      9 O1          3.9530   -0.2640    2.4170 os        1 ZZ2     -0.408100
     10 C6          3.2310   -0.1830    3.6710 c3        1 ZZ2      0.131400
     11 C7          4.3150   -0.0800    4.7380 c3        1 ZZ2      0.118400
     12 O2          4.5560    1.3100    4.9260 os        1 ZZ2     -0.428600
     13 C8          5.5870    1.5660    5.8690 c3        1 ZZ2      0.113700
     14 H21N       -0.3940    1.0250    0.3880 hn        1 ZZ2      0.480133
     15 H22N       -0.5420   -0.6450    0.3500 hn        1 ZZ2      0.480133
     16 H5          5.1460   -0.2730    0.1400 ha        1 ZZ2      0.205000
     17 H11C        5.2560   -0.2170   -2.2210 hc        1 ZZ2      0.084700
     18 H12C        4.0060    0.8480   -3.0070 hc        1 ZZ2      0.084700
     19 H13C        3.8370   -0.9570   -3.0880 hc        1 ZZ2      0.084700
     20 H61C        2.5770    0.7260    3.6790 h1        1 ZZ2      0.075700
     21 H62C        2.6310   -1.1200    3.7900 h1        1 ZZ2      0.075700
     22 H71C        5.2560   -0.5970    4.4110 h1        1 ZZ2      0.060200
     23 H72C        3.9390   -0.5360    5.6920 h1        1 ZZ2      0.060200
     24 H81C        6.5550    1.1300    5.5190 h1        1 ZZ2      0.045367
     25 H82C        5.3150    1.1470    6.8690 h1        1 ZZ2      0.045367
     26 H83C        5.6480    2.6820    5.9110 h1        1 ZZ2      0.045367
     27 H23        -0.4180    0.2190   -1.0870 hn        1 ZZ2      0.480133
@<TRIPOS>BOND
     1    1    2 1   
     2    1   14 1   
     3    1   15 1   
     4    1   27 1   
     5    2    3 ar  
     6    2    8 ar  
     7    3    4 ar  
     8    4    5 ar  
     9    4    9 1   
    10    5    6 ar  
    11    5   16 1   
    12    6    7 1   
    13    6    8 ar  
    14    7   17 1   
    15    7   18 1   
    16    7   19 1   
    17    9   10 1   
    18   10   11 1   
    19   10   20 1   
    20   10   21 1   
    21   11   12 1   
    22   11   22 1   
    23   11   23 1   
    24   12   13 1   
    25   13   24 1   
    26   13   25 1   
    27   13   26 1   
@<TRIPOS>SUBSTRUCTURE
     1 ZZ2         1 TEMP              0 ****  ****    0 ROOT
