@<TRIPOS>MOLECULE
ZZ3
   18    16     1     0     0
SMALL
bcc


@<TRIPOS>ATOM
      1 N5         -3.0420   -0.2940   -0.3010 n3        1 ZZ3     -0.343000
      2 C2         -1.6230   -0.3100   -0.3210 c2        1 ZZ3      0.196000
      3 N4         -0.9360   -0.3350    0.8310 n2        1 ZZ3     -0.294000
      4 N1         -0.9700   -0.3410   -1.4920 n1        1 ZZ3     -0.274000
      5 C3          0.3700   -0.3960   -1.5110 c1        1 ZZ3      0.094000
      6 C8          1.1070   -0.4340   -2.8320 c3        1 ZZ3     -0.164000
      7 N3          1.0570   -0.4200   -0.3590 n1        1 ZZ3     -0.236000
      8 C4          0.4040   -0.3900    0.8120 c1        1 ZZ3     -0.079000
      9 S1          1.3080   -0.4910    2.3340 ss        1 ZZ3      0.334000
     10 C6          1.3730    1.1110    3.0900 c3        1 ZZ3     -0.374000
     11 H51N       -3.4870   -0.2990    0.4970 hn        1 ZZ3      0.238500
     12 H52N       -3.5100   -0.2950   -1.0860 hn        1 ZZ3      0.238500
     13 H61C        1.6720    1.7720    2.4310 h1        1 ZZ3      0.116000
     14 H62C        2.0010    1.0920    3.8420 h1        1 ZZ3      0.116000
     15 H63C        0.4810    1.3550    3.4160 h1        1 ZZ3      0.116000
     16 H81C        2.0600   -0.2670   -2.6790 hc        1 ZZ3      0.105333
     17 H82C        0.7450    0.2550   -3.4270 hc        1 ZZ3      0.105333
     18 H83C        0.9920   -1.3160   -3.2450 hc        1 ZZ3      0.105333
@<TRIPOS>BOND
     1    1    2 1   
     2    1   11 1   
     3    1   12 1   
     4    2    3 1   
     5    2    4 1   
     6    3    8 1   
     7    5    6 1   
     8    5    7 1   
     9    6   16 1   
    10    6   17 1   
    11    6   18 1   
    12    8    9 1   
    13    9   10 1   
    14   10   13 1   
    15   10   14 1   
    16   10   15 1   
@<TRIPOS>SUBSTRUCTURE
     1 ZZ3         1 TEMP              0 ****  ****    0 ROOT
