@<TRIPOS>MOLECULE
ZZ3
   18    18     1     0     0
SMALL
bcc


@<TRIPOS>ATOM
      1 N5         -1.4590    2.7060   -0.0130 nh        1 ZZ3     -0.945500
      2 C2         -1.0930    1.3720    0.0240 ca        1 ZZ3      0.914900
      3 N4          0.2670    1.0640    0.0130 nb        1 ZZ3     -0.820000
      4 N1         -2.1070    0.4140    0.0310 nb        1 ZZ3     -0.800000
      5 C3         -1.6800   -0.8810   -0.0030 ca        1 ZZ3      0.714300
      6 C8         -2.7320   -1.9640   -0.0090 c3        1 ZZ3     -0.140400
      7 N3         -0.3690   -1.2850   -0.0340 nb        1 ZZ3     -0.762000
      8 C4          0.5530   -0.2690   -0.0210 ca        1 ZZ3      0.774300
      9 S1          2.1970   -0.7750   -0.0480 ss        1 ZZ3     -0.175400
     10 C6          3.1420    0.6960   -0.0420 c3        1 ZZ3     -0.074000
     11 H51N       -0.7650    3.3960    0.1360 hn        1 ZZ3      0.443300
     12 H52N       -2.4090    2.9430    0.1420 hn        1 ZZ3      0.443300
     13 H61C        2.9450    1.3390   -0.9280 h1        1 ZZ3      0.076700
     14 H62C        2.9820    1.3070    0.8740 h1        1 ZZ3      0.076700
     15 H63C        4.2030    0.3490   -0.0690 h1        1 ZZ3      0.076700
     16 H81C       -2.6470   -2.5530   -0.9560 hc        1 ZZ3      0.066033
     17 H82C       -2.5640   -2.6500    0.8580 hc        1 ZZ3      0.066033
     18 H83C       -3.7600   -1.5340    0.0610 hc        1 ZZ3      0.066033
@<TRIPOS>BOND
     1    1    2 1   
     2    1   11 1   
     3    1   12 1   
     4    2    3 ar  
     5    2    4 ar  
     6    3    8 ar  
     7    4    5 ar  
     8    5    6 1   
     9    5    7 ar  
    10    6   16 1   
    11    6   17 1   
    12    6   18 1   
    13    7    8 ar  
    14    8    9 1   
    15    9   10 1   
    16   10   13 1   
    17   10   14 1   
    18   10   15 1   
@<TRIPOS>SUBSTRUCTURE
     1 ZZ3         1 TEMP              0 ****  ****    0 ROOT
