@<TRIPOS>MOLECULE
ZZ3
   19    19     1     0     0
SMALL
bcc


@<TRIPOS>ATOM
      1 N5         -0.1310    0.1420   -0.1380 n4        1 ZZ3     -0.826300
      2 C2          1.3640    0.0660   -0.0760 ca        1 ZZ3      0.763900
      3 N4          1.9130    0.0100    1.1770 nb        1 ZZ3     -0.772000
      4 N1          2.0120    0.0590   -1.2710 nb        1 ZZ3     -0.745000
      5 C3          3.4000   -0.0140   -1.1580 ca        1 ZZ3      0.747300
      6 C8          4.1820   -0.0250   -2.4450 c3        1 ZZ3     -0.155400
      7 N3          4.0630   -0.0730    0.0230 nb        1 ZZ3     -0.681000
      8 C4          3.2950   -0.0600    1.1750 ca        1 ZZ3      0.738300
      9 S1          4.1510   -0.1350    2.6250 ss        1 ZZ3      0.030600
     10 C6          2.9700   -0.1030    3.8990 c3        1 ZZ3     -0.127000
     11 H51N       -0.4430    0.9880    0.3550 hn        1 ZZ3      0.481467
     12 H52N       -0.5280   -0.6870    0.3210 hn        1 ZZ3      0.481467
     13 H61C        2.3650    0.8320    3.9230 h1        1 ZZ3      0.099700
     14 H62C        3.5790   -0.1540    4.8390 h1        1 ZZ3      0.099700
     15 H63C        2.2730   -0.9720    3.8830 h1        1 ZZ3      0.099700
     16 H81C        3.8660   -0.9000   -3.0670 hc        1 ZZ3      0.093700
     17 H82C        3.9760    0.9170   -3.0140 hc        1 ZZ3      0.093700
     18 H83C        5.2810   -0.0960   -2.2460 hc        1 ZZ3      0.093700
     19 H53        -0.4410    0.1780   -1.1190 hn        1 ZZ3      0.481467
@<TRIPOS>BOND
     1    1    2 1   
     2    1   11 1   
     3    1   12 1   
     4    1   19 1   
     5    2    3 ar  
     6    2    4 ar  
     7    3    8 ar  
     8    4    5 ar  
     9    5    6 1   
    10    5    7 ar  
    11    6   16 1   
    12    6   17 1   
    13    6   18 1   
    14    7    8 ar  
    15    8    9 1   
    16    9   10 1   
    17   10   13 1   
    18   10   14 1   
    19   10   15 1   
@<TRIPOS>SUBSTRUCTURE
     1 ZZ3         1 TEMP              0 ****  ****    0 ROOT
