@<TRIPOS>MOLECULE
ZZ3
   18    18     1     0     0
SMALL
bcc


@<TRIPOS>ATOM
      1 N5         -0.0780    0.1890   -0.0940 nv        1 ZZ3     -0.945500
      2 C2          1.3000    0.0620   -0.0570 ca        1 ZZ3      0.914900
      3 N4          1.9220    0.0210    1.1900 nb        1 ZZ3     -0.820000
      4 N1          1.9880    0.0220   -1.2700 nb        1 ZZ3     -0.800000
      5 C3          3.3460   -0.0320   -1.1630 ca        1 ZZ3      0.714300
      6 C8          4.1470   -0.0670   -2.4430 c3        1 ZZ3     -0.140400
      7 N3          4.0510   -0.0580    0.0130 nb        1 ZZ3     -0.762000
      8 C4          3.2840   -0.0320    1.1510 ca        1 ZZ3      0.774300
      9 S1          4.1660   -0.0760    2.6270 ss        1 ZZ3     -0.175400
     10 C6          2.9640   -0.0170    3.8950 c3        1 ZZ3     -0.074000
     11 H51N       -0.5920    0.0640    0.7430 hn        1 ZZ3      0.443300
     12 H52N       -0.5430    0.0710   -0.9610 hn        1 ZZ3      0.443300
     13 H61C        2.2740   -0.8900    3.8770 h1        1 ZZ3      0.076700
     14 H62C        2.3510    0.9110    3.8660 h1        1 ZZ3      0.076700
     15 H63C        3.5540   -0.0360    4.8430 h1        1 ZZ3      0.076700
     16 H81C        4.8090    0.8340   -2.4870 hc        1 ZZ3      0.066033
     17 H82C        4.7850   -0.9850   -2.4570 hc        1 ZZ3      0.066033
     18 H83C        3.4820   -0.0730   -3.3400 hc        1 ZZ3      0.066033
@<TRIPOS>BOND
     1    1    2 1   
     2    1   11 1   
     3    1   12 1   
     4    2    3 ar  
     5    2    4 ar  
     6    3    8 ar  
     7    4    5 ar  
     8    5    6 1   
     9    5    7 ar  
    10    6   16 1   
    11    6   17 1   
    12    6   18 1   
    13    7    8 ar  
    14    8    9 1   
    15    9   10 1   
    16   10   13 1   
    17   10   14 1   
    18   10   15 1   
@<TRIPOS>SUBSTRUCTURE
     1 ZZ3         1 TEMP              0 ****  ****    0 ROOT
