@<TRIPOS>MOLECULE
ZZ4
   34    36     1     0     0
SMALL
bcc


@<TRIPOS>ATOM
      1 Cl1         0.0850   -0.1620    0.3040 cl        1 ZZ4     -0.084400
      2 C2          1.7810   -0.1270    0.2140 ca        1 ZZ4      0.032400
      3 C1          2.5430   -0.4810    1.3320 ca        1 ZZ4     -0.131000
      4 C5          3.9330   -0.4500    1.2520 ca        1 ZZ4     -0.075000
      5 C3          2.3980    0.2560   -0.9790 ca        1 ZZ4     -0.130000
      6 C4          3.7960    0.2810   -1.0510 ca        1 ZZ4      0.055400
      7 Cl2         4.5230    0.7600   -2.5080 cl        1 ZZ4     -0.072400
      8 C6          4.5700   -0.0710    0.0640 cp        1 ZZ4     -0.135500
      9 C7          6.0490   -0.0560    0.0130 cp        1 ZZ4      0.578800
     10 N1          6.6510   -0.9570   -0.7840 nb        1 ZZ4     -0.748000
     11 C9          6.7860    0.8920    0.7930 ca        1 ZZ4     -0.199200
     12 C10         8.2030    0.8340    0.6600 ca        1 ZZ4      0.491200
     13 N3          8.8430   -0.0390   -0.1170 nb        1 ZZ4     -0.755000
     14 C8          8.0430   -0.9410   -0.8240 ca        1 ZZ4      0.898900
     15 N2          8.6750   -1.9110   -1.5830 nv        1 ZZ4     -0.939500
     16 N4          6.0590    1.8020    1.6080 ne        1 ZZ4     -0.178400
     17 N5          6.6710    2.6380    2.2760 nf        1 ZZ4     -0.227400
     18 C13         5.9390    3.5640    3.0930 ca        1 ZZ4      0.096400
     19 C14         6.6910    4.2600    4.0660 ca        1 ZZ4     -0.098500
     20 C15         6.0730    5.2030    4.8800 ca        1 ZZ4     -0.139000
     21 C16         4.7120    5.4760    4.7430 ca        1 ZZ4     -0.114000
     22 C11         3.9640    4.7970    3.7830 ca        1 ZZ4     -0.139000
     23 C12         4.5650    3.8460    2.9620 ca        1 ZZ4     -0.098500
     24 H1          2.0520   -0.7810    2.2700 ha        1 ZZ4      0.153000
     25 H3          1.7940    0.5350   -1.8560 ha        1 ZZ4      0.163000
     26 H5          4.5380   -0.7210    2.1310 ha        1 ZZ4      0.152000
     27 H10         8.8590    1.5370    1.2120 h4        1 ZZ4      0.047100
     28 H21N        8.1310   -2.4600   -2.2030 hn        1 ZZ4      0.446300
     29 H22N        9.6480   -1.8260   -1.7480 hn        1 ZZ4      0.446300
     30 H14         7.7670    4.0580    4.1860 ha        1 ZZ4      0.148000
     31 H12         3.9540    3.3240    2.2090 ha        1 ZZ4      0.148000
     32 H15         6.6660    5.7380    5.6370 ha        1 ZZ4      0.136000
     33 H16         4.2320    6.2250    5.3890 ha        1 ZZ4      0.134000
     34 H11         2.8900    5.0110    3.6700 ha        1 ZZ4      0.136000
@<TRIPOS>BOND
     1    1    2 1   
     2    2    3 ar  
     3    2    5 ar  
     4    3    4 ar  
     5    3   24 1   
     6    4    8 ar  
     7    4   26 1   
     8    5    6 ar  
     9    5   25 1   
    10    6    7 1   
    11    6    8 ar  
    12    8    9 1   
    13    9   10 ar  
    14    9   11 ar  
    15   10   14 ar  
    16   11   12 ar  
    17   11   16 1   
    18   12   13 ar  
    19   12   27 1   
    20   13   14 ar  
    21   14   15 1   
    22   15   28 1   
    23   15   29 1   
    24   16   17 2   
    25   17   18 1   
    26   18   19 ar  
    27   18   23 ar  
    28   19   20 ar  
    29   19   30 1   
    30   20   21 ar  
    31   20   32 1   
    32   21   22 ar  
    33   21   33 1   
    34   22   23 ar  
    35   22   34 1   
    36   23   31 1   
@<TRIPOS>SUBSTRUCTURE
     1 ZZ4         1 TEMP              0 ****  ****    0 ROOT
