@<TRIPOS>MOLECULE
ZZ4
   35    37     1     0     0
SMALL
bcc


@<TRIPOS>ATOM
      1 CL1         0.1390    0.5010   -0.3860 cl        1 ZZ4     -0.039400
      2 C2          1.8170    0.3420   -0.2620 ca        1 ZZ4      0.052400
      3 C1          2.3870   -0.1410    0.9230 ca        1 ZZ4     -0.127000
      4 C5          3.7690   -0.2700    1.0210 ca        1 ZZ4     -0.065000
      5 C3          2.6260    0.6950   -1.3470 ca        1 ZZ4     -0.123000
      6 C4          4.0130    0.5570   -1.2440 ca        1 ZZ4      0.062400
      7 CL2         4.9780    1.0040   -2.5690 cl        1 ZZ4     -0.072400
      8 C6          4.5920    0.0780   -0.0580 cp        1 ZZ4     -0.192500
      9 C7          6.0520   -0.0740    0.0670 cp        1 ZZ4      0.547800
     10 N1          6.6690   -0.9670   -0.7440 nb        1 ZZ4     -0.645000
     11 C9          6.7990    0.7070    1.0120 ca        1 ZZ4     -0.016200
     12 C10         8.2110    0.5190    1.0300 ca        1 ZZ4      0.438200
     13 N3          8.8420   -0.3560    0.2310 nb        1 ZZ4     -0.650000
     14 C8          8.0280   -1.0590   -0.6190 ca        1 ZZ4      0.658900
     15 N2          8.7000   -2.0380   -1.5240 n4        1 ZZ4     -0.808300
     16 N4          6.1110    1.5150    1.9640 ne        1 ZZ4     -0.217400
     17 N5          6.4610    2.6860    2.1140 nf        1 ZZ4     -0.145400
     18 C13         5.8360    3.5230    3.0850 ca        1 ZZ4      0.048400
     19 C14         6.2230    4.8850    3.0590 ca        1 ZZ4     -0.068500
     20 C15         5.6780    5.7750    3.9780 ca        1 ZZ4     -0.141000
     21 C16         4.7530    5.3380    4.9280 ca        1 ZZ4     -0.071000
     22 C11         4.3670    3.9980    4.9590 ca        1 ZZ4     -0.141000
     23 C12         4.8980    3.0910    4.0470 ca        1 ZZ4     -0.068500
     24 H1          1.7460   -0.4190    1.7750 ha        1 ZZ4      0.168000
     25 H3          2.1750    1.0790   -2.2780 ha        1 ZZ4      0.178000
     26 H5          4.2170   -0.6450    1.9550 ha        1 ZZ4      0.155000
     27 H10         8.8680    1.0960    1.7160 h4        1 ZZ4      0.080100
     28 H21N        8.4680   -1.8080   -2.4980 hn        1 ZZ4      0.478800
     29 H22N        8.3600   -2.9820   -1.3060 hn        1 ZZ4      0.478800
     30 H14         6.9510    5.2460    2.3150 ha        1 ZZ4      0.152000
     31 H12         4.5780    2.0370    4.0900 ha        1 ZZ4      0.152000
     32 H15         5.9810    6.8340    3.9530 ha        1 ZZ4      0.153000
     33 H16         4.3280    6.0520    5.6520 ha        1 ZZ4      0.153000
     34 H11         3.6380    3.6540    5.7080 ha        1 ZZ4      0.153000
     35 H23         9.7190   -1.9960   -1.3900 hn        1 ZZ4      0.478800
@<TRIPOS>BOND
     1    1    2 1   
     2    2    3 ar  
     3    2    5 ar  
     4    3    4 ar  
     5    3   24 1   
     6    4    8 ar  
     7    4   26 1   
     8    5    6 ar  
     9    5   25 1   
    10    6    7 1   
    11    6    8 ar  
    12    8    9 1   
    13    9   10 ar  
    14    9   11 ar  
    15   10   14 ar  
    16   11   12 ar  
    17   11   16 1   
    18   12   13 ar  
    19   12   27 1   
    20   13   14 ar  
    21   14   15 1   
    22   15   28 1   
    23   15   29 1   
    24   15   35 1   
    25   16   17 2   
    26   17   18 1   
    27   18   19 ar  
    28   18   23 ar  
    29   19   20 ar  
    30   19   30 1   
    31   20   21 ar  
    32   20   32 1   
    33   21   22 ar  
    34   21   33 1   
    35   22   23 ar  
    36   22   34 1   
    37   23   31 1   
@<TRIPOS>SUBSTRUCTURE
     1 ZZ4         1 TEMP              0 ****  ****    0 ROOT
