@<TRIPOS>MOLECULE
ZZ4
   34    36     1     0     0
SMALL
bcc


@<TRIPOS>ATOM
      1 CL1         2.4090   -4.3850    0.5910 cl        1 ZZ4     -0.084400
      2 C2          1.9960   -2.7380    0.5230 ca        1 ZZ4      0.032400
      3 C1          1.2280   -2.1720    1.5460 ca        1 ZZ4     -0.131000
      4 C5          0.8920   -0.8230    1.4850 ca        1 ZZ4     -0.075000
      5 C3          2.4270   -1.9650   -0.5580 ca        1 ZZ4     -0.130000
      6 C4          2.0870   -0.6090   -0.6090 ca        1 ZZ4      0.055400
      7 CL2         2.6130    0.3080   -1.9380 cl        1 ZZ4     -0.072400
      8 C6          1.3170   -0.0310    0.4120 cp        1 ZZ4     -0.135500
      9 C7          0.9470    1.4010    0.3820 cp        1 ZZ4      0.578800
     10 N1          1.9390    2.3010    0.5170 nb        1 ZZ4     -0.748000
     11 C9         -0.4220    1.7880    0.2170 ca        1 ZZ4     -0.199200
     12 C10        -0.6700    3.1900    0.1850 ca        1 ZZ4      0.491200
     13 N3          0.2790    4.1170    0.3130 nb        1 ZZ4     -0.755000
     14 C8          1.5830    3.6480    0.4940 ca        1 ZZ4      0.898900
     15 N2          2.5840    4.5790    0.7060 nh        1 ZZ4     -0.939500
     16 N4         -1.3980    0.7620    0.0860 ne        1 ZZ4     -0.178400
     17 N5         -2.5810    1.0710   -0.0750 nf        1 ZZ4     -0.227400
     18 C13        -3.5680    0.0380   -0.2160 ca        1 ZZ4      0.096400
     19 C14        -4.9130    0.4410   -0.0620 ca        1 ZZ4     -0.098500
     20 C15        -5.9400   -0.4850   -0.2170 ca        1 ZZ4     -0.139000
     21 C16        -5.6550   -1.8140   -0.5300 ca        1 ZZ4     -0.114000
     22 C11        -4.3310   -2.2200   -0.6870 ca        1 ZZ4     -0.139000
     23 C12        -3.2900   -1.3070   -0.5310 ca        1 ZZ4     -0.098500
     24 H1          0.8900   -2.7870    2.3950 ha        1 ZZ4      0.153000
     25 H3          3.0290   -2.4160   -1.3620 ha        1 ZZ4      0.163000
     26 H5          0.2830   -0.3730    2.2840 ha        1 ZZ4      0.152000
     27 H10        -1.6960    3.5870    0.0460 h4        1 ZZ4      0.047100
     28 H21N        3.5280    4.2780    0.6860 hn        1 ZZ4      0.446300
     29 H22N        2.3850    5.5360    0.5420 hn        1 ZZ4      0.446300
     30 H14        -5.1560    1.4870    0.1830 ha        1 ZZ4      0.148000
     31 H12        -2.2520   -1.6500   -0.6620 ha        1 ZZ4      0.148000
     32 H15        -6.9840   -0.1620   -0.0930 ha        1 ZZ4      0.136000
     33 H16        -6.4730   -2.5390   -0.6530 ha        1 ZZ4      0.134000
     34 H11        -4.1030   -3.2670   -0.9360 ha        1 ZZ4      0.136000
@<TRIPOS>BOND
     1    1    2 1   
     2    2    3 ar  
     3    2    5 ar  
     4    3    4 ar  
     5    3   24 1   
     6    4    8 ar  
     7    4   26 1   
     8    5    6 ar  
     9    5   25 1   
    10    6    7 1   
    11    6    8 ar  
    12    8    9 1   
    13    9   10 ar  
    14    9   11 ar  
    15   10   14 ar  
    16   11   12 ar  
    17   11   16 1   
    18   12   13 ar  
    19   12   27 1   
    20   13   14 ar  
    21   14   15 1   
    22   15   28 1   
    23   15   29 1   
    24   16   17 2   
    25   17   18 1   
    26   18   19 ar  
    27   18   23 ar  
    28   19   20 ar  
    29   19   30 1   
    30   20   21 ar  
    31   20   32 1   
    32   21   22 ar  
    33   21   33 1   
    34   22   23 ar  
    35   22   34 1   
    36   23   31 1   
@<TRIPOS>SUBSTRUCTURE
     1 ZZ4         1 TEMP              0 ****  ****    0 ROOT
