@<TRIPOS>MOLECULE
ZZ5
   43    45     1     0     0
SMALL
bcc


@<TRIPOS>ATOM
      1 N19        -1.5090   -0.0510   -2.1110 n1        1 ZZ5     -0.164800
      2 C14        -0.8680   -0.0390   -1.1390 cg        1 ZZ5      0.124800
      3 C6         -0.1120   -0.0140    0.0590 ca        1 ZZ5     -0.071300
      4 C13         1.3210    0.0560   -0.0140 ca        1 ZZ5      0.571200
      5 N18         1.9560    0.0870   -1.3510 n4        1 ZZ5     -0.832300
      6 N8          2.1350    0.1100    1.0570 nb        1 ZZ5     -0.605000
      7 C3          1.5380    0.0740    2.2740 ca        1 ZZ5      0.421600
      8 S7          2.3530    0.0800    3.7400 ss        1 ZZ5      0.315100
      9 C9          0.9620   -0.0520    4.6570 cc        1 ZZ5     -0.277600
     10 C15         0.8920   -0.1360    6.1090 c         1 ZZ5      0.592300
     11 N20         2.1540   -0.0400    6.9140 n4        1 ZZ5     -0.744400
     12 O21        -0.1340   -0.2840    6.7660 o         1 ZZ5     -0.412100
     13 C4         -0.1980   -0.0960    3.8540 cd        1 ZZ5      0.077800
     14 N10        -1.5560   -0.2460    4.3270 n4        1 ZZ5     -0.709400
     15 C1          0.1140   -0.0000    2.4600 ca        1 ZZ5     -0.190100
     16 C2         -0.7390   -0.0180    1.3190 cp        1 ZZ5      0.190000
     17 C5         -2.1810   -0.0310    1.4410 cp        1 ZZ5     -0.292000
     18 C12        -2.9410   -1.0540    0.8250 ca        1 ZZ5     -0.066500
     19 C17        -4.3180   -1.0090    0.8180 ca        1 ZZ5     -0.192500
     20 C11        -2.8600    1.0650    2.0200 ca        1 ZZ5     -0.066500
     21 C16        -4.2400    1.1390    2.0000 ca        1 ZZ5     -0.192500
     22 C22        -4.9930    0.1070    1.3890 ca        1 ZZ5      0.249100
     23 O23        -6.3340    0.0730    1.2960 os        1 ZZ5     -0.274900
     24 C24        -7.0910    1.2260    1.7570 c3        1 ZZ5      0.128400
     25 C25        -8.5300    0.8990    1.4440 c3        1 ZZ5     -0.113100
     26 H181        2.9810    0.2100   -1.2870 hn        1 ZZ5      0.501467
     27 H182        1.5570    0.8710   -1.8940 hn        1 ZZ5      0.501467
     28 H201        2.6240    0.8640    6.7610 hn        1 ZZ5      0.500467
     29 H202        1.9160   -0.1130    7.9240 hn        1 ZZ5      0.500467
     30 H101       -1.5880   -0.8030    5.1970 hn        1 ZZ5      0.497800
     31 H102       -1.9670    0.6850    4.5090 hn        1 ZZ5      0.497800
     32 H12        -2.4250   -1.9060    0.3480 ha        1 ZZ5      0.147000
     33 H11        -2.2830    1.9120    2.4260 ha        1 ZZ5      0.147000
     34 H17        -4.9190   -1.8100    0.3500 ha        1 ZZ5      0.194500
     35 H16        -4.7530    2.0210    2.4180 ha        1 ZZ5      0.194500
     36 H241       -6.7360    2.1320    1.2000 h1        1 ZZ5      0.057700
     37 H242       -6.9170    1.3440    2.8570 h1        1 ZZ5      0.057700
     38 H251       -8.8530   -0.0280    1.9780 hc        1 ZZ5      0.079033
     39 H252       -9.1690    1.7540    1.7770 hc        1 ZZ5      0.079033
     40 H253       -8.6720    0.7440    0.3470 hc        1 ZZ5      0.079033
     41 H183        1.7540   -0.8000   -1.8400 hn        1 ZZ5      0.501467
     42 H203        2.8030   -0.8050    6.6830 hn        1 ZZ5      0.500467
     43 H103       -2.1300   -0.7100    3.5880 hn        1 ZZ5      0.497800
@<TRIPOS>BOND
     1    1    2 3   
     2    2    3 1   
     3    3    4 ar  
     4    3   16 ar  
     5    4    5 1   
     6    4    6 ar  
     7    5   26 1   
     8    5   27 1   
     9    5   41 1   
    10    6    7 ar  
    11    7    8 1   
    12    7   15 ar  
    13    8    9 1   
    14    9   10 1   
    15    9   13 2   
    16   10   11 1   
    17   10   12 2   
    18   11   28 1   
    19   11   29 1   
    20   11   42 1   
    21   13   14 1   
    22   13   15 1   
    23   14   30 1   
    24   14   31 1   
    25   14   43 1   
    26   15   16 ar  
    27   16   17 1   
    28   17   18 ar  
    29   17   20 ar  
    30   18   19 ar  
    31   18   32 1   
    32   19   22 ar  
    33   19   34 1   
    34   20   21 ar  
    35   20   33 1   
    36   21   22 ar  
    37   21   35 1   
    38   22   23 1   
    39   23   24 1   
    40   24   25 1   
    41   24   36 1   
    42   24   37 1   
    43   25   38 1   
    44   25   39 1   
    45   25   40 1   
@<TRIPOS>SUBSTRUCTURE
     1 ZZ5         1 TEMP              0 ****  ****    0 ROOT
