@<TRIPOS>MOLECULE
ZZ5
   40    42     1     0     0
SMALL
bcc


@<TRIPOS>ATOM
      1 N19        -1.4870    4.0280    0.3520 n1        1 ZZ5     -0.376800
      2 C14        -0.5950    3.2820    0.2820 cg        1 ZZ5      0.246800
      3 C6          0.4930    2.3800    0.2000 ca        1 ZZ5     -0.227300
      4 C13         1.8490    2.8920    0.2760 ca        1 ZZ5      0.736200
      5 N18         2.0640    4.2490    0.3700 nh        1 ZZ5     -0.960500
      6 N8          2.9370    2.0620    0.2230 nb        1 ZZ5     -0.737000
      7 C3          2.6960    0.7450    0.0720 ca        1 ZZ5      0.514600
      8 S7          3.9080   -0.4240   -0.0220 ss        1 ZZ5     -0.020900
      9 C9          2.8160   -1.7080   -0.1920 cc        1 ZZ5     -0.357600
     10 C15         3.2430   -3.0940   -0.3380 c         1 ZZ5      0.728300
     11 N20         4.5940   -3.3660   -0.3390 n         1 ZZ5     -0.678000
     12 O21         2.4410   -4.0530   -0.4610 o         1 ZZ5     -0.662100
     13 C4          1.4750   -1.2930   -0.1800 cd        1 ZZ5      0.323800
     14 N10         0.4040   -2.1080   -0.2870 nh        1 ZZ5     -0.835600
     15 C1          1.3890    0.1590   -0.0250 ca        1 ZZ5     -0.310100
     16 C2          0.2740    1.0060    0.0440 cp        1 ZZ5      0.158000
     17 C5         -1.0990    0.4960   -0.0390 cp        1 ZZ5     -0.132000
     18 C12        -1.7330    0.3810   -1.2870 ca        1 ZZ5     -0.072000
     19 C17        -3.0360   -0.0880   -1.3750 ca        1 ZZ5     -0.186500
     20 C11        -1.7900    0.1340    1.1230 ca        1 ZZ5     -0.072000
     21 C16        -3.0990   -0.3390    1.0520 ca        1 ZZ5     -0.186500
     22 C22        -3.7230   -0.4480   -0.1980 ca        1 ZZ5      0.146100
     23 O23        -5.0050   -0.9060   -0.3980 os        1 ZZ5     -0.326900
     24 C24        -5.7600   -1.2110    0.7850 c3        1 ZZ5      0.127400
     25 C25        -7.1300   -1.6300    0.3050 c3        1 ZZ5     -0.101100
     26 H181        1.2960    4.8410    0.5660 hn        1 ZZ5      0.444300
     27 H182        2.9810    4.5960    0.5130 hn        1 ZZ5      0.444300
     28 H201        5.2680   -2.6510   -0.2620 hn        1 ZZ5      0.311000
     29 H202        4.8950   -4.3020   -0.4460 hn        1 ZZ5      0.311000
     30 H101        0.5500   -3.0870   -0.4060 hn        1 ZZ5      0.459300
     31 H102       -0.5130   -1.7370   -0.3050 hn        1 ZZ5      0.459300
     32 H12        -1.1940    0.6700   -2.2020 ha        1 ZZ5      0.146500
     33 H11        -1.2990    0.2250    2.1040 ha        1 ZZ5      0.146500
     34 H17        -3.5440   -0.1780   -2.3460 ha        1 ZZ5      0.151500
     35 H16        -3.6240   -0.6140    1.9760 ha        1 ZZ5      0.151500
     36 H241       -5.2530   -2.0420    1.3430 h1        1 ZZ5      0.041200
     37 H242       -5.8170   -0.2990    1.4360 h1        1 ZZ5      0.041200
     38 H251       -7.6140   -0.8020   -0.2660 hc        1 ZZ5      0.051367
     39 H252       -7.0550   -2.5210   -0.3640 hc        1 ZZ5      0.051367
     40 H253       -7.7630   -1.8860    1.1880 hc        1 ZZ5      0.051367
@<TRIPOS>BOND
     1    1    2 3   
     2    2    3 1   
     3    3    4 ar  
     4    3   16 ar  
     5    4    5 1   
     6    4    6 ar  
     7    5   26 1   
     8    5   27 1   
     9    6    7 ar  
    10    7    8 1   
    11    7   15 ar  
    12    8    9 1   
    13    9   10 1   
    14    9   13 2   
    15   10   11 1   
    16   10   12 2   
    17   11   28 1   
    18   11   29 1   
    19   13   14 1   
    20   13   15 1   
    21   14   30 1   
    22   14   31 1   
    23   15   16 ar  
    24   16   17 1   
    25   17   18 ar  
    26   17   20 ar  
    27   18   19 ar  
    28   18   32 1   
    29   19   22 ar  
    30   19   34 1   
    31   20   21 ar  
    32   20   33 1   
    33   21   22 ar  
    34   21   35 1   
    35   22   23 1   
    36   23   24 1   
    37   24   25 1   
    38   24   36 1   
    39   24   37 1   
    40   25   38 1   
    41   25   39 1   
    42   25   40 1   
@<TRIPOS>SUBSTRUCTURE
     1 ZZ5         1 TEMP              0 ****  ****    0 ROOT
