@<TRIPOS>MOLECULE
ZZ5
   41    43     1     0     0
SMALL
bcc


@<TRIPOS>ATOM
      1 N19        -1.5000    0.4390   -1.9700 n1        1 ZZ5     -0.318800
      2 C14        -0.8880    0.3580   -0.9830 cg        1 ZZ5      0.217800
      3 C6         -0.1460    0.2600    0.2200 ca        1 ZZ5     -0.208300
      4 C13         1.3080    0.2470    0.1540 ca        1 ZZ5      0.771200
      5 N18         1.9450    0.3330   -1.0450 nv        1 ZZ5     -0.923500
      6 N8          2.0760    0.1480    1.3020 nb        1 ZZ5     -0.734000
      7 C3          1.4240    0.0670    2.4610 ca        1 ZZ5      0.594600
      8 S7          2.2140   -0.0560    3.9680 ss        1 ZZ5     -0.102900
      9 C9          0.7580   -0.1020    4.8540 cc        1 ZZ5     -0.398600
     10 C15         0.6680   -0.2040    6.2480 c         1 ZZ5      0.600300
     11 N20         2.0040   -0.2840    6.9890 nz        1 ZZ5     -0.753400
     12 O21        -0.3020   -0.2440    7.0110 o         1 ZZ5     -0.529100
     13 C4         -0.4000   -0.0220    4.0070 cd        1 ZZ5      0.398800
     14 N10        -1.6610   -0.0340    4.4460 nv        1 ZZ5     -0.777600
     15 C1         -0.0020    0.0730    2.6150 ca        1 ZZ5     -0.360100
     16 C2         -0.7940    0.1710    1.4530 cp        1 ZZ5      0.193000
     17 C5         -2.2590    0.1790    1.5160 cp        1 ZZ5     -0.181000
     18 C12        -2.9650   -1.0350    1.5830 ca        1 ZZ5     -0.071500
     19 C17        -4.3500   -1.0420    1.6100 ca        1 ZZ5     -0.187500
     20 C11        -2.9630    1.3870    1.4650 ca        1 ZZ5     -0.071500
     21 C16        -4.3550    1.3970    1.4950 ca        1 ZZ5     -0.187500
     22 C22        -5.0530    0.1830    1.5630 ca        1 ZZ5      0.168100
     23 O23        -6.4170    0.0640    1.6080 os        1 ZZ5     -0.317900
     24 C24        -7.1740    1.2740    1.4180 c3        1 ZZ5      0.126400
     25 C25        -8.6240    0.8500    1.4020 c3        1 ZZ5     -0.103100
     26 H181        2.9370    0.3220   -1.1020 hn        1 ZZ5      0.466800
     27 H182        1.4160    0.3990   -1.8820 hn        1 ZZ5      0.466800
     28 H201        1.8260   -0.3580    7.9960 hn        1 ZZ5      0.460800
     29 H202        2.5270   -1.1040    6.6730 hn        1 ZZ5      0.460800
     30 H101       -1.8590   -0.1020    5.4220 hn        1 ZZ5      0.475800
     31 H102       -2.4240    0.0210    3.8040 hn        1 ZZ5      0.475800
     32 H12        -2.4160   -1.9900    1.5950 ha        1 ZZ5      0.148000
     33 H11        -2.4170    2.3410    1.3930 ha        1 ZZ5      0.148000
     34 H17        -4.9160   -1.9850    1.6520 ha        1 ZZ5      0.163000
     35 H16        -4.8910    2.3570    1.4480 ha        1 ZZ5      0.163000
     36 H241       -6.8750    1.7500    0.4480 h1        1 ZZ5      0.045200
     37 H242       -6.9610    1.9730    2.2690 h1        1 ZZ5      0.045200
     38 H251       -8.8970    0.3490    2.3620 hc        1 ZZ5      0.058033
     39 H252       -9.2640    1.7540    1.2650 hc        1 ZZ5      0.058033
     40 H253       -8.8140    0.1360    0.5660 hc        1 ZZ5      0.058033
     41 H203        2.5560    0.5560    6.8010 hn        1 ZZ5      0.460800
@<TRIPOS>BOND
     1    1    2 3   
     2    2    3 1   
     3    3    4 ar  
     4    3   16 ar  
     5    4    5 1   
     6    4    6 ar  
     7    5   26 1   
     8    5   27 1   
     9    6    7 ar  
    10    7    8 1   
    11    7   15 ar  
    12    8    9 1   
    13    9   10 1   
    14    9   13 2   
    15   10   11 1   
    16   10   12 2   
    17   11   28 1   
    18   11   29 1   
    19   11   41 1   
    20   13   14 1   
    21   13   15 1   
    22   14   30 1   
    23   14   31 1   
    24   15   16 ar  
    25   16   17 1   
    26   17   18 ar  
    27   17   20 ar  
    28   18   19 ar  
    29   18   32 1   
    30   19   22 ar  
    31   19   34 1   
    32   20   21 ar  
    33   20   33 1   
    34   21   22 ar  
    35   21   35 1   
    36   22   23 1   
    37   23   24 1   
    38   24   25 1   
    39   24   36 1   
    40   24   37 1   
    41   25   38 1   
    42   25   39 1   
    43   25   40 1   
@<TRIPOS>SUBSTRUCTURE
     1 ZZ5         1 TEMP              0 ****  ****    0 ROOT
