@<TRIPOS>MOLECULE
ZZ6
   36    38     1     0     0
SMALL
bcc


@<TRIPOS>ATOM
      1 Cl2         0.6680   -1.7660   -0.5090 cl        1 ZZ6     -0.068400
      2 C21         1.9950   -0.7540   -0.1950 ca        1 ZZ6      0.044400
      3 C20         2.5200   -0.7150    1.1000 ca        1 ZZ6     -0.121000
      4 C19         3.5990    0.1300    1.3800 ca        1 ZZ6      0.044400
      5 Cl1         4.2400    0.1750    2.9450 cl        1 ZZ6     -0.044400
      6 C18         4.1460    0.9410    0.3780 ca        1 ZZ6     -0.123000
      7 C17         3.6150    0.9000   -0.9080 ca        1 ZZ6     -0.075000
      8 C11         2.5500    0.0430   -1.2080 cp        1 ZZ6     -0.196500
      9 C2          2.0150    0.0190   -2.5860 cp        1 ZZ6      0.645800
     10 N1          1.2900    1.0450   -3.0160 nb        1 ZZ6     -0.727000
     11 C4          0.7960    0.9970   -4.3450 ca        1 ZZ6      0.954900
     12 N10         0.0460    2.0540   -4.7690 nv        1 ZZ6     -0.899500
     13 N3          1.0240   -0.0510   -5.2460 nb        1 ZZ6     -0.751000
     14 C5          1.7660   -1.0560   -4.7700 ca        1 ZZ6      0.559600
     15 S9          2.2120   -2.4520   -5.6310 ss        1 ZZ6     -0.049900
     16 C6          2.3120   -1.1010   -3.4340 ca        1 ZZ6     -0.431400
     17 C7          3.0560   -2.2700   -3.1960 cc        1 ZZ6      0.118800
     18 C8          3.0800   -3.1080   -4.3160 cd        1 ZZ6     -0.330600
     19 C12         3.7660   -4.3560   -4.2940 c         1 ZZ6      0.612300
     20 O13         4.4670   -4.8610   -3.4230 o         1 ZZ6     -0.454100
     21 N14         3.5980   -5.2370   -5.5320 ny        1 ZZ6     -0.682800
     22 C15         4.4470   -4.7590   -6.6640 c3        1 ZZ6      0.108800
     23 C16         4.3320   -5.6340   -7.8940 c3        1 ZZ6     -0.136100
     24 H20         2.0800   -1.3390    1.8950 ha        1 ZZ6      0.176000
     25 H18         4.9870    1.6160    0.6060 ha        1 ZZ6      0.168000
     26 H17         4.0320    1.5520   -1.6920 ha        1 ZZ6      0.155000
     27 H101       -0.3320    2.0640   -5.6880 hn        1 ZZ6      0.472300
     28 H102       -0.1480    2.8090   -4.1520 hn        1 ZZ6      0.472300
     29 H7          3.5530   -2.5000   -2.2430 ha        1 ZZ6      0.193000
     30 H14         2.6140   -5.2440   -5.8180 hn        1 ZZ6      0.455300
     31 H151        5.5140   -4.7370   -6.2980 hx        1 ZZ6      0.109700
     32 H152        4.1260   -3.7010   -6.9030 hx        1 ZZ6      0.109700
     33 H161        3.2880   -5.6570   -8.2900 hc        1 ZZ6      0.078700
     34 H162        4.6670   -6.6810   -7.6890 hc        1 ZZ6      0.078700
     35 H163        4.9970   -5.2050   -8.6870 hc        1 ZZ6      0.078700
     36 H142        3.8740   -6.1980   -5.2880 hn        1 ZZ6      0.455300
@<TRIPOS>BOND
     1    1    2 1   
     2    2    3 ar  
     3    2    8 ar  
     4    3    4 ar  
     5    3   24 1   
     6    4    5 1   
     7    4    6 ar  
     8    6    7 ar  
     9    6   25 1   
    10    7    8 ar  
    11    7   26 1   
    12    8    9 1   
    13    9   10 ar  
    14    9   16 ar  
    15   10   11 ar  
    16   11   12 1   
    17   11   13 ar  
    18   12   27 1   
    19   12   28 1   
    20   13   14 ar  
    21   14   15 1   
    22   14   16 ar  
    23   15   18 1   
    24   16   17 1   
    25   17   18 2   
    26   17   29 1   
    27   18   19 1   
    28   19   20 2   
    29   19   21 1   
    30   21   22 1   
    31   21   30 1   
    32   21   36 1   
    33   22   23 1   
    34   22   31 1   
    35   22   32 1   
    36   23   33 1   
    37   23   34 1   
    38   23   35 1   
@<TRIPOS>SUBSTRUCTURE
     1 ZZ6         1 TEMP              0 ****  ****    0 ROOT
