@<TRIPOS>MOLECULE
ZZ6
   35    37     1     0     0
SMALL
bcc


@<TRIPOS>ATOM
      1 CL2         3.1340   -1.1920   -1.6740 cl        1 ZZ6     -0.065400
      2 C21         2.8970   -0.0100   -0.4810 ca        1 ZZ6      0.060400
      3 C20         3.8210    1.0380   -0.3920 ca        1 ZZ6     -0.129000
      4 C19         3.6420    2.0330    0.5720 ca        1 ZZ6      0.036400
      5 CL1         4.7640    3.3010    0.6860 cl        1 ZZ6     -0.077400
      6 C18         2.5460    1.9940    1.4420 ca        1 ZZ6     -0.128000
      7 C17         1.6310    0.9510    1.3440 ca        1 ZZ6     -0.090000
      8 C11         1.7970   -0.0600    0.3880 cp        1 ZZ6     -0.156500
      9 C2          0.8040   -1.1530    0.3290 cp        1 ZZ6      0.592800
     10 N1          1.2120   -2.4120    0.5130 nb        1 ZZ6     -0.733000
     11 C4          0.2350   -3.4240    0.4590 ca        1 ZZ6      0.898900
     12 N10         0.6590   -4.7170    0.7400 nh        1 ZZ6     -0.933500
     13 N3         -1.1110   -3.2280    0.1980 nb        1 ZZ6     -0.738000
     14 C5         -1.4780   -1.9420    0.0250 ca        1 ZZ6      0.486600
     15 S9         -3.0470   -1.3900   -0.2980 ss        1 ZZ6     -0.021900
     16 C6         -0.5620   -0.8380    0.0850 ca        1 ZZ6     -0.384400
     17 C7         -1.2220    0.4090   -0.1380 cc        1 ZZ6     -0.004200
     18 C8         -2.5700    0.2410   -0.3500 cd        1 ZZ6     -0.208600
     19 C12        -3.4790    1.3750   -0.5960 c         1 ZZ6      0.700300
     20 O13        -3.0490    2.5430   -0.6810 o         1 ZZ6     -0.600100
     21 N14        -4.8230    1.0840   -0.7730 n         1 ZZ6     -0.562900
     22 C15        -5.8170    2.1170   -0.8910 c3        1 ZZ6      0.083000
     23 C16        -6.7210    2.2760    0.3230 c3        1 ZZ6     -0.123100
     24 H20         4.6830    1.0750   -1.0780 ha        1 ZZ6      0.165000
     25 H18         2.4070    2.7810    2.1990 ha        1 ZZ6      0.157000
     26 H17         0.7650    0.9150    2.0250 ha        1 ZZ6      0.153000
     27 H101        1.6340   -4.8980    0.7360 hn        1 ZZ6      0.441300
     28 H102        0.0460   -5.4660    0.5220 hn        1 ZZ6      0.441300
     29 H7         -0.7080    1.3770   -0.1400 ha        1 ZZ6      0.182000
     30 H14        -5.1510    0.1790   -0.5300 hn        1 ZZ6      0.302500
     31 H151       -5.2970    3.0980   -1.0960 h1        1 ZZ6      0.064200
     32 H152       -6.4560    1.8680   -1.7880 h1        1 ZZ6      0.064200
     33 H161       -7.4740    3.0720    0.1080 hc        1 ZZ6      0.041700
     34 H162       -7.2650    1.3280    0.5510 hc        1 ZZ6      0.041700
     35 H163       -6.1360    2.5750    1.2240 hc        1 ZZ6      0.041700
@<TRIPOS>BOND
     1    1    2 1   
     2    2    3 ar  
     3    2    8 ar  
     4    3    4 ar  
     5    3   24 1   
     6    4    5 1   
     7    4    6 ar  
     8    6    7 ar  
     9    6   25 1   
    10    7    8 ar  
    11    7   26 1   
    12    8    9 1   
    13    9   10 ar  
    14    9   16 ar  
    15   10   11 ar  
    16   11   12 1   
    17   11   13 ar  
    18   12   27 1   
    19   12   28 1   
    20   13   14 ar  
    21   14   15 1   
    22   14   16 ar  
    23   15   18 1   
    24   16   17 1   
    25   17   18 2   
    26   17   29 1   
    27   18   19 1   
    28   19   20 2   
    29   19   21 1   
    30   21   22 1   
    31   21   30 1   
    32   22   23 1   
    33   22   31 1   
    34   22   32 1   
    35   23   33 1   
    36   23   34 1   
    37   23   35 1   
@<TRIPOS>SUBSTRUCTURE
     1 ZZ6         1 TEMP              0 ****  ****    0 ROOT
