@<TRIPOS>MOLECULE
ZZ6
   37    39     1     0     0
SMALL
bcc


@<TRIPOS>ATOM
      1 CL2        -0.0470    0.0340    0.0060 cl        1 ZZ6     -0.047400
      2 C21         1.6470    0.0350    0.0470 ca        1 ZZ6      0.084400
      3 C20         2.2810    0.0660    1.2930 ca        1 ZZ6     -0.122000
      4 C19         3.6790    0.0430    1.3640 ca        1 ZZ6      0.073400
      5 CL1         4.4420    0.0960    2.8630 cl        1 ZZ6      0.005600
      6 C18         4.4460   -0.0230    0.1890 ca        1 ZZ6     -0.124000
      7 C17         3.8130   -0.0650   -1.0450 ca        1 ZZ6     -0.084000
      8 C11         2.4100   -0.0330   -1.1340 cp        1 ZZ6     -0.244500
      9 C2          1.7890   -0.0370   -2.4610 cp        1 ZZ6      0.667800
     10 N1          0.8840    0.9140   -2.7760 nb        1 ZZ6     -0.680000
     11 C4          0.3400    0.8640   -4.0470 ca        1 ZZ6      0.757900
     12 N10        -0.6560    1.9390   -4.3430 n4        1 ZZ6     -0.819300
     13 N3          0.5930   -0.0210   -5.0460 nb        1 ZZ6     -0.640000
     14 C5          1.5080   -0.9780   -4.7190 ca        1 ZZ6      0.441600
     15 S9          2.0370   -2.2260   -5.7100 ss        1 ZZ6      0.146100
     16 C6          2.1450   -1.0320   -3.4300 ca        1 ZZ6     -0.324400
     17 C7          3.0370   -2.1360   -3.3400 cc        1 ZZ6      0.056800
     18 C8          3.0590   -2.8680   -4.5260 cd        1 ZZ6     -0.282600
     19 C12         3.9150   -4.0330   -4.6310 c         1 ZZ6      0.595300
     20 O13         4.7810   -4.3830   -3.8400 o         1 ZZ6     -0.391100
     21 N14         3.7190   -4.9430   -5.8230 n4        1 ZZ6     -0.677800
     22 C15         4.9020   -4.8930   -6.7510 c3        1 ZZ6      0.113800
     23 C16         4.7770   -5.8750   -7.8940 c3        1 ZZ6     -0.143100
     24 H20         1.6790    0.1130    2.2180 ha        1 ZZ6      0.193000
     25 H18         5.5480   -0.0310    0.2470 ha        1 ZZ6      0.180000
     26 H17         4.4190   -0.0940   -1.9640 ha        1 ZZ6      0.143000
     27 H101       -0.2010    2.8570   -4.2320 hn        1 ZZ6      0.492467
     28 H102       -1.4360    1.8670   -3.6730 hn        1 ZZ6      0.492467
     29 H7          3.6230   -2.3740   -2.4390 ha        1 ZZ6      0.218000
     30 H14         3.6240   -5.9110   -5.4800 hn        1 ZZ6      0.463300
     31 H151        5.8200   -5.1250   -6.1320 hx        1 ZZ6      0.115700
     32 H152        4.9840   -3.8390   -7.1420 hx        1 ZZ6      0.115700
     33 H161        4.7220   -6.9320   -7.5340 hc        1 ZZ6      0.090033
     34 H162        5.6960   -5.7780   -8.5310 hc        1 ZZ6      0.090033
     35 H163        3.8880   -5.6600   -8.5360 hc        1 ZZ6      0.090033
     36 H103       -1.0160    1.8460   -5.3040 hn        1 ZZ6      0.492467
     37 H142        2.8670   -4.7020   -6.3370 hn        1 ZZ6      0.463300
@<TRIPOS>BOND
     1    1    2 1   
     2    2    3 ar  
     3    2    8 ar  
     4    3    4 ar  
     5    3   24 1   
     6    4    5 1   
     7    4    6 ar  
     8    6    7 ar  
     9    6   25 1   
    10    7    8 ar  
    11    7   26 1   
    12    8    9 1   
    13    9   10 ar  
    14    9   16 ar  
    15   10   11 ar  
    16   11   12 1   
    17   11   13 ar  
    18   12   27 1   
    19   12   28 1   
    20   12   36 1   
    21   13   14 ar  
    22   14   15 1   
    23   14   16 ar  
    24   15   18 1   
    25   16   17 1   
    26   17   18 2   
    27   17   29 1   
    28   18   19 1   
    29   19   20 2   
    30   19   21 1   
    31   21   22 1   
    32   21   30 1   
    33   21   37 1   
    34   22   23 1   
    35   22   31 1   
    36   22   32 1   
    37   23   33 1   
    38   23   34 1   
    39   23   35 1   
@<TRIPOS>SUBSTRUCTURE
     1 ZZ6         1 TEMP              0 ****  ****    0 ROOT
