@<TRIPOS>MOLECULE
ZZ7
   46    48     1     0     0
SMALL
bcc


@<TRIPOS>ATOM
      1 O1          0.3700   -0.1250   -0.1440 o         1 ZZ7     -0.809800
      2 C2          1.4930    0.3990    0.1020 c         1 ZZ7      0.907600
      3 O2          2.3080    0.8510   -0.7350 o         1 ZZ7     -0.809800
      4 C12         1.9250    0.4690    1.6200 c3        1 ZZ7     -0.010500
      5 C6          1.6780    1.8730    2.2020 c3        1 ZZ7      0.181100
      6 C1          1.5520    2.9380    1.1480 c3        1 ZZ7     -0.096600
      7 C16         2.6940    2.2380    3.2520 c3        1 ZZ7     -0.096600
      8 S1          0.0270    1.7100    3.0500 ss        1 ZZ7     -0.572200
      9 N3          1.2490   -0.5430    2.4470 n7        1 ZZ7     -0.773200
     10 C13        -0.1080   -0.0810    2.6970 c3        1 ZZ7      0.283600
     11 C14        -0.7910   -0.8400    3.8520 c3        1 ZZ7      0.052500
     12 C15         0.0590   -0.9320    5.1160 c         1 ZZ7      0.741600
     13 O4          1.1080   -1.5000    5.3540 o         1 ZZ7     -0.496500
     14 N1         -2.0560   -0.1760    4.2780 ny        1 ZZ7     -0.873000
     15 C3         -1.8310    0.2940    5.8190 c3        1 ZZ7      0.724500
     16 O3         -2.7390   -0.1520    6.5870 o         1 ZZ7     -0.675500
     17 C4         -1.6030    1.8630    5.8010 c3        1 ZZ7      0.096800
     18 N2         -1.3260    2.2340    7.2310 nz        1 ZZ7     -0.821600
     19 C5         -2.7800    2.6050    5.2640 ca        1 ZZ7     -0.188300
     20 C7         -2.6100    3.4420    4.1530 ca        1 ZZ7     -0.105000
     21 C8         -3.7020    4.1420    3.6400 ca        1 ZZ7     -0.130000
     22 C9         -4.9590    4.0110    4.2320 ca        1 ZZ7     -0.093000
     23 C10        -5.1310    3.1650    5.3290 ca        1 ZZ7     -0.130000
     24 C11        -4.0480    2.4570    5.8430 ca        1 ZZ7     -0.105000
     25 OXT        -0.5410   -0.2750    6.1700 os        1 ZZ7     -0.494900
     26 H12         3.0270    0.2390    1.6710 h1        1 ZZ7      0.095700
     27 H3          1.2130   -1.4050    1.9220 hn        1 ZZ7      0.388800
     28 H11C        1.4620    3.9480    1.6140 hc        1 ZZ7      0.054033
     29 H12C        0.6640    2.7470    0.4960 hc        1 ZZ7      0.054033
     30 H13C        2.4590    2.9090    0.4880 hc        1 ZZ7      0.054033
     31 H161        3.6890    2.3930    2.7630 hc        1 ZZ7      0.054033
     32 H162        2.7960    1.4240    4.0090 hc        1 ZZ7      0.054033
     33 H163        2.4080    3.1840    3.7710 hc        1 ZZ7      0.054033
     34 H13        -0.7580   -0.1610    1.7710 h2        1 ZZ7      0.131700
     35 H14        -1.0100   -1.8930    3.5010 hx        1 ZZ7      0.128700
     36 H1         -2.8370   -0.8280    4.2750 hn        1 ZZ7      0.448300
     37 H4         -0.6610    2.0890    5.1890 hx        1 ZZ7      0.160700
     38 H21N       -2.1030    1.8850    7.8090 hn        1 ZZ7      0.460133
     39 H22N       -1.2400    3.2440    7.3260 hn        1 ZZ7      0.460133
     40 H7         -1.6210    3.5220    3.6620 ha        1 ZZ7      0.166500
     41 H11        -4.1920    1.7450    6.6740 ha        1 ZZ7      0.166500
     42 H8         -3.5680    4.7920    2.7620 ha        1 ZZ7      0.153000
     43 H9         -5.8180    4.5690    3.8270 ha        1 ZZ7      0.149000
     44 H10        -6.1270    3.0470    5.7840 ha        1 ZZ7      0.153000
     45 H121       -2.2670    0.6280    3.6890 hn        1 ZZ7      0.448300
     46 H23        -0.4620    1.7630    7.5230 hn        1 ZZ7      0.460133
@<TRIPOS>BOND
     1    1    2 1   
     2    2    3 1   
     3    2    4 1   
     4    4    5 1   
     5    4    9 1   
     6    4   26 1   
     7    5    6 1   
     8    5    7 1   
     9    5    8 1   
    10    6   28 1   
    11    6   29 1   
    12    6   30 1   
    13    7   31 1   
    14    7   32 1   
    15    7   33 1   
    16    8   10 1   
    17    9   10 1   
    18    9   27 1   
    19   10   11 1   
    20   10   34 1   
    21   11   12 1   
    22   11   14 1   
    23   11   35 1   
    24   12   13 2   
    25   12   25 1   
    26   14   15 1   
    27   14   36 1   
    28   14   45 1   
    29   15   16 1   
    30   15   17 1   
    31   15   25 1   
    32   17   18 1   
    33   17   19 1   
    34   17   37 1   
    35   18   38 1   
    36   18   39 1   
    37   18   46 1   
    38   19   20 ar  
    39   19   24 ar  
    40   20   21 ar  
    41   20   40 1   
    42   21   22 ar  
    43   21   42 1   
    44   22   23 ar  
    45   22   43 1   
    46   23   24 ar  
    47   23   44 1   
    48   24   41 1   
@<TRIPOS>SUBSTRUCTURE
     1 ZZ7         1 TEMP              0 ****  ****    0 ROOT
