@<TRIPOS>MOLECULE
ZZ7
   46    48     1     0     0
SMALL
bcc


@<TRIPOS>ATOM
      1 O1          0.3560    0.0080   -0.2050 o         1 ZZ7     -0.809800
      2 C2          1.4980    0.4660    0.0810 c         1 ZZ7      0.907600
      3 O2          2.3460    0.9170   -0.7220 o         1 ZZ7     -0.809800
      4 C12         1.9070    0.4450    1.6070 c3        1 ZZ7     -0.010500
      5 C6          1.7160    1.8310    2.2500 c3        1 ZZ7      0.181100
      6 C1          1.6570    2.9480    1.2470 c3        1 ZZ7     -0.096600
      7 C16         2.7310    2.0990    3.3310 c3        1 ZZ7     -0.096600
      8 S1          0.0450    1.7060    3.0660 ss        1 ZZ7     -0.572200
      9 N3          1.1710   -0.5710    2.3760 n3        1 ZZ7     -0.773200
     10 C13        -0.1670   -0.0570    2.6280 c3        1 ZZ7      0.283600
     11 C14        -0.9040   -0.8360    3.7360 c3        1 ZZ7      0.052500
     12 C15        -0.0800   -1.0280    5.0050 c         1 ZZ7      0.741600
     13 O4          0.9380   -1.6550    5.2310 o         1 ZZ7     -0.496500
     14 N1         -2.1430   -0.1340    4.1740 n4        1 ZZ7     -0.873000
     15 C3         -1.9220    0.2530    5.7390 c3        1 ZZ7      0.724500
     16 O3         -2.8620   -0.1850    6.4720 o         1 ZZ7     -0.675500
     17 C4         -1.6200    1.8080    5.7980 c3        1 ZZ7      0.096800
     18 N2         -1.3500    2.0980    7.2480 n4        1 ZZ7     -0.821600
     19 C5         -2.7520    2.6300    5.2810 ca        1 ZZ7     -0.188300
     20 C7         -2.5250    3.5090    4.2140 ca        1 ZZ7     -0.105000
     21 C8         -3.5750    4.2830    3.7190 ca        1 ZZ7     -0.130000
     22 C9         -4.8460    4.1850    4.2860 ca        1 ZZ7     -0.093000
     23 C10        -5.0760    3.2970    5.3390 ca        1 ZZ7     -0.130000
     24 C11        -4.0350    2.5140    5.8340 ca        1 ZZ7     -0.105000
     25 OXT        -0.6650   -0.3930    6.0810 os        1 ZZ7     -0.494900
     26 H12         2.9960    0.1620    1.6630 h1        1 ZZ7      0.095700
     27 H3          1.1040   -1.4040    1.8100 hn        1 ZZ7      0.388800
     28 H11C        2.5730    2.9080    0.5990 hc        1 ZZ7      0.054033
     29 H12C        0.7720    2.8290    0.5730 hc        1 ZZ7      0.054033
     30 H13C        1.6060    3.9390    1.7580 hc        1 ZZ7      0.054033
     31 H161        2.4800    3.0320    3.8900 hc        1 ZZ7      0.054033
     32 H162        2.7820    1.2460    4.0510 hc        1 ZZ7      0.054033
     33 H163        3.7400    2.2290    2.8650 hc        1 ZZ7      0.054033
     34 H13        -0.8040   -0.0640    1.6900 h2        1 ZZ7      0.131700
     35 H14        -1.1660   -1.8600    3.3310 hx        1 ZZ7      0.128700
     36 H1         -2.3060    0.7070    3.6210 hn        1 ZZ7      0.448300
     37 H4         -0.6580    2.0180    5.2120 hx        1 ZZ7      0.160700
     38 H21N       -1.2180    3.0980    7.3920 hn        1 ZZ7      0.460133
     39 H22N       -2.1510    1.7610    7.7980 hn        1 ZZ7      0.460133
     40 H7         -1.5260    3.5650    3.7410 ha        1 ZZ7      0.166500
     41 H11        -4.2260    1.7720    6.6280 ha        1 ZZ7      0.166500
     42 H8         -3.3960    4.9660    2.8750 ha        1 ZZ7      0.153000
     43 H9         -5.6710    4.8010    3.8960 ha        1 ZZ7      0.149000
     44 H10        -6.0830    3.2050    5.7740 ha        1 ZZ7      0.153000
     45 H121       -2.9540   -0.7470    4.1300 hn        1 ZZ7      0.448300
     46 H23        -0.5130    1.5740    7.5300 hn        1 ZZ7      0.460133
@<TRIPOS>BOND
     1    1    2 1   
     2    2    3 1   
     3    2    4 1   
     4    4    5 1   
     5    4    9 1   
     6    4   26 1   
     7    5    6 1   
     8    5    7 1   
     9    5    8 1   
    10    6   28 1   
    11    6   29 1   
    12    6   30 1   
    13    7   31 1   
    14    7   32 1   
    15    7   33 1   
    16    8   10 1   
    17    9   10 1   
    18    9   27 1   
    19   10   11 1   
    20   10   34 1   
    21   11   12 1   
    22   11   14 1   
    23   11   35 1   
    24   12   13 2   
    25   12   25 1   
    26   14   15 1   
    27   14   36 1   
    28   14   45 1   
    29   15   16 1   
    30   15   17 1   
    31   15   25 1   
    32   17   18 1   
    33   17   19 1   
    34   17   37 1   
    35   18   38 1   
    36   18   39 1   
    37   18   46 1   
    38   19   20 ar  
    39   19   24 ar  
    40   20   21 ar  
    41   20   40 1   
    42   21   22 ar  
    43   21   42 1   
    44   22   23 ar  
    45   22   43 1   
    46   23   24 ar  
    47   23   44 1   
    48   24   41 1   
@<TRIPOS>SUBSTRUCTURE
     1 ZZ7         1 TEMP              0 ****  ****    0 ROOT
