@<TRIPOS>MOLECULE
ZZ7
   44    45     1     0     0
SMALL
bcc


@<TRIPOS>ATOM
      1 O1          4.5540    1.5240   -2.2160 o         1 ZZ7     -0.852300
      2 C2          4.7090    0.7970   -1.1920 c         1 ZZ7      0.914600
      3 O2          5.8240    0.6160   -0.6260 o         1 ZZ7     -0.852300
      4 C12         3.4620    0.0770   -0.5730 c3        1 ZZ7      0.048500
      5 C6          2.9370    0.8820    0.6500 c3        1 ZZ7      0.102100
      6 C1          3.5520    2.2560    0.7520 c3        1 ZZ7     -0.089100
      7 C16         3.1450    0.0970    1.9230 c3        1 ZZ7     -0.089100
      8 S1          1.1520    1.1080    0.3980 ss        1 ZZ7     -0.534200
      9 N3          2.4270   -0.2010   -1.5620 n3        1 ZZ7     -0.770200
     10 C13         1.0870    0.0120   -1.0800 c3        1 ZZ7      0.342600
     11 C14         0.2710   -1.2830   -0.8190 c3        1 ZZ7     -0.031300
     12 C15         1.0470   -2.4600   -0.1140 c         1 ZZ7      0.930600
     13 O4          1.1390   -2.4560    1.1470 o         1 ZZ7     -0.832300
     14 N1         -0.9170   -0.9690   -0.0430 n         1 ZZ7     -0.484900
     15 C3         -2.1890   -1.1010   -0.4800 c         1 ZZ7      0.612100
     16 O3         -2.5270   -1.2860   -1.6780 o         1 ZZ7     -0.691100
     17 C4         -3.3260   -1.0000    0.5870 c3        1 ZZ7      0.120800
     18 N2         -4.4160   -1.9270    0.3140 n3        1 ZZ7     -0.885800
     19 C5         -3.8100    0.4270    0.6360 ca        1 ZZ7     -0.052300
     20 C7         -3.8680    1.1070    1.8560 ca        1 ZZ7     -0.110000
     21 C8         -4.3270    2.4230    1.9020 ca        1 ZZ7     -0.140000
     22 C9         -4.7340    3.0640    0.7330 ca        1 ZZ7     -0.142000
     23 C10        -4.6740    2.3890   -0.4870 ca        1 ZZ7     -0.140000
     24 C11        -4.2130    1.0750   -0.5370 ca        1 ZZ7     -0.110000
     25 OXT         1.4350   -3.3970   -0.8580 o         1 ZZ7     -0.832300
     26 H12         3.8120   -0.9310   -0.2000 h1        1 ZZ7      0.087700
     27 H3          2.5930    0.3790   -2.3720 hn        1 ZZ7      0.376800
     28 H11C        3.4290    2.8090   -0.2110 hc        1 ZZ7      0.041367
     29 H12C        3.0750    2.8400    1.5760 hc        1 ZZ7      0.041367
     30 H13C        4.6480    2.1600    0.9590 hc        1 ZZ7      0.041367
     31 H161        4.2340   -0.1160    2.0610 hc        1 ZZ7      0.041367
     32 H162        2.7800    0.6760    2.8050 hc        1 ZZ7      0.041367
     33 H163        2.5860   -0.8760    1.8670 hc        1 ZZ7      0.041367
     34 H13         0.4940    0.6130   -1.8290 h2        1 ZZ7      0.033700
     35 H14        -0.0470   -1.6700   -1.8320 h1        1 ZZ7      0.075700
     36 H1         -0.7290   -0.8730    0.9350 hn        1 ZZ7      0.338500
     37 H4         -2.9150   -1.2830    1.6030 h1        1 ZZ7      0.074700
     38 H21N       -4.8240   -1.6990   -0.5760 hn        1 ZZ7      0.348300
     39 H22N       -4.0340   -2.8530    0.2430 hn        1 ZZ7      0.348300
     40 H7         -3.5390    0.6070    2.7800 ha        1 ZZ7      0.146500
     41 H11        -4.1290    0.5420   -1.5000 ha        1 ZZ7      0.146500
     42 H8         -4.3590    2.9570    2.8610 ha        1 ZZ7      0.116500
     43 H9         -5.0900    4.1030    0.7700 ha        1 ZZ7      0.111000
     44 H10        -4.9770    2.8980   -1.4130 ha        1 ZZ7      0.116500
@<TRIPOS>BOND
     1    1    2 1   
     2    2    3 1   
     3    2    4 1   
     4    4    5 1   
     5    4    9 1   
     6    4   26 1   
     7    5    6 1   
     8    5    7 1   
     9    5    8 1   
    10    6   28 1   
    11    6   29 1   
    12    6   30 1   
    13    7   31 1   
    14    7   32 1   
    15    7   33 1   
    16    8   10 1   
    17    9   10 1   
    18    9   27 1   
    19   10   11 1   
    20   10   34 1   
    21   11   12 1   
    22   11   14 1   
    23   11   35 1   
    24   12   13 1   
    25   12   25 1   
    26   14   15 1   
    27   14   36 1   
    28   15   16 2   
    29   15   17 1   
    30   17   18 1   
    31   17   19 1   
    32   17   37 1   
    33   18   38 1   
    34   18   39 1   
    35   19   20 ar  
    36   19   24 ar  
    37   20   21 ar  
    38   20   40 1   
    39   21   22 ar  
    40   21   42 1   
    41   22   23 ar  
    42   22   43 1   
    43   23   24 ar  
    44   23   44 1   
    45   24   41 1   
@<TRIPOS>SUBSTRUCTURE
     1 ZZ7         1 TEMP              0 ****  ****    0 ROOT
