@<TRIPOS>MOLECULE
ZZ7
   44    42     1     0     0
SMALL
bcc


@<TRIPOS>ATOM
      1 O1          1.5470   -1.2240   -6.0370 o         1 ZZ7     -0.579000
      2 C2          1.1110   -1.0730   -4.8390 c1        1 ZZ7      0.335000
      3 O2          0.0760   -0.4760   -4.6420 os        1 ZZ7     -0.597000
      4 C12         1.8150   -1.5740   -3.8000 c3        1 ZZ7     -0.103000
      5 C6          2.7840   -0.3800   -3.1340 c3        1 ZZ7     -0.077000
      6 C1          2.8980    0.8080   -4.0940 c3        1 ZZ7     -0.204000
      7 C16         4.1320   -0.9410   -2.8490 c3        1 ZZ7     -0.204000
      8 S1          2.0550    0.0830   -1.7340 ss        1 ZZ7     -0.178000
      9 N3          0.9330   -1.8750   -2.7180 n3        1 ZZ7     -0.248000
     10 C13         0.7920   -0.4990   -1.7830 c3        1 ZZ7     -0.031000
     11 C14         0.3180   -0.8850   -0.3160 c3        1 ZZ7     -0.074000
     12 C15         1.4770   -1.3950    0.4650 c2        1 ZZ7      0.335000
     13 O4          1.5370   -2.6390    0.7820 o         1 ZZ7     -0.574500
     14 N1         -0.2170    0.2520    0.3190 n         1 ZZ7     -0.295000
     15 C3         -1.0010    0.1050    1.5240 c2        1 ZZ7      0.258000
     16 O3         -1.3800   -0.9540    1.8480 o         1 ZZ7     -0.392000
     17 C4         -1.2900    1.3280    2.4130 c3        1 ZZ7     -0.031000
     18 N2         -0.2000    1.5290    3.3150 n3        1 ZZ7     -0.341000
     19 C5         -2.5760    1.0930    3.2090 c2        1 ZZ7     -0.032000
     20 C7         -2.6640   -0.0060    4.0950 c2        1 ZZ7     -0.087000
     21 C8         -3.7580   -0.1370    4.9320 c1        1 ZZ7     -0.144000
     22 C9         -4.7660    0.8050    4.9020 c1        1 ZZ7     -0.150500
     23 C10        -4.6820    1.9030    4.0200 c1        1 ZZ7     -0.150500
     24 C11        -3.5820    2.0340    3.1790 c1        1 ZZ7     -0.123000
     25 OXT         2.4160   -0.6060    0.8000 o         1 ZZ7     -0.574500
     26 H12         2.2760   -2.3380   -4.2350 h1        1 ZZ7      0.147000
     27 H3          0.1340   -2.0980   -3.0410 hn        1 ZZ7      0.166000
     28 H11C        2.0450    1.2220   -4.1890 hc        1 ZZ7      0.079500
     29 H12C        3.5280    1.4530   -3.7410 hc        1 ZZ7      0.079500
     30 H13C        3.2230    0.4800   -5.0070 hc        1 ZZ7      0.079500
     31 H161        4.0390   -1.7370   -2.2520 hc        1 ZZ7      0.079500
     32 H162        4.7040   -0.2380   -2.3910 hc        1 ZZ7      0.079500
     33 H163        4.5770   -1.2270   -3.7320 hc        1 ZZ7      0.079500
     34 H13         0.1300    0.1350   -2.2040 h2        1 ZZ7      0.078000
     35 H14        -0.3270   -1.5390   -0.3660 h1        1 ZZ7      0.122000
     36 H1         -0.0460    1.0560    0.0010 hn        1 ZZ7      0.205000
     37 H4         -1.4030    2.1700    1.8150 h1        1 ZZ7      0.099000
     38 H21N       -0.4660    2.1410    4.0110 hn        1 ZZ7      0.174500
     39 H22N        0.0490    0.6970    3.7030 hn        1 ZZ7      0.174500
     40 H7         -1.9690   -0.6570    4.1160 ha        1 ZZ7      0.161000
     41 H11        -3.5220    2.7800    2.5810 ha        1 ZZ7      0.126000
     42 H8         -3.8280   -0.9120    5.5270 ha        1 ZZ7      0.116000
     43 H9         -5.5400    0.7120    5.4940 ha        1 ZZ7      0.108000
     44 H10        -5.3780    2.6250    4.0520 ha        1 ZZ7      0.108000
@<TRIPOS>BOND
     1    1    2 1   
     2    2    4 1   
     3    4    5 1   
     4    4    9 1   
     5    4   26 1   
     6    5    6 1   
     7    5    7 1   
     8    5    8 1   
     9    6   28 1   
    10    6   29 1   
    11    6   30 1   
    12    7   31 1   
    13    7   32 1   
    14    7   33 1   
    15    8   10 1   
    16    9   10 1   
    17    9   27 1   
    18   10   11 1   
    19   10   34 1   
    20   11   12 1   
    21   11   14 1   
    22   11   35 1   
    23   12   13 1   
    24   12   25 1   
    25   14   15 1   
    26   14   36 1   
    27   15   16 1   
    28   15   17 1   
    29   17   18 1   
    30   17   19 1   
    31   17   37 1   
    32   18   38 1   
    33   18   39 1   
    34   19   20 1   
    35   19   24 1   
    36   20   21 1   
    37   20   40 1   
    38   21   42 1   
    39   22   23 1   
    40   22   43 1   
    41   23   44 1   
    42   24   41 1   
@<TRIPOS>SUBSTRUCTURE
     1 ZZ7         1 TEMP              0 ****  ****    0 ROOT
