@<TRIPOS>MOLECULE
ZZ8
   21    21     1     0     0
SMALL
bcc


@<TRIPOS>ATOM
      1 O21        -0.0330   -0.4930    0.3830 o         1 ZZ8     -0.653100
      2 C8          1.1510   -0.1550    0.1510 c         1 ZZ8      0.655100
      3 C11         2.0950    0.0890    1.3140 c3        1 ZZ8     -0.174100
      4 N7          1.6940    0.0160   -1.0990 ns        1 ZZ8     -0.457100
      5 C6          1.0630   -0.1090   -2.3470 ca        1 ZZ8      0.085600
      6 C1         -0.2370   -0.6470   -2.4770 ca        1 ZZ8     -0.190000
      7 C2         -0.8270   -0.7770   -3.7290 ca        1 ZZ8     -0.131000
      8 C3         -0.1480   -0.3750   -4.8750 ca        1 ZZ8     -0.188000
      9 C4          1.1310    0.1630   -4.7570 ca        1 ZZ8     -0.089000
     10 C5          1.7590    0.3060   -3.5180 ca        1 ZZ8     -0.167600
     11 C10         3.1550    0.9120   -3.5300 c         1 ZZ8      0.912200
     12 O12         3.9200    0.7740   -2.5250 o         1 ZZ8     -0.833300
     13 O13         3.5130    1.5310   -4.5710 o         1 ZZ8     -0.833300
     14 H111        2.4700    1.1410    1.2960 hc        1 ZZ8      0.056367
     15 H112        2.9670   -0.6050    1.2610 hc        1 ZZ8      0.056367
     16 H113        1.5430   -0.0870    2.2670 hc        1 ZZ8      0.056367
     17 H7          2.6640    0.3080   -1.1510 hn        1 ZZ8      0.378500
     18 H1         -0.7970   -0.9680   -1.5850 ha        1 ZZ8      0.153000
     19 H2         -1.8390   -1.2000   -3.8060 ha        1 ZZ8      0.105000
     20 H3         -0.6160   -0.4770   -5.8630 ha        1 ZZ8      0.106000
     21 H4          1.6820    0.5050   -5.6500 ha        1 ZZ8      0.154000
@<TRIPOS>BOND
     1    1    2 2   
     2    2    3 1   
     3    2    4 1   
     4    3   14 1   
     5    3   15 1   
     6    3   16 1   
     7    4    5 1   
     8    4   17 1   
     9    5    6 ar  
    10    5   10 ar  
    11    6    7 ar  
    12    6   18 1   
    13    7    8 ar  
    14    7   19 1   
    15    8    9 ar  
    16    8   20 1   
    17    9   10 ar  
    18    9   21 1   
    19   10   11 1   
    20   11   12 1   
    21   11   13 1   
@<TRIPOS>SUBSTRUCTURE
     1 ZZ8         1 TEMP              0 ****  ****    0 ROOT
