@<TRIPOS>MOLECULE
ZZ8
   21    21     1     0     0
SMALL
bcc


@<TRIPOS>ATOM
      1 O21         3.1110   -0.9730    0.1390 o         1 ZZ8     -0.653100
      2 C8          2.6100    0.1620   -0.0330 c         1 ZZ8      0.655100
      3 C11         3.5220    1.3730   -0.1140 c3        1 ZZ8     -0.174100
      4 N7          1.2680    0.4210   -0.1640 n         1 ZZ8     -0.457100
      5 C6          0.1960   -0.4830   -0.1030 ca        1 ZZ8      0.085600
      6 C1          0.3980   -1.8810   -0.0880 ca        1 ZZ8     -0.190000
      7 C2         -0.6860   -2.7530   -0.0470 ca        1 ZZ8     -0.131000
      8 C3         -1.9870   -2.2610   -0.0170 ca        1 ZZ8     -0.188000
      9 C4         -2.1960   -0.8840   -0.0250 ca        1 ZZ8     -0.089000
     10 C5         -1.1350    0.0230   -0.0690 ca        1 ZZ8     -0.167600
     11 C10        -1.5030    1.5000   -0.0690 c         1 ZZ8      0.912200
     12 O12        -0.6540    2.3700   -0.4370 o         1 ZZ8     -0.833300
     13 O13        -2.6720    1.8090    0.2930 o         1 ZZ8     -0.833300
     14 H111        4.5790    1.0340   -0.0020 hc        1 ZZ8      0.056367
     15 H112        3.4020    1.8850   -1.0990 hc        1 ZZ8      0.056367
     16 H113        3.2800    2.0970    0.7010 hc        1 ZZ8      0.056367
     17 H7          0.9880    1.3890   -0.2840 hn        1 ZZ8      0.378500
     18 H1          1.4170   -2.2960   -0.1060 ha        1 ZZ8      0.153000
     19 H2         -0.5040   -3.8370   -0.0380 ha        1 ZZ8      0.105000
     20 H3         -2.8410   -2.9500    0.0170 ha        1 ZZ8      0.106000
     21 H4         -3.2190   -0.4700    0.0160 ha        1 ZZ8      0.154000
@<TRIPOS>BOND
     1    1    2 2   
     2    2    3 1   
     3    2    4 1   
     4    3   14 1   
     5    3   15 1   
     6    3   16 1   
     7    4    5 1   
     8    4   17 1   
     9    5    6 ar  
    10    5   10 ar  
    11    6    7 ar  
    12    6   18 1   
    13    7    8 ar  
    14    7   19 1   
    15    8    9 ar  
    16    8   20 1   
    17    9   10 ar  
    18    9   21 1   
    19   10   11 1   
    20   11   12 1   
    21   11   13 1   
@<TRIPOS>SUBSTRUCTURE
     1 ZZ8         1 TEMP              0 ****  ****    0 ROOT
