@<TRIPOS>MOLECULE
ZZ8
   22    22     1     0     0
SMALL
bcc


@<TRIPOS>ATOM
      1 O21         0.0240   -0.7600    0.3730 o         1 ZZ8     -0.578100
      2 C8          1.2070   -0.4320    0.1800 c         1 ZZ8      0.669100
      3 C11         2.1960   -0.3480    1.3190 c3        1 ZZ8     -0.179100
      4 N7          1.7070   -0.1060   -1.0810 n         1 ZZ8     -0.488100
      5 C6          1.0340   -0.1670   -2.3080 ca        1 ZZ8      0.111600
      6 C1         -0.2500   -0.7430   -2.4530 ca        1 ZZ8     -0.165000
      7 C2         -0.8580   -0.8020   -3.7020 ca        1 ZZ8     -0.076000
      8 C3         -0.2170   -0.3090   -4.8390 ca        1 ZZ8     -0.166000
      9 C4          1.0460    0.2600   -4.7180 ca        1 ZZ8     -0.052000
     10 C5          1.6670    0.3540   -3.4700 ca        1 ZZ8     -0.239600
     11 C10         3.0000    0.9790   -3.4020 c         1 ZZ8      0.637700
     12 O12         4.0150    0.6680   -4.0220 o         1 ZZ8     -0.474000
     13 O13         3.1920    2.0330   -2.5450 oh        1 ZZ8     -0.596100
     14 H111        3.0340   -1.0710    1.1620 hc        1 ZZ8      0.074033
     15 H112        1.6660   -0.6060    2.2680 hc        1 ZZ8      0.074033
     16 H113        2.6140    0.6840    1.4050 hc        1 ZZ8      0.074033
     17 H7          2.6720    0.1450   -1.1240 hn        1 ZZ8      0.326500
     18 H1         -0.7800   -1.1510   -1.5770 ha        1 ZZ8      0.180000
     19 H2         -1.8590   -1.2530   -3.7890 ha        1 ZZ8      0.142000
     20 H3         -0.7030   -0.3730   -5.8230 ha        1 ZZ8      0.143000
     21 H4          1.5740    0.6410   -5.6070 ha        1 ZZ8      0.150000
     22 H72         2.3380    2.3510   -2.2170 ho        1 ZZ8      0.433000
@<TRIPOS>BOND
     1    1    2 2   
     2    2    3 1   
     3    2    4 1   
     4    3   14 1   
     5    3   15 1   
     6    3   16 1   
     7    4    5 1   
     8    4   17 1   
     9    5    6 ar  
    10    5   10 ar  
    11    6    7 ar  
    12    6   18 1   
    13    7    8 ar  
    14    7   19 1   
    15    8    9 ar  
    16    8   20 1   
    17    9   10 ar  
    18    9   21 1   
    19   10   11 1   
    20   11   12 2   
    21   11   13 1   
    22   13   22 1   
@<TRIPOS>SUBSTRUCTURE
     1 ZZ8         1 TEMP              0 ****  ****    0 ROOT
