@<TRIPOS>MOLECULE
ZZ9
   70    72     1     0     0
SMALL
bcc


@<TRIPOS>ATOM
      1 CAA         1.4030    0.1390    0.0870 c3        1 ZZ9     -0.091100
      2 CAJ         2.8860    0.3170    0.2870 c3        1 ZZ9     -0.080400
      3 CAK         3.2740    0.1570    1.7420 c3        1 ZZ9     -0.079400
      4 CAL         4.7640    0.3370    1.9380 c3        1 ZZ9     -0.079400
      5 CAM         5.1520    0.1770    3.3920 c3        1 ZZ9     -0.079400
      6 CAN         6.6420    0.3570    3.5880 c3        1 ZZ9     -0.079400
      7 CAO         7.0290    0.1980    5.0430 c3        1 ZZ9     -0.078400
      8 CAP         8.5190    0.3770    5.2400 c3        1 ZZ9     -0.077400
      9 CAQ         8.9050    0.2220    6.6950 c3        1 ZZ9     -0.076400
     10 CAR        10.3940    0.3900    6.8910 c3        1 ZZ9     -0.118400
     11 CAZ        10.7520    0.3100    8.3830 c3        1 ZZ9      0.380900
     12 OAC        10.2200    1.4230    9.0790 oh        1 ZZ9     -0.641800
     13 OAX        12.1250    0.4070    8.5600 os        1 ZZ9     -0.609200
     14 PBI        12.9510   -0.8830    9.1700 p5        1 ZZ9      1.449800
     15 OAG        11.9820   -1.9110    9.5750 o         1 ZZ9     -0.830500
     16 OAD        14.0730   -0.3330    9.9660 o         1 ZZ9     -0.830500
     17 O5'        13.6660   -1.3570    7.7540 os        1 ZZ9     -0.570200
     18 C5'        14.6780   -0.5350    7.2670 c3        1 ZZ9      0.187400
     19 C4'        16.0560   -1.2130    7.3590 c3        1 ZZ9      0.080100
     20 O4'        17.0830   -0.2180    7.1980 os        1 ZZ9     -0.427600
     21 C3'        16.3140   -1.9040    8.7070 c3        1 ZZ9      0.091100
     22 O3'        16.9850   -3.1390    8.5730 oh        1 ZZ9     -0.595800
     23 C2'        17.1680   -0.9000    9.5110 c3        1 ZZ9      0.076100
     24 O2'        18.3450   -1.5020   10.0230 oh        1 ZZ9     -0.610800
     25 C1'        17.6410    0.1590    8.4680 c3        1 ZZ9      0.250800
     26 N9         17.3000    1.5180    8.8160 na        1 ZZ9     -0.276000
     27 C8         16.1300    2.0070    9.4590 cc        1 ZZ9      0.440700
     28 N7         16.0910    3.3450    9.5440 nd        1 ZZ9     -0.577100
     29 C5         17.2640    3.7940    8.9160 ca        1 ZZ9     -0.210200
     30 C4         18.0370    2.6510    8.4360 ca        1 ZZ9      0.450800
     31 N3         19.2290    2.7760    7.7770 nb        1 ZZ9     -0.719000
     32 C2         19.6010    4.0650    7.6090 ca        1 ZZ9      0.657900
     33 N1         18.9830    5.2170    7.9920 nb        1 ZZ9     -0.797000
     34 C6         17.7990    5.0980    8.6780 ca        1 ZZ9      0.717200
     35 N6         17.1570    6.2150    9.1900 nv        1 ZZ9     -0.938500
     36 HAA         1.1380    0.2600   -0.9910 hc        1 ZZ9      0.030033
     37 HAAA        1.0800   -0.8780    0.4170 hc        1 ZZ9      0.030033
     38 HAAB        0.8320    0.8950    0.6780 hc        1 ZZ9      0.030033
     39 HAJ         3.4420   -0.4350   -0.3320 hc        1 ZZ9      0.037700
     40 HAJA        3.1950    1.3340   -0.0720 hc        1 ZZ9      0.037700
     41 HAK         2.7200    0.9090    2.3630 hc        1 ZZ9      0.038700
     42 HAKA        2.9670   -0.8600    2.1030 hc        1 ZZ9      0.038700
     43 HAL         5.3190   -0.4150    1.3170 hc        1 ZZ9      0.038200
     44 HALA        5.0710    1.3540    1.5770 hc        1 ZZ9      0.038200
     45 HAM         4.5970    0.9290    4.0140 hc        1 ZZ9      0.038200
     46 HAMA        4.8450   -0.8400    3.7540 hc        1 ZZ9      0.038200
     47 HAN         7.1960   -0.3950    2.9680 hc        1 ZZ9      0.037700
     48 HANA        6.9480    1.3740    3.2270 hc        1 ZZ9      0.037700
     49 HAO         6.4750    0.9500    5.6650 hc        1 ZZ9      0.038700
     50 HAOA        6.7230   -0.8190    5.4050 hc        1 ZZ9      0.038700
     51 HAP         9.0740   -0.3770    4.6220 hc        1 ZZ9      0.035700
     52 HAPA        8.8270    1.3930    4.8750 hc        1 ZZ9      0.035700
     53 HAQ         8.3640    0.9840    7.3180 hc        1 ZZ9      0.045700
     54 HAQA        8.5900   -0.7900    7.0620 hc        1 ZZ9      0.045700
     55 HAR        10.9510   -0.4100    6.3390 hc        1 ZZ9      0.047700
     56 HARA       10.7300    1.3790    6.4880 hc        1 ZZ9      0.047700
     57 HAZ        10.3250   -0.6140    8.8730 h2        1 ZZ9      0.100700
     58 H5'        14.7040    0.4380    7.8330 h1        1 ZZ9      0.037700
     59 H5'A       14.4690   -0.3270    6.1800 h1        1 ZZ9      0.037700
     60 H4'        16.2010   -1.9250    6.5040 h1        1 ZZ9      0.075700
     61 H3'        15.3440   -2.1340    9.2340 h1        1 ZZ9      0.137700
     62 HO3'       17.8040   -2.9660    8.0900 ho        1 ZZ9      0.399000
     63 H2'        16.5580   -0.4620   10.3480 h1        1 ZZ9      0.115700
     64 HO2'       18.0710   -2.3380   10.4230 ho        1 ZZ9      0.420000
     65 H1'        18.7630    0.1130    8.3220 h2        1 ZZ9      0.112700
     66 H8         15.3520    1.3130    9.8540 h5        1 ZZ9      0.156800
     67 H2         20.5590    4.2150    7.0690 h5        1 ZZ9      0.037100
     68 HN6        17.3950    7.0990    8.8080 hn        1 ZZ9      0.421800
     69 HN6A       16.2050    6.0830    9.4430 hn        1 ZZ9      0.421800
     70 H35        10.8450    2.1520    8.9770 ho        1 ZZ9      0.412000
@<TRIPOS>BOND
     1    1    2 1   
     2    1   36 1   
     3    1   37 1   
     4    1   38 1   
     5    2    3 1   
     6    2   39 1   
     7    2   40 1   
     8    3    4 1   
     9    3   41 1   
    10    3   42 1   
    11    4    5 1   
    12    4   43 1   
    13    4   44 1   
    14    5    6 1   
    15    5   45 1   
    16    5   46 1   
    17    6    7 1   
    18    6   47 1   
    19    6   48 1   
    20    7    8 1   
    21    7   49 1   
    22    7   50 1   
    23    8    9 1   
    24    8   51 1   
    25    8   52 1   
    26    9   10 1   
    27    9   53 1   
    28    9   54 1   
    29   10   11 1   
    30   10   55 1   
    31   10   56 1   
    32   11   12 1   
    33   11   13 1   
    34   11   57 1   
    35   12   70 1   
    36   13   14 1   
    37   14   15 1   
    38   14   16 1   
    39   14   17 1   
    40   17   18 1   
    41   18   19 1   
    42   18   58 1   
    43   18   59 1   
    44   19   20 1   
    45   19   21 1   
    46   19   60 1   
    47   20   25 1   
    48   21   22 1   
    49   21   23 1   
    50   21   61 1   
    51   22   62 1   
    52   23   24 1   
    53   23   25 1   
    54   23   63 1   
    55   24   64 1   
    56   25   26 1   
    57   25   65 1   
    58   26   27 1   
    59   26   30 1   
    60   27   28 2   
    61   27   66 1   
    62   28   29 1   
    63   29   30 ar  
    64   29   34 ar  
    65   30   31 ar  
    66   31   32 ar  
    67   32   33 ar  
    68   32   67 1   
    69   33   34 ar  
    70   34   35 1   
    71   35   68 1   
    72   35   69 1   
@<TRIPOS>SUBSTRUCTURE
     1 ZZ9         1 TEMP              0 ****  ****    0 ROOT
