@<TRIPOS>MOLECULE
ZZ9
   71    73     1     0     0
SMALL
bcc


@<TRIPOS>ATOM
      1 CAA         1.2440    2.0390    3.1100 c3        1 ZZ9     -0.092100
      2 CAJ         2.4620    1.2650    2.6770 c3        1 ZZ9     -0.080400
      3 CAK         3.6370    1.5190    3.5980 c3        1 ZZ9     -0.079400
      4 CAL         4.8580    0.7390    3.1600 c3        1 ZZ9     -0.079400
      5 CAM         6.0320    0.9930    4.0810 c3        1 ZZ9     -0.078400
      6 CAN         7.2530    0.2140    3.6420 c3        1 ZZ9     -0.079400
      7 CAO         8.4270    0.4680    4.5640 c3        1 ZZ9     -0.079400
      8 CAP         9.6480   -0.3110    4.1240 c3        1 ZZ9     -0.076400
      9 CAQ        10.8200   -0.0570    5.0480 c3        1 ZZ9     -0.086400
     10 CAR        12.0420   -0.8240    4.5960 c3        1 ZZ9     -0.123400
     11 CAZ        13.2170   -0.6230    5.5580 c3        1 ZZ9      0.399900
     12 OAC        14.4340   -0.4660    4.8710 oh        1 ZZ9     -0.616800
     13 OAX        13.4100   -1.7810    6.3390 os        1 ZZ9     -0.602200
     14 PBI        13.2170   -1.7770    7.9210 p5        1 ZZ9      1.655500
     15 OAG        13.2650   -3.0650    8.5840 o         1 ZZ9     -0.782300
     16 OAD        11.9300   -0.8520    8.0910 oh        1 ZZ9     -0.770400
     17 O5'        14.2640   -0.6940    8.4810 os        1 ZZ9     -0.599200
     18 C5'        15.2490   -1.0850    9.4050 c3        1 ZZ9      0.161400
     19 C4'        16.6350   -1.1680    8.7500 c3        1 ZZ9      0.102100
     20 O4'        16.6330   -0.5700    7.4500 os        1 ZZ9     -0.405600
     21 C3'        17.7290   -0.4560    9.5760 c3        1 ZZ9      0.086100
     22 O3'        18.7480   -1.4090    9.8190 oh        1 ZZ9     -0.595800
     23 C2'        18.2560    0.6840    8.6690 c3        1 ZZ9      0.090100
     24 O2'        19.5430    0.3910    8.1770 oh        1 ZZ9     -0.585800
     25 C1'        17.2380    0.7330    7.4880 c3        1 ZZ9      0.219800
     26 N9         16.2500    1.7800    7.5480 na        1 ZZ9     -0.278000
     27 C8         15.3660    2.0700    6.4700 cc        1 ZZ9      0.431700
     28 N7         14.4120    2.9560    6.7760 nd        1 ZZ9     -0.559100
     29 C5         14.6160    3.2590    8.1320 ca        1 ZZ9     -0.231200
     30 C4         15.7500    2.4980    8.6500 ca        1 ZZ9      0.469800
     31 N3         16.1670    2.5740    9.9480 nb        1 ZZ9     -0.758000
     32 C2         15.4350    3.4380   10.6900 ca        1 ZZ9      0.685900
     33 N1         14.3770    4.2140   10.3410 nb        1 ZZ9     -0.790000
     34 C6         13.9330    4.1330    9.0400 ca        1 ZZ9      0.750200
     35 N6         12.8290    4.8370    8.6260 nh        1 ZZ9     -0.949500
     36 HAA         0.3900    1.8380    2.4180 hc        1 ZZ9      0.032700
     37 HAAA        0.9370    1.7470    4.1430 hc        1 ZZ9      0.032700
     38 HAAB        1.4510    3.1370    3.1040 hc        1 ZZ9      0.032700
     39 HAJ         2.7400    1.5540    1.6290 hc        1 ZZ9      0.038200
     40 HAJA        2.2270    0.1680    2.6660 hc        1 ZZ9      0.038200
     41 HAK         3.8740    2.6150    3.6100 hc        1 ZZ9      0.039200
     42 HAKA        3.3620    1.2290    4.6460 hc        1 ZZ9      0.039200
     43 HAL         5.1330    1.0290    2.1110 hc        1 ZZ9      0.039200
     44 HALA        4.6200   -0.3570    3.1480 hc        1 ZZ9      0.039200
     45 HAM         6.2700    2.0900    4.0930 hc        1 ZZ9      0.039700
     46 HAMA        5.7570    0.7030    5.1290 hc        1 ZZ9      0.039700
     47 HAN         7.5280    0.5040    2.5940 hc        1 ZZ9      0.039700
     48 HANA        7.0150   -0.8820    3.6300 hc        1 ZZ9      0.039700
     49 HAO         8.1530    0.1770    5.6120 hc        1 ZZ9      0.041200
     50 HAOA        8.6640    1.5650    4.5760 hc        1 ZZ9      0.041200
     51 HAP         9.4100   -1.4070    4.1110 hc        1 ZZ9      0.040700
     52 HAPA        9.9240   -0.0190    3.0770 hc        1 ZZ9      0.040700
     53 HAQ        11.0510    1.0410    5.0690 hc        1 ZZ9      0.052200
     54 HAQA       10.5480   -0.3590    6.0960 hc        1 ZZ9      0.052200
     55 HAR        11.8080   -1.9180    4.5190 hc        1 ZZ9      0.065700
     56 HARA       12.3590   -0.4700    3.5790 hc        1 ZZ9      0.065700
     57 HAZ        13.1070    0.2870    6.2150 h2        1 ZZ9      0.077700
     58 H5'        15.2450   -0.3010   10.2150 h1        1 ZZ9      0.070700
     59 H5'A       14.9780   -2.0880    9.8400 h1        1 ZZ9      0.070700
     60 H4'        16.9150   -2.2450    8.5700 h1        1 ZZ9      0.103700
     61 H3'        17.3390   -0.0480   10.5440 h1        1 ZZ9      0.080700
     62 HO3'       19.4890   -0.9320   10.2170 ho        1 ZZ9      0.421000
     63 H2'        18.3760    1.6590    9.2090 h1        1 ZZ9      0.130700
     64 HO2'       19.5260   -0.5090    7.8180 ho        1 ZZ9      0.419000
     65 H1'        17.7680    0.8270    6.4920 h2        1 ZZ9      0.108700
     66 H8         15.4840    1.5640    5.4980 h5        1 ZZ9      0.096800
     67 H2         15.7470    3.5330   11.7530 h5        1 ZZ9      0.051100
     68 HN6        12.6470    4.8820    7.6530 hn        1 ZZ9      0.442800
     69 HN6A       12.0540    0.0060    8.4930 ho        1 ZZ9      0.489000
     70 H35        14.6580   -1.3140    4.4650 ho        1 ZZ9      0.429000
     71 H63        12.4450    5.5370    9.2130 hn        1 ZZ9      0.442800
@<TRIPOS>BOND
     1    1    2 1   
     2    1   36 1   
     3    1   37 1   
     4    1   38 1   
     5    2    3 1   
     6    2   39 1   
     7    2   40 1   
     8    3    4 1   
     9    3   41 1   
    10    3   42 1   
    11    4    5 1   
    12    4   43 1   
    13    4   44 1   
    14    5    6 1   
    15    5   45 1   
    16    5   46 1   
    17    6    7 1   
    18    6   47 1   
    19    6   48 1   
    20    7    8 1   
    21    7   49 1   
    22    7   50 1   
    23    8    9 1   
    24    8   51 1   
    25    8   52 1   
    26    9   10 1   
    27    9   53 1   
    28    9   54 1   
    29   10   11 1   
    30   10   55 1   
    31   10   56 1   
    32   11   12 1   
    33   11   13 1   
    34   11   57 1   
    35   12   70 1   
    36   13   14 1   
    37   14   15 2   
    38   14   16 1   
    39   14   17 1   
    40   16   69 1   
    41   17   18 1   
    42   18   19 1   
    43   18   58 1   
    44   18   59 1   
    45   19   20 1   
    46   19   21 1   
    47   19   60 1   
    48   20   25 1   
    49   21   22 1   
    50   21   23 1   
    51   21   61 1   
    52   22   62 1   
    53   23   24 1   
    54   23   25 1   
    55   23   63 1   
    56   24   64 1   
    57   25   26 1   
    58   25   65 1   
    59   26   27 1   
    60   26   30 1   
    61   27   28 2   
    62   27   66 1   
    63   28   29 1   
    64   29   30 ar  
    65   29   34 ar  
    66   30   31 ar  
    67   31   32 ar  
    68   32   33 ar  
    69   32   67 1   
    70   33   34 ar  
    71   34   35 1   
    72   35   68 1   
    73   35   71 1   
@<TRIPOS>SUBSTRUCTURE
     1 ZZ9         1 TEMP              0 ****  ****    0 ROOT
