@<TRIPOS>MOLECULE
ZZ9
   70    72     1     0     0
SMALL
bcc


@<TRIPOS>ATOM
      1 CAA        13.6280   -1.8620   -1.1940 c3        1 ZZ9     -0.091100
      2 CAJ        12.1830   -1.9620   -1.6090 c3        1 ZZ9     -0.080400
      3 CAK        11.2660   -1.3110   -0.5960 c3        1 ZZ9     -0.079400
      4 CAL         9.8160   -1.4140   -1.0170 c3        1 ZZ9     -0.079400
      5 CAM         8.9000   -0.7630   -0.0030 c3        1 ZZ9     -0.079400
      6 CAN         7.4500   -0.8660   -0.4240 c3        1 ZZ9     -0.079400
      7 CAO         6.5340   -0.2150    0.5900 c3        1 ZZ9     -0.078400
      8 CAP         5.0830   -0.3170    0.1690 c3        1 ZZ9     -0.077400
      9 CAQ         4.1680    0.3300    1.1860 c3        1 ZZ9     -0.076400
     10 CAR         2.7210    0.2380    0.7610 c3        1 ZZ9     -0.118400
     11 CAZ         1.8040    0.8270    1.8450 c3        1 ZZ9      0.380900
     12 OAC         1.8390    0.0230    3.0110 oh        1 ZZ9     -0.641800
     13 OAX         0.4790    0.7940    1.4330 os        1 ZZ9     -0.609200
     14 PBI        -0.3240    2.2140    1.1910 p5        1 ZZ9      1.449800
     15 OAG         0.5370    3.3200    1.6300 o         1 ZZ9     -0.830500
     16 OAD        -1.7390    1.9690    1.5550 o         1 ZZ9     -0.830500
     17 O5'        -0.3270    2.1680   -0.4630 os        1 ZZ9     -0.570200
     18 C5'        -1.1630    1.2260   -1.0540 c3        1 ZZ9      0.187400
     19 C4'        -2.3460    1.8900   -1.7810 c3        1 ZZ9      0.080100
     20 O4'        -3.3520    0.8980   -2.0490 os        1 ZZ9     -0.427600
     21 C3'        -3.0230    3.0030   -0.9660 c3        1 ZZ9      0.091100
     22 O3'        -3.3950    4.1140   -1.7540 oh        1 ZZ9     -0.595800
     23 C2'        -4.2660    2.3360   -0.3390 c3        1 ZZ9      0.076100
     24 O2'        -5.4480    3.0730   -0.6010 oh        1 ZZ9     -0.610800
     25 C1'        -4.4250    0.9800   -1.0960 c3        1 ZZ9      0.250800
     26 N9         -4.4570   -0.1740   -0.2290 na        1 ZZ9     -0.276000
     27 C8         -3.7330   -0.4080    0.9720 cc        1 ZZ9      0.440700
     28 N7         -3.9260   -1.6350    1.4780 nd        1 ZZ9     -0.577100
     29 C5         -4.7960   -2.2760    0.5820 ca        1 ZZ9     -0.210200
     30 C4         -5.1330   -1.3710   -0.5150 ca        1 ZZ9      0.450800
     31 N3         -5.9610   -1.7200   -1.5460 nb        1 ZZ9     -0.719000
     32 C2         -6.4160   -2.9880   -1.4460 ca        1 ZZ9      0.657900
     33 N1         -6.1810   -3.9360   -0.4970 nb        1 ZZ9     -0.797000
     34 C6         -5.3730   -3.5840    0.5560 ca        1 ZZ9      0.717200
     35 N6         -5.1630   -4.4550    1.6150 nh        1 ZZ9     -0.938500
     36 HAA        13.9350   -0.7930   -1.0920 hc        1 ZZ9      0.030033
     37 HAAA       13.7910   -2.3680   -0.2110 hc        1 ZZ9      0.030033
     38 HAAB       14.2860   -2.3480   -1.9540 hc        1 ZZ9      0.030033
     39 HAJ        12.0430   -1.4710   -2.6080 hc        1 ZZ9      0.037700
     40 HAJA       11.8990   -3.0410   -1.7300 hc        1 ZZ9      0.037700
     41 HAK        11.4020   -1.8020    0.4040 hc        1 ZZ9      0.038700
     42 HAKA       11.5460   -0.2320   -0.4750 hc        1 ZZ9      0.038700
     43 HAL         9.6790   -0.9230   -2.0170 hc        1 ZZ9      0.038200
     44 HALA        9.5350   -2.4940   -1.1380 hc        1 ZZ9      0.038200
     45 HAM         9.0360   -1.2530    0.9970 hc        1 ZZ9      0.038200
     46 HAMA        9.1800    0.3170    0.1180 hc        1 ZZ9      0.038200
     47 HAN         7.3120   -0.3750   -1.4240 hc        1 ZZ9      0.037700
     48 HANA        7.1690   -1.9450   -0.5460 hc        1 ZZ9      0.037700
     49 HAO         6.6700   -0.7050    1.5890 hc        1 ZZ9      0.038700
     50 HAOA        6.8140    0.8650    0.7110 hc        1 ZZ9      0.038700
     51 HAP         4.9450    0.1780   -0.8290 hc        1 ZZ9      0.035700
     52 HAPA        4.8030   -1.3960    0.0440 hc        1 ZZ9      0.035700
     53 HAQ         4.2910   -0.1690    2.1840 hc        1 ZZ9      0.045700
     54 HAQA        4.4520    1.4080    1.3170 hc        1 ZZ9      0.045700
     55 HAR         2.5600    0.7980   -0.1950 hc        1 ZZ9      0.047200
     56 HARA        2.4350   -0.8300    0.5840 hc        1 ZZ9      0.047200
     57 HAZ         2.1270    1.8640    2.1560 h2        1 ZZ9      0.100700
     58 H5'        -0.5660    0.6570   -1.8200 h1        1 ZZ9      0.037700
     59 H5'A       -1.5580    0.5070   -0.2830 h1        1 ZZ9      0.037700
     60 H4'        -2.0260    2.2640   -2.7900 h1        1 ZZ9      0.075700
     61 H3'        -2.3270    3.4040   -0.1740 h1        1 ZZ9      0.137700
     62 HO3'       -3.9630    3.7830   -2.4620 ho        1 ZZ9      0.399000
     63 H2'        -4.1180    2.2150    0.7690 h1        1 ZZ9      0.115700
     64 HO2'       -5.2410    3.9980   -0.4050 ho        1 ZZ9      0.420000
     65 H1'        -5.3720    0.9700   -1.7160 h2        1 ZZ9      0.112700
     66 H8         -3.0890    0.3820    1.4230 h5        1 ZZ9      0.156800
     67 H2         -7.0840   -3.3180   -2.2700 h5        1 ZZ9      0.037100
     68 HN6        -4.3870   -4.2410    2.1980 hn        1 ZZ9      0.421800
     69 HN6A       -5.3520   -5.4170    1.4650 hn        1 ZZ9      0.421800
     70 H35         1.2100   -0.6980    2.8830 ho        1 ZZ9      0.412000
@<TRIPOS>BOND
     1    1    2 1   
     2    1   36 1   
     3    1   37 1   
     4    1   38 1   
     5    2    3 1   
     6    2   39 1   
     7    2   40 1   
     8    3    4 1   
     9    3   41 1   
    10    3   42 1   
    11    4    5 1   
    12    4   43 1   
    13    4   44 1   
    14    5    6 1   
    15    5   45 1   
    16    5   46 1   
    17    6    7 1   
    18    6   47 1   
    19    6   48 1   
    20    7    8 1   
    21    7   49 1   
    22    7   50 1   
    23    8    9 1   
    24    8   51 1   
    25    8   52 1   
    26    9   10 1   
    27    9   53 1   
    28    9   54 1   
    29   10   11 1   
    30   10   55 1   
    31   10   56 1   
    32   11   12 1   
    33   11   13 1   
    34   11   57 1   
    35   12   70 1   
    36   13   14 1   
    37   14   15 1   
    38   14   16 1   
    39   14   17 1   
    40   17   18 1   
    41   18   19 1   
    42   18   58 1   
    43   18   59 1   
    44   19   20 1   
    45   19   21 1   
    46   19   60 1   
    47   20   25 1   
    48   21   22 1   
    49   21   23 1   
    50   21   61 1   
    51   22   62 1   
    52   23   24 1   
    53   23   25 1   
    54   23   63 1   
    55   24   64 1   
    56   25   26 1   
    57   25   65 1   
    58   26   27 1   
    59   26   30 1   
    60   27   28 2   
    61   27   66 1   
    62   28   29 1   
    63   29   30 ar  
    64   29   34 ar  
    65   30   31 ar  
    66   31   32 ar  
    67   32   33 ar  
    68   32   67 1   
    69   33   34 ar  
    70   34   35 1   
    71   35   68 1   
    72   35   69 1   
@<TRIPOS>SUBSTRUCTURE
     1 ZZ9         1 TEMP              0 ****  ****    0 ROOT
