@<TRIPOS>MOLECULE
ZZA
   21    22     1     0     0
SMALL
bcc


@<TRIPOS>ATOM
      1 O1          4.7140   12.1690    4.8270 o         1 ZZA     -0.830300
      2 C2          4.2420   13.2970    4.5110 c         1 ZZA      0.934200
      3 O3          3.5660   14.0330    5.2860 o         1 ZZA     -0.830300
      4 C4          4.5010   13.7970    3.1190 cc        1 ZZA     -0.252900
      5 C5          5.2480   13.1120    2.0700 cc        1 ZZA      0.338200
      6 N6          5.2890   13.8480    0.9430 nd        1 ZZA     -0.559800
      7 N7          4.5960   14.9920    1.2000 na        1 ZZA      0.103300
      8 C8          4.0990   14.9920    2.5330 cd        1 ZZA     -0.128300
      9 C9          4.4130   16.0230    0.2600 ca        1 ZZA      0.079800
     10 C10         3.5300   17.0950    0.5330 ca        1 ZZA     -0.166000
     11 C11         3.3580   18.1160   -0.3940 ca        1 ZZA     -0.113500
     12 C12         4.0410   18.1030   -1.6080 ca        1 ZZA     -0.178000
     13 C13         4.9080   17.0490   -1.8910 ca        1 ZZA     -0.113500
     14 C14         5.1010   16.0180   -0.9790 ca        1 ZZA     -0.166000
     15 H5          5.7190   12.1330    2.1680 h4        1 ZZA      0.049100
     16 H8          3.5260   15.8160    2.9530 h4        1 ZZA      0.178000
     17 H10         2.9680   17.1320    1.4780 ha        1 ZZA      0.148500
     18 H14         5.7920   15.1990   -1.2300 ha        1 ZZA      0.148500
     19 H11         2.6690   18.9420   -0.1610 ha        1 ZZA      0.120000
     20 H12         3.8980   18.9140   -2.3350 ha        1 ZZA      0.118000
     21 H13         5.4500   17.0280   -2.8480 ha        1 ZZA      0.120000
@<TRIPOS>BOND
     1    1    2 1   
     2    2    3 1   
     3    2    4 1   
     4    4    5 1   
     5    4    8 2   
     6    5    6 2   
     7    5   15 1   
     8    6    7 1   
     9    7    8 1   
    10    7    9 1   
    11    8   16 1   
    12    9   10 ar  
    13    9   14 ar  
    14   10   11 ar  
    15   10   17 1   
    16   11   12 ar  
    17   11   19 1   
    18   12   13 ar  
    19   12   20 1   
    20   13   14 ar  
    21   13   21 1   
    22   14   18 1   
@<TRIPOS>SUBSTRUCTURE
     1 ZZA         1 TEMP              0 ****  ****    0 ROOT
