@<TRIPOS>MOLECULE
ZZA
   21    22     1     0     0
SMALL
bcc


@<TRIPOS>ATOM
      1 O1          0.0030    0.0120   -0.0850 o         1 ZZA     -0.830300
      2 C2          1.2520    0.1520    0.0370 c         1 ZZA      0.934200
      3 O3          1.8430    0.3800    1.1310 o         1 ZZA     -0.830300
      4 C4          2.0920    0.0410   -1.2020 cc        1 ZZA     -0.252900
      5 C5          1.6170   -0.2120   -2.5580 cc        1 ZZA      0.338200
      6 N6          2.6420   -0.2520   -3.4320 nd        1 ZZA     -0.559800
      7 N7          3.7760   -0.0320   -2.7110 na        1 ZZA      0.103300
      8 C8          3.4710    0.1500   -1.3340 cd        1 ZZA     -0.128300
      9 C9          5.0650    0.0010   -3.2750 ca        1 ZZA      0.079800
     10 C10         6.1760    0.4140   -2.5000 ca        1 ZZA     -0.166000
     11 C11         7.4500    0.4380   -3.0570 ca        1 ZZA     -0.113500
     12 C12         7.6590    0.0650   -4.3830 ca        1 ZZA     -0.178000
     13 C13         6.5710   -0.3370   -5.1560 ca        1 ZZA     -0.113500
     14 C14         5.2880   -0.3740   -4.6220 ca        1 ZZA     -0.166000
     15 H5          0.5740   -0.3540   -2.8460 h4        1 ZZA      0.049100
     16 H8          4.2310    0.3290   -0.5760 h4        1 ZZA      0.178000
     17 H10         6.0460    0.7230   -1.4520 ha        1 ZZA      0.148500
     18 H14         4.4490   -0.6960   -5.2580 ha        1 ZZA      0.148500
     19 H11         8.3000    0.7590   -2.4370 ha        1 ZZA      0.120000
     20 H12         8.6680    0.0880   -4.8130 ha        1 ZZA      0.118000
     21 H13         6.7250   -0.6320   -6.2050 ha        1 ZZA      0.120000
@<TRIPOS>BOND
     1    1    2 1   
     2    2    3 1   
     3    2    4 1   
     4    4    5 1   
     5    4    8 2   
     6    5    6 2   
     7    5   15 1   
     8    6    7 1   
     9    7    8 1   
    10    7    9 1   
    11    8   16 1   
    12    9   10 ar  
    13    9   14 ar  
    14   10   11 ar  
    15   10   17 1   
    16   11   12 ar  
    17   11   19 1   
    18   12   13 ar  
    19   12   20 1   
    20   13   14 ar  
    21   13   21 1   
    22   14   18 1   
@<TRIPOS>SUBSTRUCTURE
     1 ZZA         1 TEMP              0 ****  ****    0 ROOT
