@<TRIPOS>MOLECULE
ZZC
   56    56     1     0     0
SMALL
bcc


@<TRIPOS>ATOM
      1 N1          0.9760   -0.6080    0.2420 n2        1 ZZC     -0.314000
      2 C2          2.3100   -0.6280    0.3930 c1        1 ZZC     -0.097000
      3 N3          2.9340   -0.6890    1.6240 n7        1 ZZC     -0.182000
      4 C4          2.1680   -0.7140    2.7720 c2        1 ZZC     -0.006000
      5 C5          0.7110   -0.6880    2.6390 c2        1 ZZC     -0.259000
      6 C6          0.1470   -0.6320    1.3380 c2        1 ZZC      0.174000
      7 N6         -1.2490   -0.5460    1.1960 n8        1 ZZC     -0.327000
      8 N7          0.2130   -0.7810    3.9510 n7        1 ZZC     -0.220000
      9 C8          1.2570   -0.8940    4.8470 c1        1 ZZC     -0.063000
     10 N9          2.4660   -0.8830    4.1310 n3        1 ZZC      0.038000
     11 PA          1.7600    0.7430   10.5920 p5        1 ZZC      2.027000
     12 PB          3.0420   -1.3140   12.7360 p5        1 ZZC      2.081000
     13 C2'A        3.8700   -8.4450   10.8600 c2        1 ZZC      0.162000
     14 C3'A        3.0750   -5.4340   11.8110 c1        1 ZZC     -0.074000
     15 C4'A        3.6070   -4.3190   10.9580 c3        1 ZZC     -0.114000
     16 C5'A        4.4190   -3.3070   11.8020 c3        1 ZZC      0.038000
     17 O2'A        3.6750   -9.6230   11.1800 o         1 ZZC     -0.344000
     18 O4'A        4.4150   -4.8500    9.9170 oh        1 ZZC     -0.315000
     19 O5'A        4.0190   -1.9980   11.5680 os        1 ZZC     -0.761000
     20 C1'         3.7310   -0.9410    4.6580 c2        1 ZZC     -0.661000
     21 O1A         0.3300    0.9810   10.7170 o         1 ZZC     -0.801500
     22 O1B         2.1390   -2.4370   13.0640 o         1 ZZC     -0.864000
     23 C2'         4.0750   -0.3830    5.9730 c3        1 ZZC      0.136000
     24 O2'         5.1290    0.5820    5.8900 oh        1 ZZC     -0.360000
     25 O2A         2.8150    1.6250   10.0980 o         1 ZZC     -0.801500
     26 O2B         3.8340   -0.5670   13.7130 o         1 ZZC     -0.864000
     27 C3'         4.5630   -1.4720    6.9720 c3        1 ZZC     -0.014000
     28 O3'         5.0370   -2.6350    6.3300 oh        1 ZZC     -0.336000
     29 O3A         2.3360   -0.2810   11.6710 os        1 ZZC     -1.277000
     30 C4'         3.4700   -1.8900    7.9810 c3        1 ZZC     -0.049000
     31 O4'         2.3260   -2.4360    7.3760 oh        1 ZZC     -0.322000
     32 C5'         3.1670   -0.7830    8.9470 c2        1 ZZC      0.287000
     33 O5'         1.9780   -0.4890    9.2610 os        1 ZZC     -0.455000
     34 H2          3.9230   -0.6760    1.6930 hn        1 ZZC      0.245000
     35 HN6        -1.7480   -1.0660    1.8840 hn        1 ZZC      0.179500
     36 HN6A       -1.5840   -0.7040    0.2710 hn        1 ZZC      0.179500
     37 H8         -0.7340   -0.6770    4.1930 hn        1 ZZC      0.241000
     38 H1'A        4.0660   -7.2430    9.0940 hc        1 ZZC      0.100667
     39 H1'B        5.6220   -7.6820    9.9070 hc        1 ZZC      0.100667
     40 H1'C        4.7370   -8.9320    8.9300 hc        1 ZZC      0.100667
     41 H3'A        3.5030   -7.5850   11.4800 h4        1 ZZC      0.165000
     42 H4'A        5.0050   -5.4990   10.3210 ho        1 ZZC      0.188000
     43 H5'A        4.3020   -3.5560   12.8950 h1        1 ZZC      0.064500
     44 H5'B        2.7760   -3.7880   10.4060 h1        1 ZZC      0.148000
     45 H4'B        5.5030   -3.3950   11.5090 h1        1 ZZC      0.064500
     46 H1'         1.9950   -1.8000    6.7150 ho        1 ZZC      0.252000
     47 H2'         4.5160   -1.3540    4.0240 h4        1 ZZC      0.118000
     48 HO2'        5.6520    0.3670    5.1120 ho        1 ZZC      0.190000
     49 H3'         3.2220    0.1780    6.4540 h1        1 ZZC      0.097000
     50 HO3'        4.3520   -2.8970    5.6950 ho        1 ZZC      0.227000
     51 H4'         5.4510   -1.0790    7.5460 h1        1 ZZC      0.112000
     52 H5'         4.0090   -0.2390    9.4380 h4        1 ZZC      0.185000
     53 H5'C        3.8820   -2.7430    8.6190 h1        1 ZZC      0.178000
     54 O3'A        2.1390   -5.2390   12.6660 oh        1 ZZC     -0.171000
     55 H3'B        1.7950   -4.3120   12.7640 ho        1 ZZC      0.269000
     56 C1'A        4.6110   -8.0660    9.6220 c3        1 ZZC     -0.296000
@<TRIPOS>BOND
     1    1    2 1   
     2    1    6 1   
     3    2    3 1   
     4    3    4 1   
     5    3   34 1   
     6    4    5 1   
     7    4   10 1   
     8    5    6 1   
     9    5    8 1   
    10    6    7 1   
    11    7   35 1   
    12    7   36 1   
    13    8    9 1   
    14    8   37 1   
    15    9   10 1   
    16   10   20 1   
    17   11   21 1   
    18   11   25 1   
    19   11   29 1   
    20   11   33 1   
    21   12   19 1   
    22   12   22 1   
    23   12   26 1   
    24   12   29 1   
    25   13   17 1   
    26   13   41 1   
    27   13   56 1   
    28   14   15 1   
    29   14   54 1   
    30   15   16 1   
    31   15   18 1   
    32   15   44 1   
    33   16   19 1   
    34   16   43 1   
    35   16   45 1   
    36   18   42 1   
    37   20   23 1   
    38   20   47 1   
    39   23   24 1   
    40   23   27 1   
    41   23   49 1   
    42   24   48 1   
    43   27   28 1   
    44   27   30 1   
    45   27   51 1   
    46   28   50 1   
    47   30   31 1   
    48   30   32 1   
    49   30   53 1   
    50   31   46 1   
    51   32   33 1   
    52   32   52 1   
    53   38   56 1   
    54   39   56 1   
    55   40   56 1   
    56   54   55 1   
@<TRIPOS>SUBSTRUCTURE
     1 ZZC         1 TEMP              0 ****  ****    0 ROOT
