@<TRIPOS>MOLECULE
ZZC
   56    58     1     0     0
SMALL
bcc


@<TRIPOS>ATOM
      1 N1         -6.8170    2.9000   -0.4220 nb        1 ZZC     -0.800000
      2 C2         -6.9070    1.7940    0.3690 ca        1 ZZC      0.637900
      3 N3         -5.9980    0.8300    0.6300 nb        1 ZZC     -0.709000
      4 C4         -4.8070    1.0320   -0.0110 ca        1 ZZC      0.435800
      5 C5         -4.5670    2.1680   -0.9030 ca        1 ZZC     -0.197200
      6 C6         -5.6380    3.0920   -1.0940 ca        1 ZZC      0.688200
      7 N6         -5.4980    4.1390   -2.0080 nh        1 ZZC     -0.927500
      8 N7         -3.2580    2.1100   -1.4030 nc        1 ZZC     -0.598100
      9 C8         -2.7160    1.0080   -0.8590 cd        1 ZZC      0.464700
     10 N9         -3.6160    0.2880   -0.0290 na        1 ZZC     -0.264000
     11 PA          1.9500   -1.9370    1.4640 p5        1 ZZC      1.601800
     12 PB          1.3350   -0.7970   -1.5160 p5        1 ZZC      1.610800
     13 C2'A        6.2510    1.2250    1.1050 c         1 ZZC      0.582100
     14 C3'A        5.6800    1.2670   -0.3030 c3        1 ZZC      0.003100
     15 C4'A        4.1400    1.4560   -0.3210 c3        1 ZZC      0.127100
     16 C5'A        3.5440    0.5290   -1.3940 c3        1 ZZC      0.176400
     17 O2'A        6.7700    2.2430    1.5910 o         1 ZZC     -0.601100
     18 O4'A        3.5970    1.2890    0.9640 oh        1 ZZC     -0.623800
     19 O5'A        2.1580    0.6380   -1.4220 os        1 ZZC     -0.581200
     20 C1'        -3.3310   -0.8280    0.8490 c3        1 ZZC      0.220800
     21 O1A         1.4090   -3.3060    1.5180 o         1 ZZC     -0.870000
     22 O1B        -0.1190   -0.5010   -1.5100 o         1 ZZC     -0.883000
     23 C2'        -2.4800   -1.9720    0.2050 c3        1 ZZC      0.052100
     24 O2'        -3.3300   -3.0090   -0.2380 oh        1 ZZC     -0.597800
     25 O2A         3.3180   -1.5110    1.8300 o         1 ZZC     -0.870000
     26 O2B         2.0170   -1.5850   -2.5540 o         1 ZZC     -0.883000
     27 C3'        -1.6240   -2.4740    1.3910 c3        1 ZZC      0.100100
     28 O3'        -2.3210   -3.4450    2.1510 oh        1 ZZC     -0.599800
     29 O3A         1.6850   -1.3350   -0.0250 os        1 ZZC     -0.835800
     30 C4'        -1.4630   -1.2080    2.2500 c3        1 ZZC      0.108100
     31 O4'        -2.6260   -0.3840    2.0200 os        1 ZZC     -0.431600
     32 C5'        -0.1960   -0.4310    1.8470 c3        1 ZZC      0.173400
     33 O5'         0.9380   -1.0120    2.3930 os        1 ZZC     -0.594200
     34 H2         -7.8830    1.6740    0.8820 h5        1 ZZC      0.028100
     35 HN6        -6.0910    4.9240   -1.8680 hn        1 ZZC      0.406800
     36 HN6A       -4.5510    4.3640   -2.2230 hn        1 ZZC      0.406800
     37 H8         -1.6750    0.6370   -1.0460 h5        1 ZZC      0.180800
     38 H1'A        6.6380   -0.8820    1.1810 hc        1 ZZC      0.087033
     39 H1'B        6.7270   -0.0300    2.7890 hc        1 ZZC      0.087033
     40 H1'C        5.1100   -0.3610    2.0030 hc        1 ZZC      0.087033
     41 H3'A        5.9660    0.3230   -0.8480 h1        1 ZZC      0.085700
     42 H4'A        3.9160    2.5280   -0.5920 h1        1 ZZC      0.055700
     43 H5'A        3.9680    0.8560   -2.3870 h1        1 ZZC      0.029200
     44 H5'B        3.8480   -0.5380   -1.1970 h1        1 ZZC      0.029200
     45 H4'B        3.3340    0.3530    1.0800 ho        1 ZZC      0.463000
     46 H1'        -4.3230   -1.2370    1.2090 h2        1 ZZC      0.092700
     47 H2'        -1.8120   -1.5880   -0.6180 h1        1 ZZC      0.143700
     48 HO2'       -3.4850   -2.8490   -1.1760 ho        1 ZZC      0.400000
     49 H3'        -0.6120   -2.8690    1.0690 h1        1 ZZC      0.144700
     50 HO3'       -2.3440   -4.2370    1.6010 ho        1 ZZC      0.404000
     51 H4'        -1.4710   -1.4420    3.3450 h1        1 ZZC      0.085700
     52 H5'        -0.1230   -0.3750    0.7210 h1        1 ZZC      0.048700
     53 H5'C       -0.2860    0.6110    2.2650 h1        1 ZZC      0.048700
     54 O3'A        6.3050    2.3030   -1.0500 oh        1 ZZC     -0.612800
     55 H3'B        6.2330    3.1080   -0.5200 ho        1 ZZC      0.406000
     56 C1'A        6.1890   -0.0780    1.8130 c3        1 ZZC     -0.224100
@<TRIPOS>BOND
     1    1    2 ar  
     2    1    6 ar  
     3    2    3 ar  
     4    2   34 1   
     5    3    4 ar  
     6    4    5 ar  
     7    4   10 1   
     8    5    6 ar  
     9    5    8 1   
    10    6    7 1   
    11    7   35 1   
    12    7   36 1   
    13    8    9 2   
    14    9   10 1   
    15    9   37 1   
    16   10   20 1   
    17   11   21 1   
    18   11   25 1   
    19   11   29 1   
    20   11   33 1   
    21   12   19 1   
    22   12   22 1   
    23   12   26 1   
    24   12   29 1   
    25   13   14 1   
    26   13   17 2   
    27   13   56 1   
    28   14   15 1   
    29   14   41 1   
    30   14   54 1   
    31   15   16 1   
    32   15   18 1   
    33   15   42 1   
    34   16   19 1   
    35   16   43 1   
    36   16   44 1   
    37   18   45 1   
    38   20   23 1   
    39   20   31 1   
    40   20   46 1   
    41   23   24 1   
    42   23   27 1   
    43   23   47 1   
    44   24   48 1   
    45   27   28 1   
    46   27   30 1   
    47   27   49 1   
    48   28   50 1   
    49   30   31 1   
    50   30   32 1   
    51   30   51 1   
    52   32   33 1   
    53   32   52 1   
    54   32   53 1   
    55   38   56 1   
    56   39   56 1   
    57   40   56 1   
    58   54   55 1   
@<TRIPOS>SUBSTRUCTURE
     1 ZZC         1 TEMP              0 ****  ****    0 ROOT
