@<TRIPOS>MOLECULE
ZZD
   46    48     1     0     0
SMALL
bcc


@<TRIPOS>ATOM
      1 N           3.6430    1.0950    2.3560 n3        1 ZZD     -0.882800
      2 CA          3.0140    0.2160    1.3780 c3        1 ZZD      0.016500
      3 CB          1.9140    0.8990    0.5760 c3        1 ZZD      0.024700
      4 C           4.0180   -0.4630    0.3810 c         1 ZZD      0.889600
      5 O           5.2520   -0.2750    0.5590 o         1 ZZD     -0.837300
      6 OXT         3.5240   -1.1860   -0.5310 o         1 ZZD     -0.837300
      7 SG          0.3390    0.5810    1.3450 ss        1 ZZD     -0.356200
      8 CAM        -1.0060    2.3090   -1.1290 ca        1 ZZD     -0.112833
      9 CAG        -0.7730    3.1430   -2.2190 ca        1 ZZD     -0.140167
     10 CAD        -0.1250    2.6510   -3.3530 ca        1 ZZD     -0.140000
     11 CAH         0.2950    1.3240   -3.3830 ca        1 ZZD     -0.140167
     12 CAN         0.0610    0.4850   -2.2930 ca        1 ZZD     -0.112833
     13 CAV        -0.6040    0.9640   -1.1560 ca        1 ZZD     -0.069633
     14 CAZ        -0.8380    0.0820    0.0350 c3        1 ZZD      0.193000
     15 CAX        -0.7270   -1.3800   -0.3160 ca        1 ZZD     -0.069633
     16 CAQ         0.5000   -2.0560   -0.2820 ca        1 ZZD     -0.112833
     17 CAK         0.5660   -3.4110   -0.6110 ca        1 ZZD     -0.140167
     18 CAF        -0.5830   -4.1080   -0.9750 ca        1 ZZD     -0.140000
     19 CAL        -1.8060   -3.4410   -1.0210 ca        1 ZZD     -0.140167
     20 CAR        -1.8760   -2.0880   -0.6990 ca        1 ZZD     -0.112833
     21 CAW        -2.1660    0.3310    0.7060 ca        1 ZZD     -0.069633
     22 CAO        -2.3170    0.0470    2.0730 ca        1 ZZD     -0.112833
     23 CAI        -3.5370    0.2680    2.7090 ca        1 ZZD     -0.140167
     24 CAE        -4.6270    0.7620    1.9920 ca        1 ZZD     -0.140000
     25 CAJ        -4.4910    1.0290    0.6310 ca        1 ZZD     -0.140167
     26 CAP        -3.2710    0.8120   -0.0090 ca        1 ZZD     -0.112833
     27 HN1         4.4430    0.6030    2.7220 hn        1 ZZD      0.333300
     28 HN2         4.0050    1.9000    1.8760 hn        1 ZZD      0.333300
     29 HA          2.5530   -0.6340    1.9650 h1        1 ZZD      0.063700
     30 HB1C        2.0470    2.0060    0.5300 h1        1 ZZD      0.076700
     31 HB2C        1.9190    0.5040   -0.4720 h1        1 ZZD      0.076700
     32 HAD         0.0620    3.3110   -4.2110 ha        1 ZZD      0.117333
     33 HAH         0.8280    0.9320   -4.2620 ha        1 ZZD      0.125667
     34 HAN         0.4250   -0.5560   -2.3240 ha        1 ZZD      0.158000
     35 HAQ         1.4460   -1.5340   -0.0140 ha        1 ZZD      0.158000
     36 HAR        -2.8480   -1.5730   -0.7470 ha        1 ZZD      0.158000
     37 HAK         1.5440   -3.9150   -0.5850 ha        1 ZZD      0.125667
     38 HAF        -0.5270   -5.1760   -1.2290 ha        1 ZZD      0.117333
     39 HAL        -2.7190   -3.9790   -1.3130 ha        1 ZZD      0.125667
     40 HAO        -1.4640   -0.3530    2.6500 ha        1 ZZD      0.158000
     41 HAP        -3.1780    1.0180   -1.0870 ha        1 ZZD      0.158000
     42 HAI        -3.6380    0.0500    3.7820 ha        1 ZZD      0.125667
     43 HAE        -5.5870    0.9360    2.4960 ha        1 ZZD      0.117333
     44 HAJ        -5.3470    1.4100    0.0560 ha        1 ZZD      0.125667
     45 HAM        -1.4950    2.7100   -0.2270 ha        1 ZZD      0.158000
     46 HAG        -1.0930    4.1940   -2.1800 ha        1 ZZD      0.125667
@<TRIPOS>BOND
     1    1    2 1   
     2    1   27 1   
     3    1   28 1   
     4    2    3 1   
     5    2    4 1   
     6    2   29 1   
     7    3    7 1   
     8    3   30 1   
     9    3   31 1   
    10    4    5 1   
    11    4    6 1   
    12    7   14 1   
    13    8    9 ar  
    14    8   13 ar  
    15    8   45 1   
    16    9   10 ar  
    17    9   46 1   
    18   10   11 ar  
    19   10   32 1   
    20   11   12 ar  
    21   11   33 1   
    22   12   13 ar  
    23   12   34 1   
    24   13   14 1   
    25   14   15 1   
    26   14   21 1   
    27   15   16 ar  
    28   15   20 ar  
    29   16   17 ar  
    30   16   35 1   
    31   17   18 ar  
    32   17   37 1   
    33   18   19 ar  
    34   18   38 1   
    35   19   20 ar  
    36   19   39 1   
    37   20   36 1   
    38   21   22 ar  
    39   21   26 ar  
    40   22   23 ar  
    41   22   40 1   
    42   23   24 ar  
    43   23   42 1   
    44   24   25 ar  
    45   24   43 1   
    46   25   26 ar  
    47   25   44 1   
    48   26   41 1   
@<TRIPOS>SUBSTRUCTURE
     1 ZZD         1 TEMP              0 ****  ****    0 ROOT
