@<TRIPOS>MOLECULE
ZZE
   41    42     1     0     0
SMALL
bcc


@<TRIPOS>ATOM
      1 C1          0.0180   -0.1400   -0.3450 cc        1 ZZE     -0.126200
      2 C2          1.4290   -0.0850   -0.3860 cd        1 ZZE     -0.075600
      3 C3         -0.3560    0.0210    1.0460 cc        1 ZZE      0.330600
      4 O4         -0.8320   -0.1510   -1.4230 os        1 ZZE     -0.199200
      5 N5          1.8250    0.0950    0.9470 na        1 ZZE      0.100400
      6 C6          2.3180   -0.1830   -1.5620 c3        1 ZZE     -0.022100
      7 N7          0.7780    0.1620    1.7880 nd        1 ZZE     -0.507800
      8 C8         -1.7410    0.0590    1.5700 c3        1 ZZE     -0.105700
      9 C9         -1.2760   -1.4040   -1.8410 ca        1 ZZE      0.108100
     10 C10         3.2020    0.2130    1.3910 c3        1 ZZE      0.051300
     11 C11         3.0880   -1.4810   -1.5970 c3        1 ZZE     -0.097100
     12 C12        -1.9620   -0.9020    2.7120 c3        1 ZZE     -0.090100
     13 C13        -2.2350   -1.3670   -2.8670 ca        1 ZZE     -0.114500
     14 C14        -0.8140   -2.6150   -1.3190 ca        1 ZZE     -0.114500
     15 C15         3.4310    1.3540    2.3940 c3        1 ZZE      0.120400
     16 C16        -2.7300   -2.5750   -3.3680 ca        1 ZZE      0.009500
     17 C17        -1.3250   -3.8140   -1.8350 ca        1 ZZE      0.009500
     18 O18         4.8410    1.4380    2.5340 oh        1 ZZE     -0.605800
     19 C19        -2.2810   -3.8020   -2.8570 ca        1 ZZE     -0.089000
     20 C20        -3.7010   -2.5600   -4.4070 cg        1 ZZE      0.228800
     21 C21        -0.8650   -5.0550   -1.3130 cg        1 ZZE      0.228800
     22 N22        -4.4950   -2.5470   -5.2570 n1        1 ZZE     -0.346800
     23 N23        -0.4880   -6.0690   -0.8870 n1        1 ZZE     -0.346800
     24 H61C        3.0330    0.6850   -1.5770 hc        1 ZZE      0.067700
     25 H62C        1.6730   -0.0990   -2.4800 hc        1 ZZE      0.067700
     26 H81C       -1.9740    1.1060    1.9070 hc        1 ZZE      0.058700
     27 H82C       -2.4380   -0.1840    0.7230 hc        1 ZZE      0.058700
     28 H101        3.5120   -0.7600    1.8700 h1        1 ZZE      0.076200
     29 H102        3.8480    0.3870    0.4850 h1        1 ZZE      0.076200
     30 H111        3.7200   -1.5210   -2.5180 hc        1 ZZE      0.042700
     31 H112        3.7550   -1.5750   -0.7060 hc        1 ZZE      0.042700
     32 H113        2.3910   -2.3530   -1.6080 hc        1 ZZE      0.042700
     33 H121       -1.7280   -1.9480    2.4020 hc        1 ZZE      0.040700
     34 H122       -1.3150   -0.6400    3.5830 hc        1 ZZE      0.040700
     35 H123       -3.0300   -0.8610    3.0380 hc        1 ZZE      0.040700
     36 H13        -2.5810   -0.3990   -3.2590 ha        1 ZZE      0.168000
     37 H14        -0.0620   -2.6230   -0.5140 ha        1 ZZE      0.168000
     38 H151        3.0300    2.3260    2.0030 h1        1 ZZE      0.045700
     39 H152        2.9500    1.1220    3.3800 h1        1 ZZE      0.045700
     40 H18         5.0080    2.0670    3.2460 ho        1 ZZE      0.412000
     41 H19        -2.6790   -4.7470   -3.2570 ha        1 ZZE      0.160000
@<TRIPOS>BOND
     1    1    2 2   
     2    1    3 1   
     3    1    4 1   
     4    2    5 1   
     5    2    6 1   
     6    3    7 2   
     7    3    8 1   
     8    4    9 1   
     9    5    7 1   
    10    5   10 1   
    11    6   11 1   
    12    6   24 1   
    13    6   25 1   
    14    8   12 1   
    15    8   26 1   
    16    8   27 1   
    17    9   13 ar  
    18    9   14 ar  
    19   10   15 1   
    20   10   28 1   
    21   10   29 1   
    22   11   30 1   
    23   11   31 1   
    24   11   32 1   
    25   12   33 1   
    26   12   34 1   
    27   12   35 1   
    28   13   16 ar  
    29   13   36 1   
    30   14   17 ar  
    31   14   37 1   
    32   15   18 1   
    33   15   38 1   
    34   15   39 1   
    35   16   19 ar  
    36   16   20 1   
    37   17   19 ar  
    38   17   21 1   
    39   18   40 1   
    40   19   41 1   
    41   20   22 3   
    42   21   23 3   
@<TRIPOS>SUBSTRUCTURE
     1 ZZE         1 TEMP              0 ****  ****    0 ROOT
