@<TRIPOS>MOLECULE
ZZE
   41    42     1     0     0
SMALL
bcc


@<TRIPOS>ATOM
      1 C1         -0.6510    0.3660    0.8510 cc        1 ZZE     -0.126200
      2 C2         -1.6040   -0.6590    0.6680 cd        1 ZZE     -0.075600
      3 C3         -1.2670    1.5860    0.3670 cc        1 ZZE      0.330600
      4 O4          0.5410    0.2650    1.5240 os        1 ZZE     -0.199200
      5 N5         -2.7150   -0.0250    0.0930 na        1 ZZE      0.100400
      6 C6         -1.4880   -2.0930    1.0070 c3        1 ZZE     -0.022100
      7 N7         -2.5200    1.2940   -0.0800 nd        1 ZZE     -0.507800
      8 C8         -0.6500    2.9320    0.3860 c3        1 ZZE     -0.105700
      9 C9          1.6680    0.0170    0.7420 ca        1 ZZE      0.108100
     10 C10        -3.9520   -0.6940   -0.2710 c3        1 ZZE      0.051300
     11 C11        -1.3760   -2.9700   -0.2170 c3        1 ZZE     -0.097100
     12 C12        -0.6990    3.6190   -0.9570 c3        1 ZZE     -0.090100
     13 C13         2.8810    0.0400    1.4500 ca        1 ZZE     -0.114500
     14 C14         1.6290   -0.2510   -0.6290 ca        1 ZZE     -0.114500
     15 C15        -5.2140    0.0650    0.1650 c3        1 ZZE      0.120400
     16 C16         4.0680   -0.2140    0.7560 ca        1 ZZE      0.009500
     17 C17         2.8320   -0.5010   -1.3040 ca        1 ZZE      0.009500
     18 O18        -6.2840   -0.8340   -0.0830 oh        1 ZZE     -0.605800
     19 C19         4.0520   -0.4840   -0.6200 ca        1 ZZE     -0.089000
     20 C20         5.3080   -0.1970    1.4540 cg        1 ZZE      0.228800
     21 C21         2.8080   -0.7760   -2.7000 cg        1 ZZE      0.228800
     22 N22         6.3210   -0.1830    2.0250 n1        1 ZZE     -0.346800
     23 N23         2.7880   -1.0010   -3.8410 n1        1 ZZE     -0.346800
     24 H61C       -0.5700   -2.2140    1.6450 hc        1 ZZE      0.067700
     25 H62C       -2.3690   -2.4140    1.6270 hc        1 ZZE      0.067700
     26 H81C       -1.1770    3.5640    1.1530 hc        1 ZZE      0.058700
     27 H82C        0.4170    2.8190    0.7210 hc        1 ZZE      0.058700
     28 H101       -3.9750   -0.8280   -1.3900 h1        1 ZZE      0.076200
     29 H102       -3.9530   -1.7130    0.2110 h1        1 ZZE      0.076200
     30 H111       -2.2890   -2.8830   -0.8550 hc        1 ZZE      0.042700
     31 H112       -0.4900   -2.6790   -0.8320 hc        1 ZZE      0.042700
     32 H113       -1.2590   -4.0370    0.0910 hc        1 ZZE      0.042700
     33 H121       -1.7540    3.7880   -1.2790 hc        1 ZZE      0.040700
     34 H122       -0.1840    4.6090   -0.8930 hc        1 ZZE      0.040700
     35 H123       -0.1880    3.0040   -1.7360 hc        1 ZZE      0.040700
     36 H13         2.8820    0.2550    2.5290 ha        1 ZZE      0.168000
     37 H14         0.6670   -0.2630   -1.1670 ha        1 ZZE      0.168000
     38 H151       -5.1790    0.3220    1.2560 h1        1 ZZE      0.045700
     39 H152       -5.3410    1.0040   -0.4350 h1        1 ZZE      0.045700
     40 H18        -7.0980   -0.3400    0.0710 ho        1 ZZE      0.412000
     41 H19         4.9930   -0.6810   -1.1570 ha        1 ZZE      0.160000
@<TRIPOS>BOND
     1    1    2 2   
     2    1    3 1   
     3    1    4 1   
     4    2    5 1   
     5    2    6 1   
     6    3    7 2   
     7    3    8 1   
     8    4    9 1   
     9    5    7 1   
    10    5   10 1   
    11    6   11 1   
    12    6   24 1   
    13    6   25 1   
    14    8   12 1   
    15    8   26 1   
    16    8   27 1   
    17    9   13 ar  
    18    9   14 ar  
    19   10   15 1   
    20   10   28 1   
    21   10   29 1   
    22   11   30 1   
    23   11   31 1   
    24   11   32 1   
    25   12   33 1   
    26   12   34 1   
    27   12   35 1   
    28   13   16 ar  
    29   13   36 1   
    30   14   17 ar  
    31   14   37 1   
    32   15   18 1   
    33   15   38 1   
    34   15   39 1   
    35   16   19 ar  
    36   16   20 1   
    37   17   19 ar  
    38   17   21 1   
    39   18   40 1   
    40   19   41 1   
    41   20   22 3   
    42   21   23 3   
@<TRIPOS>SUBSTRUCTURE
     1 ZZE         1 TEMP              0 ****  ****    0 ROOT
