@<TRIPOS>MOLECULE
ZZE
   41    43     1     0     0
SMALL
bcc


@<TRIPOS>ATOM
      1 C1          0.0000    0.0000    0.0000 c2        1 ZZE     -0.126000
      2 C2          1.3560    0.0000    0.0000 c2        1 ZZE     -0.181000
      3 C3         -0.4310   -0.0020    1.3330 c2        1 ZZE     -0.091000
      4 O4         -0.8010    0.0050   -1.1020 os        1 ZZE     -0.074000
      5 N5          1.7660    0.0000    1.2960 na        1 ZZE      0.324000
      6 C6          2.2470    0.0020   -1.2150 c3        1 ZZE     -0.167000
      7 N7          0.6240   -0.0010    2.1070 n2        1 ZZE     -0.168000
      8 C8         -1.8650   -0.0020    1.7970 c3        1 ZZE     -0.013000
      9 C9         -1.1750   -1.1920   -1.6240 ca        1 ZZE      0.075000
     10 C10         3.1550    0.0010    1.7610 c3        1 ZZE     -0.295000
     11 C11         2.5490   -1.4410   -1.6270 c3        1 ZZE     -0.127000
     12 C12        -2.3500   -1.4450    1.9530 c3        1 ZZE     -0.147000
     13 C13        -1.9900   -1.2330   -2.7450 ca        1 ZZE     -0.148500
     14 C14        -0.7370   -2.3700   -1.0380 ca        1 ZZE     -0.148500
     15 C15         3.6380    1.4440    1.9240 DU        1 ZZE      0.251000
     16 C16        -2.3770   -2.4610   -3.2840 ca        1 ZZE      0.093000
     17 C17        -1.1190   -3.6020   -1.5720 ca        1 ZZE      0.093000
     18 O18         4.9930    1.4450    2.3780 oh        1 ZZE     -0.362000
     19 C19        -1.9430   -3.6470   -2.6950 ca        1 ZZE     -0.118000
     20 C20        -3.2190   -2.5020   -4.4420 c1        1 ZZE     -0.112000
     21 C21        -0.6650   -4.8170   -0.9650 c1        1 ZZE     -0.112000
     22 N22        -3.8910   -2.5530   -5.3570 n1        1 ZZE     -0.033000
     23 N23        -0.6330   -5.6710   -0.1740 n1        1 ZZE     -0.033000
     24 H61C        2.9600    0.8150   -1.2860 hc        1 ZZE      0.119500
     25 H62C        1.9710   -0.3400   -2.2050 hc        1 ZZE      0.119500
     26 H81C       -1.9000    0.7630    2.5640 hc        1 ZZE      0.100000
     27 H82C       -2.3830   -0.1420    0.8560 hc        1 ZZE      0.100000
     28 H101        3.5800   -0.9170    1.3720 h1        1 ZZE      0.164000
     29 H102        3.7170    0.7380    1.2000 DU        1 ZZE      0.114000
     30 H111        2.7540   -1.7070   -2.6570 hc        1 ZZE      0.045667
     31 H112        3.2790   -1.9600   -1.0170 hc        1 ZZE      0.045667
     32 H113        1.6620   -1.9930   -1.3420 hc        1 ZZE      0.045667
     33 H121       -2.7130   -1.9790    1.0830 hc        1 ZZE      0.035667
     34 H122       -1.9370   -2.4070    2.2310 hc        1 ZZE      0.035667
     35 H123       -3.2420   -1.3560    2.5620 hc        1 ZZE      0.035667
     36 H13        -2.4440   -0.2520   -2.8060 ha        1 ZZE      0.143500
     37 H14        -0.2620   -2.2220   -0.0760 ha        1 ZZE      0.143500
     38 H151        3.4170    1.9170    0.9740 ha        1 ZZE      0.003500
     39 H152        3.4240    2.3150    2.5310 ha        1 ZZE      0.003500
     40 H18         5.6460    2.0320    2.0360 ho        1 ZZE      0.218000
     41 H19        -1.7230   -4.6900   -2.8910 ha        1 ZZE      0.148000
@<TRIPOS>BOND
     1    1    2 1   
     2    1    3 1   
     3    1    4 1   
     4    2    5 1   
     5    2    6 1   
     6    3    7 1   
     7    3    8 1   
     8    4    9 1   
     9    5    7 1   
    10    5   10 1   
    11    6   11 1   
    12    6   24 1   
    13    6   25 1   
    14    8   12 1   
    15    8   26 1   
    16    8   27 1   
    17    9   13 1   
    18    9   14 1   
    19   10   15 1   
    20   10   28 1   
    21   10   29 1   
    22   11   30 1   
    23   11   31 1   
    24   11   32 1   
    25   12   33 1   
    26   12   34 1   
    27   12   35 1   
    28   13   16 1   
    29   13   36 1   
    30   14   17 1   
    31   14   37 1   
    32   15   18 1   
    33   15   29 1   
    34   15   38 1   
    35   15   39 1   
    36   16   19 1   
    37   16   20 1   
    38   17   19 1   
    39   17   21 1   
    40   18   40 1   
    41   19   41 1   
    42   20   22 1   
    43   21   23 1   
@<TRIPOS>SUBSTRUCTURE
     1 ZZE         1 TEMP              0 ****  ****    0 ROOT
