@<TRIPOS>MOLECULE
ZZF
   44    46     1     0     0
SMALL
bcc


@<TRIPOS>ATOM
      1 C1          8.6100    1.7520   -0.7580 c3        1 ZZF     -0.150400
      2 C2          7.2850    1.2510   -0.2780 ca        1 ZZF      0.421600
      3 C3          6.2500    2.1840   -0.0420 ca        1 ZZF     -0.244300
      4 C4          5.0140    1.7250    0.4050 ca        1 ZZF     -0.103000
      5 C5          4.8520    0.3490    0.6010 ca        1 ZZF     -0.050200
      6 C6          5.9320   -0.5400    0.3470 ca        1 ZZF      0.434600
      7 N7          7.1280   -0.0810   -0.0860 nb        1 ZZF     -0.664000
      8 C8          5.7500   -2.0020    0.5900 c3        1 ZZF     -0.148400
      9 O9          3.6950   -0.1750    1.1720 os        1 ZZF     -0.236200
     10 C10         2.5150    0.0160    0.4700 ca        1 ZZF      0.181100
     11 C11         2.4370    0.4780   -0.8500 ca        1 ZZF     -0.341300
     12 C12         1.1570    0.5740   -1.4170 ca        1 ZZF      0.459200
     13 N13         0.0140    0.2550   -0.7930 nb        1 ZZF     -0.723000
     14 C14         0.1000   -0.1910    0.5020 ca        1 ZZF      0.666200
     15 C15         1.3520   -0.3280    1.1720 ca        1 ZZF     -0.320300
     16 N16        -1.0580   -0.5140    1.2360 nh        1 ZZF     -0.734300
     17 C17        -2.3670   -0.4760    0.7380 ca        1 ZZF      0.221600
     18 C18        -3.2750   -1.4980    1.1210 ca        1 ZZF     -0.188500
     19 C19        -4.6000   -1.4430    0.7220 ca        1 ZZF      0.006500
     20 C20        -5.0840   -0.3900   -0.0640 ca        1 ZZF     -0.421500
     21 C21        -4.1840    0.6120   -0.4450 ca        1 ZZF      0.006500
     22 C22        -2.8520    0.5890   -0.0540 ca        1 ZZF     -0.188500
     23 S23        -6.6880   -0.3520   -0.5670 sy        1 ZZF      1.533200
     24 O24        -6.7670    0.3780   -1.7730 o         1 ZZF     -0.661800
     25 O25        -7.1900   -1.6720   -0.5670 o         1 ZZF     -0.661800
     26 N26        -7.4210    0.4810    0.5920 n3        1 ZZF     -1.026700
     27 H11C        9.4030    1.5360    0.0020 hc        1 ZZF      0.056367
     28 H12C        8.8980    1.2510   -1.7160 hc        1 ZZF      0.056367
     29 H13C        8.5680    2.8550   -0.9280 hc        1 ZZF      0.056367
     30 H3          6.4210    3.2560   -0.2070 ha        1 ZZF      0.148000
     31 H4          4.1810    2.4160    0.5990 ha        1 ZZF      0.153000
     32 H81C        4.6800   -2.2800    0.4250 hc        1 ZZF      0.060367
     33 H82C        6.3950   -2.6180   -0.0830 hc        1 ZZF      0.060367
     34 H83C        6.0190   -2.2340    1.6510 hc        1 ZZF      0.060367
     35 H11         3.3340    0.7490   -1.4200 ha        1 ZZF      0.161000
     36 H15         1.4240   -0.6860    2.2070 ha        1 ZZF      0.161000
     37 H12         1.0330    0.9260   -2.4590 h4        1 ZZF      0.030100
     38 H16        -0.8970   -1.1980    1.9470 hn        1 ZZF      0.433800
     39 H18        -2.9330   -2.3460    1.7340 ha        1 ZZF      0.149500
     40 H22        -2.1890    1.4080   -0.3700 ha        1 ZZF      0.149500
     41 H19        -5.2880   -2.2590    1.0080 ha        1 ZZF      0.153000
     42 H21        -4.5410    1.4390   -1.0860 ha        1 ZZF      0.153000
     43 H261       -7.5360    1.4620    0.5710 hn        1 ZZF      0.445300
     44 H262       -7.8260    0.0650    1.3910 hn        1 ZZF      0.445300
@<TRIPOS>BOND
     1    1    2 1   
     2    1   27 1   
     3    1   28 1   
     4    1   29 1   
     5    2    3 ar  
     6    2    7 ar  
     7    3    4 ar  
     8    3   30 1   
     9    4    5 ar  
    10    4   31 1   
    11    5    6 ar  
    12    5    9 1   
    13    6    7 ar  
    14    6    8 1   
    15    8   32 1   
    16    8   33 1   
    17    8   34 1   
    18    9   10 1   
    19   10   11 ar  
    20   10   15 ar  
    21   11   12 ar  
    22   11   35 1   
    23   12   13 ar  
    24   12   37 1   
    25   13   14 ar  
    26   14   15 ar  
    27   14   16 1   
    28   15   36 1   
    29   16   17 1   
    30   16   38 1   
    31   17   18 ar  
    32   17   22 ar  
    33   18   19 ar  
    34   18   39 1   
    35   19   20 ar  
    36   19   41 1   
    37   20   21 ar  
    38   20   23 1   
    39   21   22 ar  
    40   21   42 1   
    41   22   40 1   
    42   23   24 2   
    43   23   25 2   
    44   23   26 1   
    45   26   43 1   
    46   26   44 1   
@<TRIPOS>SUBSTRUCTURE
     1 ZZF         1 TEMP              0 ****  ****    0 ROOT
