@<TRIPOS>MOLECULE
ZZF
   45    47     1     0     0
SMALL
bcc


@<TRIPOS>ATOM
      1 C1          0.1850   -1.4360   -1.4080 c3        1 ZZF     -0.157400
      2 C2          1.3320   -0.6850   -0.8120 ca        1 ZZF      0.444600
      3 C3          1.1280    0.0130    0.4040 ca        1 ZZF     -0.249300
      4 C4          2.1840    0.7250    0.9610 ca        1 ZZF     -0.082000
      5 C5          3.4120    0.7180    0.2860 ca        1 ZZF     -0.087200
      6 C6          3.5560    0.0060   -0.9320 ca        1 ZZF      0.445600
      7 N7          2.5200   -0.6860   -1.4620 nb        1 ZZF     -0.662000
      8 C8          4.8580    0.0360   -1.6640 c3        1 ZZF     -0.152400
      9 O9          4.4480    1.5420    0.7340 os        1 ZZF     -0.224200
     10 C10         5.2750    1.0140    1.7040 ca        1 ZZF      0.185100
     11 C11         5.1490   -0.2630    2.2640 ca        1 ZZF     -0.297300
     12 C12         6.0810   -0.6330    3.2480 ca        1 ZZF      0.454200
     13 N13         7.0830    0.1470    3.6820 nb        1 ZZF     -0.714000
     14 C14         7.1940    1.3910    3.1230 ca        1 ZZF      0.614200
     15 C15         6.3080    1.8740    2.1280 ca        1 ZZF     -0.280300
     16 N16         8.2700    2.2450    3.5010 nu        1 ZZF     -0.694300
     17 C17         8.9310    2.2770    4.6880 ca        1 ZZF      0.332600
     18 C18        10.1350    3.0630    4.7850 ca        1 ZZF     -0.221000
     19 C19        10.8350    3.1350    5.9570 ca        1 ZZF      0.052000
     20 C20        10.4160    2.4630    7.1400 ca        1 ZZF     -0.673500
     21 C21         9.2110    1.7100    7.0390 ca        1 ZZF      0.052000
     22 C22         8.4880    1.6170    5.8810 ca        1 ZZF     -0.221000
     23 S23        11.2730    2.4710    8.4430 sy        1 ZZF      1.523200
     24 O24        10.9490    1.5370    9.4040 o         1 ZZF     -0.583800
     25 O25        12.5560    2.9650    8.3330 o         1 ZZF     -0.583800
     26 N26        10.4380    4.0530    9.3010 nz        1 ZZF     -0.777500
     27 H11C       -0.6160   -1.5860   -0.6440 hc        1 ZZF      0.064033
     28 H12C        0.5090   -2.4360   -1.7910 hc        1 ZZF      0.064033
     29 H13C       -0.2380   -0.8540   -2.2650 hc        1 ZZF      0.064033
     30 H3          0.1440   -0.0070    0.8930 ha        1 ZZF      0.156000
     31 H4          2.0650    1.2880    1.8980 ha        1 ZZF      0.152000
     32 H81C        5.6880    0.2650   -0.9520 hc        1 ZZF      0.062367
     33 H82C        4.8230    0.8380   -2.4430 hc        1 ZZF      0.062367
     34 H83C        5.0680   -0.9380   -2.1700 hc        1 ZZF      0.062367
     35 H11         4.3550   -0.9520    1.9470 ha        1 ZZF      0.178000
     36 H15         6.3980    2.8750    1.6850 ha        1 ZZF      0.172000
     37 H12         6.0290   -1.6330    3.7220 h4        1 ZZF      0.045100
     38 H16         8.6350    2.7960    2.7480 hn        1 ZZF      0.466800
     39 H18        10.5110    3.5980    3.8970 ha        1 ZZF      0.177500
     40 H22         7.5620    1.0170    5.8770 ha        1 ZZF      0.177500
     41 H19        11.7760    3.7180    5.9900 ha        1 ZZF      0.162000
     42 H21         8.8580    1.1660    7.9370 ha        1 ZZF      0.162000
     43 H261       11.1390    4.7690    9.4620 hn        1 ZZF      0.442467
     44 H262       10.0410    3.7910   10.1970 hn        1 ZZF      0.442467
     45 H263        9.7040    4.4460    8.7270 hn        1 ZZF      0.442467
@<TRIPOS>BOND
     1    1    2 1   
     2    1   27 1   
     3    1   28 1   
     4    1   29 1   
     5    2    3 ar  
     6    2    7 ar  
     7    3    4 ar  
     8    3   30 1   
     9    4    5 ar  
    10    4   31 1   
    11    5    6 ar  
    12    5    9 1   
    13    6    7 ar  
    14    6    8 1   
    15    8   32 1   
    16    8   33 1   
    17    8   34 1   
    18    9   10 1   
    19   10   11 ar  
    20   10   15 ar  
    21   11   12 ar  
    22   11   35 1   
    23   12   13 ar  
    24   12   37 1   
    25   13   14 ar  
    26   14   15 ar  
    27   14   16 1   
    28   15   36 1   
    29   16   17 1   
    30   16   38 1   
    31   17   18 ar  
    32   17   22 ar  
    33   18   19 ar  
    34   18   39 1   
    35   19   20 ar  
    36   19   41 1   
    37   20   21 ar  
    38   20   23 1   
    39   21   22 ar  
    40   21   42 1   
    41   22   40 1   
    42   23   24 2   
    43   23   25 2   
    44   23   26 1   
    45   26   43 1   
    46   26   44 1   
    47   26   45 1   
@<TRIPOS>SUBSTRUCTURE
     1 ZZF         1 TEMP              0 ****  ****    0 ROOT
