@<TRIPOS>MOLECULE
ZZF
   46    48     1     0     0
SMALL
bcc


@<TRIPOS>ATOM
      1 C1          0.2430    0.8480    0.1660 c3        1 ZZF     -0.166400
      2 C2          1.6380    0.3310    0.3050 ca        1 ZZF      0.462600
      3 C3          1.9080   -0.6190    1.3240 ca        1 ZZF     -0.249300
      4 C4          3.1930   -1.1290    1.4520 ca        1 ZZF     -0.070000
      5 C5          4.1710   -0.6740    0.5550 ca        1 ZZF     -0.129200
      6 C6          3.8410    0.2600   -0.4590 ca        1 ZZF      0.443600
      7 N7          2.5880    0.7640   -0.5560 nb        1 ZZF     -0.658000
      8 C8          4.8700    0.6720   -1.4590 c3        1 ZZF     -0.157400
      9 O9          5.4200   -1.3100    0.5610 os        1 ZZF     -0.186200
     10 C10         6.4440   -0.6750    1.2060 ca        1 ZZF      0.204100
     11 C11         7.6780   -1.3620    1.2250 ca        1 ZZF     -0.210300
     12 C12         8.7650   -0.7490    1.8640 ca        1 ZZF      0.459200
     13 N13         8.7070    0.4580    2.4610 nb        1 ZZF     -0.697000
     14 C14         7.5080    1.0940    2.4210 ca        1 ZZF      0.470200
     15 C15         6.3380    0.5890    1.8240 ca        1 ZZF     -0.284300
     16 N16         7.4540    2.4570    3.0320 n4        1 ZZF     -0.635100
     17 C17         8.0210    2.5030    4.3870 ca        1 ZZF      0.090600
     18 C18         9.4150    2.5520    4.5600 ca        1 ZZF     -0.109500
     19 C19         9.9390    2.5660    5.8510 ca        1 ZZF      0.021500
     20 C20         9.1060    2.5390    6.9840 ca        1 ZZF     -0.473500
     21 C21         7.7130    2.5050    6.7820 ca        1 ZZF      0.021500
     22 C22         7.1650    2.4860    5.5030 ca        1 ZZF     -0.109500
     23 S23         9.7390    2.3770    8.4890 sy        1 ZZF      1.465200
     24 O24         8.8120    1.9680    9.4180 o         1 ZZF     -0.533800
     25 O25        11.0600    1.9960    8.4780 o         1 ZZF     -0.533800
     26 N26         9.9110    4.2010    8.9520 n4        1 ZZF     -0.800500
     27 H11C        0.2220    1.8980   -0.2170 hc        1 ZZF      0.074033
     28 H12C       -0.2810    0.8100    1.1520 hc        1 ZZF      0.074033
     29 H13C       -0.3130    0.2010   -0.5620 hc        1 ZZF      0.074033
     30 H3          1.0980   -0.9580    1.9880 ha        1 ZZF      0.168000
     31 H4          3.4380   -1.8880    2.2100 ha        1 ZZF      0.160000
     32 H81C        4.8800   -0.0750   -2.2950 hc        1 ZZF      0.065033
     33 H82C        4.6550    1.6790   -1.8950 hc        1 ZZF      0.065033
     34 H83C        5.8800    0.6850   -0.9800 hc        1 ZZF      0.065033
     35 H11         7.7740   -2.3490    0.7440 ha        1 ZZF      0.210000
     36 H15         5.3780    1.1270    1.8040 ha        1 ZZF      0.182000
     37 H12         9.7580   -1.2460    1.9050 h4        1 ZZF      0.072100
     38 H16         6.4680    2.7560    3.0550 hn        1 ZZF      0.478300
     39 H18        10.1080    2.5450    3.6960 ha        1 ZZF      0.197500
     40 H22         6.0650    2.4410    5.3930 ha        1 ZZF      0.197500
     41 H19        11.0430    2.5640    5.9750 ha        1 ZZF      0.197000
     42 H21         7.0300    2.4600    7.6550 ha        1 ZZF      0.197000
     43 H261       10.8880    4.4250    9.1610 hn        1 ZZF      0.470467
     44 H262        9.3700    4.4070    9.7970 hn        1 ZZF      0.470467
     45 H162        7.9880    3.0990    2.4240 hn        1 ZZF      0.478300
     46 H263        9.6010    4.8450    8.2290 hn        1 ZZF      0.470467
@<TRIPOS>BOND
     1    1    2 1   
     2    1   27 1   
     3    1   28 1   
     4    1   29 1   
     5    2    3 ar  
     6    2    7 ar  
     7    3    4 ar  
     8    3   30 1   
     9    4    5 ar  
    10    4   31 1   
    11    5    6 ar  
    12    5    9 1   
    13    6    7 ar  
    14    6    8 1   
    15    8   32 1   
    16    8   33 1   
    17    8   34 1   
    18    9   10 1   
    19   10   11 ar  
    20   10   15 ar  
    21   11   12 ar  
    22   11   35 1   
    23   12   13 ar  
    24   12   37 1   
    25   13   14 ar  
    26   14   15 ar  
    27   14   16 1   
    28   15   36 1   
    29   16   17 1   
    30   16   38 1   
    31   16   45 1   
    32   17   18 ar  
    33   17   22 ar  
    34   18   19 ar  
    35   18   39 1   
    36   19   20 ar  
    37   19   41 1   
    38   20   21 ar  
    39   20   23 1   
    40   21   22 ar  
    41   21   42 1   
    42   22   40 1   
    43   23   24 2   
    44   23   25 2   
    45   23   26 1   
    46   26   43 1   
    47   26   44 1   
    48   26   46 1   
@<TRIPOS>SUBSTRUCTURE
     1 ZZF         1 TEMP              0 ****  ****    0 ROOT
