@<TRIPOS>MOLECULE
ZZG
   60    63     1     0     0
SMALL
bcc


@<TRIPOS>ATOM
      1 C1          4.4540   -2.7170   -2.8380 c3        1 ZZG      0.111700
      2 O2          5.3290   -1.9090   -2.0590 os        1 ZZG     -0.314400
      3 C3          4.7290   -1.0570   -1.1550 ca        1 ZZG      0.152100
      4 C4          3.3610   -0.7750   -1.1390 ca        1 ZZG     -0.242500
      5 C5          2.8420    0.1480   -0.2030 ca        1 ZZG      0.197600
      6 N6          1.4740    0.4940   -0.2710 nh        1 ZZG     -0.719300
      7 C7          0.6150    0.4640    0.8480 ca        1 ZZG      0.663200
      8 C8         -0.7810    0.6510    0.5990 ca        1 ZZG     -0.344300
      9 C9         -1.6460    0.6770    1.6920 ca        1 ZZG      0.192100
     10 O10        -3.0210    0.8300    1.5960 os        1 ZZG     -0.233200
     11 C11        -3.5240    1.1930    0.3500 ca        1 ZZG     -0.007200
     12 C12        -3.3930    2.5110   -0.1050 ca        1 ZZG     -0.108000
     13 C13        -4.0540    2.8880   -1.2750 ca        1 ZZG     -0.177600
     14 C14        -3.9450    4.2660   -1.7960 c3        1 ZZG     -0.052800
     15 C15        -4.8390    1.9130   -1.9510 ca        1 ZZG      0.412600
     16 C16        -5.5540    2.3170   -3.2010 c3        1 ZZG     -0.149400
     17 N17        -4.9630    0.6400   -1.5140 nb        1 ZZG     -0.648000
     18 C18        -4.3120    0.2740   -0.3850 cp        1 ZZG      0.361300
     19 C19        -4.4570   -1.1330    0.0750 cp        1 ZZG      0.356300
     20 C20        -5.7500   -1.6430    0.3140 ca        1 ZZG     -0.206300
     21 C21        -5.8750   -2.9610    0.7600 ca        1 ZZG     -0.098000
     22 C22        -4.7240   -3.7250    0.9480 ca        1 ZZG     -0.238300
     23 C23        -3.4770   -3.1310    0.6730 ca        1 ZZG      0.395200
     24 N24        -3.3270   -1.8670    0.2450 nb        1 ZZG     -0.651000
     25 C25        -1.1510    0.5230    3.0000 ca        1 ZZG     -0.307300
     26 C26         0.2310    0.3430    3.1330 ca        1 ZZG      0.447200
     27 N27         1.1090    0.3090    2.1170 nb        1 ZZG     -0.727000
     28 C28         3.7090    0.7830    0.7050 ca        1 ZZG     -0.242500
     29 C29         5.0730    0.4720    0.6940 ca        1 ZZG      0.152100
     30 O30         5.9970    1.0640    1.5310 os        1 ZZG     -0.314400
     31 C31         5.4690    1.8040    2.6280 c3        1 ZZG      0.111700
     32 C32         5.6030   -0.4600   -0.2220 ca        1 ZZG      0.024100
     33 O33         6.9190   -0.8750   -0.1570 os        1 ZZG     -0.308900
     34 C34         7.8460    0.0850   -0.6680 c3        1 ZZG      0.114700
     35 H11C        3.7650   -3.3060   -2.1870 h1        1 ZZG      0.045700
     36 H12C        3.8740   -2.0850   -3.5550 h1        1 ZZG      0.045700
     37 H13C        5.1540   -3.3950   -3.3900 h1        1 ZZG      0.045700
     38 H4          2.6930   -1.2690   -1.8580 ha        1 ZZG      0.149500
     39 H6          1.0220    0.1840   -1.1080 hn        1 ZZG      0.422800
     40 H28         3.3190    1.5160    1.4250 ha        1 ZZG      0.149500
     41 H8         -1.1710    0.7540   -0.4220 ha        1 ZZG      0.158000
     42 H25        -1.8230    0.5350    3.8650 ha        1 ZZG      0.160000
     43 H12        -2.7790    3.2290    0.4590 ha        1 ZZG      0.156000
     44 H141       -3.5140    4.2570   -2.8300 hc        1 ZZG      0.050700
     45 H142       -4.9570    4.7430   -1.8470 hc        1 ZZG      0.050700
     46 H143       -3.2900    4.8960   -1.1460 hc        1 ZZG      0.050700
     47 H161       -4.8070    2.6740   -3.9530 hc        1 ZZG      0.056367
     48 H162       -6.1380    1.4770   -3.6490 hc        1 ZZG      0.056367
     49 H163       -6.2550    3.1570   -2.9690 hc        1 ZZG      0.056367
     50 H20        -6.6340   -1.0140    0.1470 ha        1 ZZG      0.154000
     51 H21        -6.8700   -3.3870    0.9580 ha        1 ZZG      0.140000
     52 H22        -4.7800   -4.7640    1.2970 ha        1 ZZG      0.145000
     53 H23        -2.5390   -3.7010    0.8030 h4        1 ZZG      0.024100
     54 H26         0.6800    0.2090    4.1350 h4        1 ZZG      0.024100
     55 H311        4.9750    2.7370    2.2640 h1        1 ZZG      0.045700
     56 H312        4.7530    1.1850    3.2210 h1        1 ZZG      0.045700
     57 H313        6.3780    2.0500    3.2340 h1        1 ZZG      0.045700
     58 H341        8.8400   -0.4050   -0.5190 h1        1 ZZG      0.040033
     59 H342        7.6540    0.2720   -1.7510 h1        1 ZZG      0.040033
     60 H343        7.7790    1.0370   -0.0860 h1        1 ZZG      0.040033
@<TRIPOS>BOND
     1    1    2 1   
     2    1   35 1   
     3    1   36 1   
     4    1   37 1   
     5    2    3 1   
     6    3    4 ar  
     7    3   32 ar  
     8    4    5 ar  
     9    4   38 1   
    10    5    6 1   
    11    5   28 ar  
    12    6    7 1   
    13    6   39 1   
    14    7    8 ar  
    15    7   27 ar  
    16    8    9 ar  
    17    8   41 1   
    18    9   10 1   
    19    9   25 ar  
    20   10   11 1   
    21   11   12 ar  
    22   11   18 ar  
    23   12   13 ar  
    24   12   43 1   
    25   13   14 1   
    26   13   15 ar  
    27   14   44 1   
    28   14   45 1   
    29   14   46 1   
    30   15   16 1   
    31   15   17 ar  
    32   16   47 1   
    33   16   48 1   
    34   16   49 1   
    35   17   18 ar  
    36   18   19 1   
    37   19   20 ar  
    38   19   24 ar  
    39   20   21 ar  
    40   20   50 1   
    41   21   22 ar  
    42   21   51 1   
    43   22   23 ar  
    44   22   52 1   
    45   23   24 ar  
    46   23   53 1   
    47   25   26 ar  
    48   25   42 1   
    49   26   27 ar  
    50   26   54 1   
    51   28   29 ar  
    52   28   40 1   
    53   29   30 1   
    54   29   32 ar  
    55   30   31 1   
    56   31   55 1   
    57   31   56 1   
    58   31   57 1   
    59   32   33 1   
    60   33   34 1   
    61   34   58 1   
    62   34   59 1   
    63   34   60 1   
@<TRIPOS>SUBSTRUCTURE
     1 ZZG         1 TEMP              0 ****  ****    0 ROOT
