@<TRIPOS>MOLECULE
ZZG
   61    64     1     0     0
SMALL
bcc


@<TRIPOS>ATOM
      1 C1          2.8370   -2.5270    1.4820 c3        1 ZZG      0.103200
      2 O2          3.3400   -1.2100    1.7030 os        1 ZZG     -0.291400
      3 C3          2.7570   -0.4830    2.7070 ca        1 ZZG      0.153600
      4 C4          1.6430   -0.9090    3.4430 ca        1 ZZG     -0.208000
      5 C5          1.1250   -0.0590    4.4290 ca        1 ZZG      0.005600
      6 N6         -0.0550   -0.4900    5.1920 n4        1 ZZG     -0.613100
      7 C7          0.2360   -1.6380    6.0900 ca        1 ZZG      0.483200
      8 C8          0.8890   -1.3880    7.3100 ca        1 ZZG     -0.234300
      9 C9          1.0840   -2.4930    8.1610 ca        1 ZZG      0.198100
     10 O10         1.6620   -2.4170    9.4060 os        1 ZZG     -0.206200
     11 C11         2.2400   -1.1940    9.7610 ca        1 ZZG     -0.055200
     12 C12         3.6210   -1.0400    9.5700 ca        1 ZZG     -0.091000
     13 C13         4.2420    0.1030   10.0740 ca        1 ZZG     -0.174600
     14 C14         5.6970    0.3090    9.9150 c3        1 ZZG     -0.059800
     15 C15         3.4410    1.0620   10.7570 ca        1 ZZG      0.433600
     16 C16         4.1040    2.2850   11.3050 c3        1 ZZG     -0.158400
     17 N17         2.1110    0.9070   10.9380 nb        1 ZZG     -0.648000
     18 C18         1.5080   -0.2060   10.4580 cp        1 ZZG      0.367300
     19 C19         0.0520   -0.3650   10.7200 cp        1 ZZG      0.342300
     20 C20        -0.4030   -0.2950   12.0530 ca        1 ZZG     -0.189300
     21 C21        -1.7690   -0.4520   12.3040 ca        1 ZZG     -0.086000
     22 C22        -2.6330   -0.6660   11.2310 ca        1 ZZG     -0.222300
     23 C23        -2.0870   -0.7130    9.9340 ca        1 ZZG      0.389200
     24 N24        -0.7780   -0.5670    9.6640 nb        1 ZZG     -0.702000
     25 C25         0.6600   -3.7720    7.7580 ca        1 ZZG     -0.228300
     26 C26         0.0430   -3.8940    6.5020 ca        1 ZZG      0.447200
     27 N27        -0.1760   -2.8650    5.6650 nb        1 ZZG     -0.687000
     28 C28         1.6850    1.1980    4.6990 ca        1 ZZG     -0.208000
     29 C29         2.8030    1.6090    3.9620 ca        1 ZZG      0.153600
     30 O30         3.4300    2.8180    4.1340 os        1 ZZG     -0.291400
     31 C31         2.9040    3.6870    5.1360 c3        1 ZZG      0.103200
     32 C32         3.3610    0.7720    2.9670 ca        1 ZZG      0.101100
     33 O33         4.5420    1.0600    2.3290 os        1 ZZG     -0.298900
     34 C34         4.5210    2.2230    1.4920 c3        1 ZZG      0.111700
     35 H11C        3.5020   -2.9130    0.6650 h1        1 ZZG      0.058867
     36 H12C        1.7740   -2.4880    1.1410 h1        1 ZZG      0.058867
     37 H13C        2.9400   -3.1500    2.4030 h1        1 ZZG      0.058867
     38 H4          1.1920   -1.8940    3.2460 ha        1 ZZG      0.164500
     39 H6         -0.7950   -0.7510    4.5220 hn        1 ZZG      0.468800
     40 H28         1.2700    1.8550    5.4780 ha        1 ZZG      0.164500
     41 H8          1.2100   -0.3830    7.6230 ha        1 ZZG      0.181000
     42 H25         0.8020   -4.6440    8.4140 ha        1 ZZG      0.191000
     43 H12         4.1990   -1.8190    9.0510 ha        1 ZZG      0.161000
     44 H141        6.1850    0.4080   10.9180 hc        1 ZZG      0.059367
     45 H142        5.8970    1.2480    9.3390 hc        1 ZZG      0.059367
     46 H143        6.1730   -0.5460    9.3740 hc        1 ZZG      0.059367
     47 H161        3.3790    2.9870   11.7850 hc        1 ZZG      0.066033
     48 H162        4.6310    2.8230   10.4770 hc        1 ZZG      0.066033
     49 H163        4.8620    1.9780   12.0690 hc        1 ZZG      0.066033
     50 H20         0.3060   -0.1160   12.8750 ha        1 ZZG      0.166000
     51 H21        -2.1530   -0.4050   13.3340 ha        1 ZZG      0.157000
     52 H22        -3.7130   -0.7940   11.3840 ha        1 ZZG      0.157000
     53 H23        -2.7410   -0.8770    9.0590 h4        1 ZZG      0.016100
     54 H26        -0.3070   -4.8790    6.1340 h4        1 ZZG      0.059100
     55 H311        1.8520    3.9750    4.8940 h1        1 ZZG      0.058867
     56 H312        3.5830    4.5770    5.0750 h1        1 ZZG      0.058867
     57 H313        2.9680    3.2110    6.1440 h1        1 ZZG      0.058867
     58 H341        4.3330    3.1400    2.1010 h1        1 ZZG      0.058033
     59 H342        5.5530    2.2340    1.0580 h1        1 ZZG      0.058033
     60 H343        3.7520    2.1090    0.6920 h1        1 ZZG      0.058033
     61 H62        -0.3890    0.2850    5.7790 hn        1 ZZG      0.468800
@<TRIPOS>BOND
     1    1    2 1   
     2    1   35 1   
     3    1   36 1   
     4    1   37 1   
     5    2    3 1   
     6    3    4 ar  
     7    3   32 ar  
     8    4    5 ar  
     9    4   38 1   
    10    5    6 1   
    11    5   28 ar  
    12    6    7 1   
    13    6   39 1   
    14    6   61 1   
    15    7    8 ar  
    16    7   27 ar  
    17    8    9 ar  
    18    8   41 1   
    19    9   10 1   
    20    9   25 ar  
    21   10   11 1   
    22   11   12 ar  
    23   11   18 ar  
    24   12   13 ar  
    25   12   43 1   
    26   13   14 1   
    27   13   15 ar  
    28   14   44 1   
    29   14   45 1   
    30   14   46 1   
    31   15   16 1   
    32   15   17 ar  
    33   16   47 1   
    34   16   48 1   
    35   16   49 1   
    36   17   18 ar  
    37   18   19 1   
    38   19   20 ar  
    39   19   24 ar  
    40   20   21 ar  
    41   20   50 1   
    42   21   22 ar  
    43   21   51 1   
    44   22   23 ar  
    45   22   52 1   
    46   23   24 ar  
    47   23   53 1   
    48   25   26 ar  
    49   25   42 1   
    50   26   27 ar  
    51   26   54 1   
    52   28   29 ar  
    53   28   40 1   
    54   29   30 1   
    55   29   32 ar  
    56   30   31 1   
    57   31   55 1   
    58   31   56 1   
    59   31   57 1   
    60   32   33 1   
    61   33   34 1   
    62   34   58 1   
    63   34   59 1   
    64   34   60 1   
@<TRIPOS>SUBSTRUCTURE
     1 ZZG         1 TEMP              0 ****  ****    0 ROOT
