@<TRIPOS>MOLECULE
ZZG
   60    63     1     0     0
SMALL
bcc


@<TRIPOS>ATOM
      1 C1         -0.6390    1.3140    1.8560 c3        1 ZZG      0.111700
      2 O2          0.6260    1.0350    1.2670 os        1 ZZG     -0.314400
      3 C3          1.6050    0.5660    2.1190 ca        1 ZZG      0.152100
      4 C4          1.5010    0.5860    3.5120 ca        1 ZZG     -0.242500
      5 C5          2.5750    0.1260    4.3070 ca        1 ZZG      0.197600
      6 N6          2.4890    0.2490    5.7120 nu        1 ZZG     -0.719300
      7 C7          2.7400   -0.8200    6.5960 ca        1 ZZG      0.663200
      8 C8          2.4300   -0.6070    7.9760 ca        1 ZZG     -0.344300
      9 C9          2.7180   -1.6290    8.8800 ca        1 ZZG      0.192100
     10 O10         2.4530   -1.5660   10.2400 os        1 ZZG     -0.233200
     11 C11         2.0760   -0.3260   10.7460 ca        1 ZZG     -0.007200
     12 C12         3.0300    0.6830   10.9250 ca        1 ZZG     -0.108000
     13 C13         2.6580    1.8510   11.5920 ca        1 ZZG     -0.177600
     14 C14         3.6290    2.9450   11.8030 c3        1 ZZG     -0.052800
     15 C15         1.3220    1.9610   12.0680 ca        1 ZZG      0.412600
     16 C16         0.9240    3.2080   12.7900 c3        1 ZZG     -0.149400
     17 N17         0.4000    0.9880   11.8930 nb        1 ZZG     -0.648000
     18 C18         0.7600   -0.1390   11.2360 cp        1 ZZG      0.361300
     19 C19        -0.2710   -1.1940   11.0490 cp        1 ZZG      0.356300
     20 C20        -0.9210   -1.7220   12.1840 ca        1 ZZG     -0.206300
     21 C21        -1.8790   -2.7230   12.0000 ca        1 ZZG     -0.098000
     22 C22        -2.1620   -3.1590   10.7070 ca        1 ZZG     -0.238300
     23 C23        -1.4680   -2.5650    9.6350 ca        1 ZZG      0.395200
     24 N24        -0.5420   -1.6030    9.7830 nb        1 ZZG     -0.651000
     25 C25         3.2960   -2.8330    8.4390 ca        1 ZZG     -0.307300
     26 C26         3.5560   -2.9410    7.0670 ca        1 ZZG      0.447200
     27 N27         3.3000   -1.9900    6.1530 nb        1 ZZG     -0.727000
     28 C28         3.7480   -0.3460    3.6880 ca        1 ZZG     -0.242500
     29 C29         3.8280   -0.3840    2.2920 ca        1 ZZG      0.152100
     30 O30         4.9470   -0.8070    1.6040 os        1 ZZG     -0.314400
     31 C31         5.9340   -1.4940    2.3690 c3        1 ZZG      0.111700
     32 C32         2.7580    0.0560    1.4870 ca        1 ZZG      0.024100
     33 O33         2.7710   -0.0990    0.1140 os        1 ZZG     -0.308900
     34 C34         3.6050    0.8450   -0.5600 c3        1 ZZG      0.114700
     35 H11C       -1.0320    0.4240    2.4040 h1        1 ZZG      0.045700
     36 H12C       -0.5670    2.1960    2.5380 h1        1 ZZG      0.045700
     37 H13C       -1.2860    1.5520    0.9730 h1        1 ZZG      0.045700
     38 H4          0.5840    0.9640    3.9860 ha        1 ZZG      0.149500
     39 H6          1.7320    0.8290    6.0180 hn        1 ZZG      0.422800
     40 H28         4.5960   -0.6890    4.2970 ha        1 ZZG      0.149500
     41 H8          1.9640    0.3250    8.3200 ha        1 ZZG      0.158000
     42 H25         3.5200   -3.6450    9.1400 ha        1 ZZG      0.160000
     43 H12         4.0530    0.5470   10.5430 ha        1 ZZG      0.156000
     44 H141        4.6260    2.6940   11.3640 hc        1 ZZG      0.050700
     45 H142        3.7630    3.1390   12.8980 hc        1 ZZG      0.050700
     46 H143        3.2600    3.8890   11.3270 hc        1 ZZG      0.050700
     47 H161        1.0730    4.0880   12.1140 hc        1 ZZG      0.056367
     48 H162       -0.1440    3.1880   13.1190 hc        1 ZZG      0.056367
     49 H163        1.5740    3.3360   13.6910 hc        1 ZZG      0.056367
     50 H20        -0.6780   -1.3470   13.1870 ha        1 ZZG      0.154000
     51 H21        -2.4010   -3.1560   12.8650 ha        1 ZZG      0.140000
     52 H22        -2.9060   -3.9440   10.5190 ha        1 ZZG      0.145000
     53 H23        -1.6640   -2.8770    8.5920 h4        1 ZZG      0.024100
     54 H26         4.0040   -3.8650    6.6570 h4        1 ZZG      0.024100
     55 H311        6.4440   -0.7860    3.0670 h1        1 ZZG      0.045700
     56 H312        6.6490   -1.8650    1.5920 h1        1 ZZG      0.045700
     57 H313        5.4820   -2.3450    2.9320 h1        1 ZZG      0.045700
     58 H341        4.6620    0.7440   -0.2130 h1        1 ZZG      0.040033
     59 H342        3.5080    0.5600   -1.6370 h1        1 ZZG      0.040033
     60 H343        3.2330    1.8840   -0.3880 h1        1 ZZG      0.040033
@<TRIPOS>BOND
     1    1    2 1   
     2    1   35 1   
     3    1   36 1   
     4    1   37 1   
     5    2    3 1   
     6    3    4 ar  
     7    3   32 ar  
     8    4    5 ar  
     9    4   38 1   
    10    5    6 1   
    11    5   28 ar  
    12    6    7 1   
    13    6   39 1   
    14    7    8 ar  
    15    7   27 ar  
    16    8    9 ar  
    17    8   41 1   
    18    9   10 1   
    19    9   25 ar  
    20   10   11 1   
    21   11   12 ar  
    22   11   18 ar  
    23   12   13 ar  
    24   12   43 1   
    25   13   14 1   
    26   13   15 ar  
    27   14   44 1   
    28   14   45 1   
    29   14   46 1   
    30   15   16 1   
    31   15   17 ar  
    32   16   47 1   
    33   16   48 1   
    34   16   49 1   
    35   17   18 ar  
    36   18   19 1   
    37   19   20 ar  
    38   19   24 ar  
    39   20   21 ar  
    40   20   50 1   
    41   21   22 ar  
    42   21   51 1   
    43   22   23 ar  
    44   22   52 1   
    45   23   24 ar  
    46   23   53 1   
    47   25   26 ar  
    48   25   42 1   
    49   26   27 ar  
    50   26   54 1   
    51   28   29 ar  
    52   28   40 1   
    53   29   30 1   
    54   29   32 ar  
    55   30   31 1   
    56   31   55 1   
    57   31   56 1   
    58   31   57 1   
    59   32   33 1   
    60   33   34 1   
    61   34   58 1   
    62   34   59 1   
    63   34   60 1   
@<TRIPOS>SUBSTRUCTURE
     1 ZZG         1 TEMP              0 ****  ****    0 ROOT
