@<TRIPOS>MOLECULE
ZZG
   60    53     1     0     0
SMALL
bcc


@<TRIPOS>ATOM
      1 C1         -2.9500   -2.2410   -4.5840 c3        1 ZZG     -0.074000
      2 O2         -2.7070   -0.9350   -5.0560 os        1 ZZG     -0.221000
      3 C3         -1.4040   -0.4720   -4.8030 c2        1 ZZG      0.091000
      4 C4         -1.0950    0.0910   -3.5740 c1        1 ZZG     -0.195000
      5 C5          0.1720    0.6050   -3.3450 c1        1 ZZG      0.084000
      6 N6          0.4580    1.2660   -2.1190 n3        1 ZZG     -0.237000
      7 C7          0.6830    0.5090   -0.9390 c2        1 ZZG      0.118000
      8 C8         -0.1480    0.6750    0.1590 c1        1 ZZG     -0.213000
      9 C9          0.1110    0.0020    1.3190 c1        1 ZZG      0.123000
     10 O10        -0.7890    0.0910    2.3990 os        1 ZZG     -0.125000
     11 C11        -0.1700    0.7600    3.4710 c2        1 ZZG      0.014000
     12 C12         0.4990    1.9290    3.2500 c2        1 ZZG     -0.118000
     13 C13         1.0320    2.6180    4.3010 c1        1 ZZG     -0.103000
     14 C14         1.7630    3.9200    4.0580 c2        1 ZZG     -0.177000
     15 C15         0.8930    2.1310    5.5920 c2        1 ZZG     -0.013000
     16 C16         1.4830    2.8960    6.7570 c3        1 ZZG     -0.173000
     17 N17         0.2250    0.9640    5.8110 n1        1 ZZG     -0.117000
     18 C18        -0.3080    0.2750    4.7640 c1        1 ZZG      0.036000
     19 C19        -1.0100   -0.8980    4.9920 c1        1 ZZG      0.027000
     20 C20        -0.3490   -2.0170    5.4740 c1        1 ZZG     -0.122500
     21 C21        -1.0530   -3.1440    5.7860 c1        1 ZZG     -0.122500
     22 C22        -2.4070   -3.1670    5.6230 c1        1 ZZG     -0.122500
     23 C23        -3.0660   -2.0480    5.1410 c1        1 ZZG     -0.122500
     24 N24        -2.3620   -0.9240    4.8290 n1        1 ZZG     -0.107000
     25 C25         1.1890   -0.8320    1.3960 c1        1 ZZG     -0.270000
     26 C26         2.0180   -0.9960    0.2960 c1        1 ZZG     -0.016000
     27 N27         1.7580   -0.3250   -0.8610 n2        1 ZZG     -0.204000
     28 C28         1.1300    0.5570   -4.3460 c1        1 ZZG     -0.188000
     29 C29         0.8210   -0.0050   -5.5760 c1        1 ZZG      0.075000
     30 O30         1.7810   -0.0210   -6.6010 os        1 ZZG     -0.226000
     31 C31         2.6490   -1.1310   -6.5530 c3        1 ZZG     -0.077000
     32 C32        -0.4460   -0.5190   -5.8040 c2        1 ZZG     -0.037000
     33 O33        -0.7440   -1.1330   -7.0330 os        1 ZZG     -0.228000
     34 C34        -1.2680   -0.2510   -8.0010 c3        1 ZZG     -0.077000
     35 H11C       -3.9010   -2.4580   -4.6960 h1        1 ZZG      0.085333
     36 H12C       -2.4070   -2.8800   -5.0950 h1        1 ZZG      0.085333
     37 H13C       -2.7110   -2.2950   -3.6340 h1        1 ZZG      0.085333
     38 H4         -1.7730    0.1340   -2.8720 ha        1 ZZG      0.163000
     39 H6          0.5180    2.1760   -2.0950 hn        1 ZZG      0.227000
     40 H28         2.0220    0.9200   -4.1860 ha        1 ZZG      0.155000
     41 H8         -0.9210    1.2700    0.1020 ha        1 ZZG      0.178000
     42 H25         1.3750   -1.3130    2.2250 ha        1 ZZG      0.157000
     43 H12         0.5570    2.2940    2.3480 ha        1 ZZG      0.155000
     44 H141        1.7620    4.1220    3.0990 ha        1 ZZG      0.089667
     45 H142        2.6870    3.8400    4.3740 ha        1 ZZG      0.089667
     46 H143        1.3130    4.6430    4.5450 ha        1 ZZG      0.089667
     47 H161        1.2230    2.4630    7.5970 hc        1 ZZG      0.095000
     48 H162        1.1470    3.8170    6.7460 hc        1 ZZG      0.095000
     49 H163        2.4600    2.9040    6.6810 hc        1 ZZG      0.095000
     50 H20         0.6200   -1.9990    5.5900 ha        1 ZZG      0.148500
     51 H21        -0.5880   -3.9320    6.1260 ha        1 ZZG      0.148500
     52 H22        -2.9110   -3.9720    5.8460 ha        1 ZZG      0.148500
     53 H23        -4.0340   -2.0650    5.0240 ha        1 ZZG      0.148500
     54 H26         2.7900   -1.5940    0.3520 ha        1 ZZG      0.162000
     55 H311        2.1230   -1.9590   -6.5780 h1        1 ZZG      0.085667
     56 H312        3.1730   -1.1000   -5.7250 h1        1 ZZG      0.085667
     57 H313        3.2550   -1.1050   -7.3250 h1        1 ZZG      0.085667
     58 H341       -2.0270   -0.6770   -8.4540 h1        1 ZZG      0.085333
     59 H342       -0.5720   -0.0360   -8.6590 h1        1 ZZG      0.085333
     60 H343       -1.5690    0.5740   -7.5620 h1        1 ZZG      0.085333
@<TRIPOS>BOND
     1    1    2 1   
     2    1   35 1   
     3    1   36 1   
     4    1   37 1   
     5    2    3 1   
     6    3    4 1   
     7    3   32 1   
     8    4   38 1   
     9    5    6 1   
    10    5   28 1   
    11    6    7 1   
    12    6   39 1   
    13    7    8 1   
    14    7   27 1   
    15    8   41 1   
    16    9   10 1   
    17    9   25 1   
    18   10   11 1   
    19   11   12 1   
    20   11   18 1   
    21   12   13 1   
    22   12   43 1   
    23   13   15 1   
    24   14   44 1   
    25   14   45 1   
    26   14   46 1   
    27   15   16 1   
    28   15   17 1   
    29   16   47 1   
    30   16   48 1   
    31   16   49 1   
    32   19   24 1   
    33   20   21 1   
    34   20   50 1   
    35   21   51 1   
    36   22   23 1   
    37   22   52 1   
    38   23   53 1   
    39   25   42 1   
    40   26   27 1   
    41   26   54 1   
    42   28   40 1   
    43   29   30 1   
    44   29   32 1   
    45   30   31 1   
    46   31   55 1   
    47   31   56 1   
    48   31   57 1   
    49   32   33 1   
    50   33   34 1   
    51   34   58 1   
    52   34   59 1   
    53   34   60 1   
@<TRIPOS>SUBSTRUCTURE
     1 ZZG         1 TEMP              0 ****  ****    0 ROOT
