@<TRIPOS>MOLECULE
ZZH
   44    46     1     0     0
SMALL
bcc


@<TRIPOS>ATOM
      1 CAK        -4.5610   -2.6270    0.8400 ca        1 ZZH     -0.131500
      2 CAG        -5.1480   -3.7080    0.1850 ca        1 ZZH     -0.141500
      3 CAD        -5.2520   -3.7110   -1.2050 ca        1 ZZH     -0.154000
      4 CAH        -4.7660   -2.6270   -1.9360 ca        1 ZZH     -0.141500
      5 CAL        -4.1790   -1.5430   -1.2860 ca        1 ZZH     -0.131500
      6 CAW        -4.0730   -1.5350    0.1120 ca        1 ZZH     -0.055300
      7 CAR        -3.4800   -0.3720    0.8260 c3        1 ZZH     -0.042100
      8 CAY        -2.2780    0.2190    0.0920 c3        1 ZZH      0.011100
      9 CAT        -2.7240    1.3680   -0.8620 c         1 ZZH      0.898600
     10 OAB        -3.3580    2.3440   -0.3900 o         1 ZZH     -0.820300
     11 OAA        -2.4400    1.2020   -2.0840 o         1 ZZH     -0.820300
     12 OAS        -1.4070    0.6820    1.1490 os        1 ZZH     -0.324900
     13 CAX        -0.1120    0.9650    0.8040 ca        1 ZZH      0.168100
     14 CAP         0.7660    1.1520    1.8930 ca        1 ZZH     -0.191000
     15 CAN         2.1030    1.4420    1.6550 ca        1 ZZH     -0.099000
     16 CAO         0.3660    1.0830   -0.5120 ca        1 ZZH     -0.191000
     17 CAM         1.7090    1.3720   -0.7250 ca        1 ZZH     -0.099000
     18 CAV         2.5920    1.5480    0.3480 ca        1 ZZH     -0.155300
     19 CAQ         4.0220    1.8790    0.1040 c3        1 ZZH      0.020200
     20 CAU         4.9250    0.6910    0.0730 ca        1 ZZH     -0.061300
     21 CAI         4.5160   -0.5100   -0.5190 ca        1 ZZH     -0.127500
     22 CAE         5.3810   -1.6010   -0.5710 ca        1 ZZH     -0.134000
     23 CAC         6.6650   -1.5040   -0.0330 ca        1 ZZH     -0.145000
     24 CAF         7.0780   -0.3120    0.5600 ca        1 ZZH     -0.134000
     25 CAJ         6.2130    0.7800    0.6130 ca        1 ZZH     -0.127500
     26 HAK        -4.4800   -2.6300    1.9370 ha        1 ZZH      0.156500
     27 HAG        -5.5280   -4.5600    0.7660 ha        1 ZZH      0.116000
     28 HAD        -5.7130   -4.5630   -1.7220 ha        1 ZZH      0.110000
     29 HAH        -4.8450   -2.6240   -3.0330 ha        1 ZZH      0.116000
     30 HAL        -3.7890   -0.6810   -1.8640 ha        1 ZZH      0.156500
     31 HAR        -4.2560    0.4380    0.9270 hc        1 ZZH      0.066200
     32 HARA       -3.1710   -0.6720    1.8640 hc        1 ZZH      0.066200
     33 HAY        -1.7380   -0.5720   -0.4960 h1        1 ZZH      0.042700
     34 HAP         0.3760    1.0740    2.9160 ha        1 ZZH      0.166500
     35 HAN         2.7840    1.5900    2.5050 ha        1 ZZH      0.116500
     36 HAO        -0.3310    0.9850   -1.3670 ha        1 ZZH      0.166500
     37 HAM         2.0790    1.4730   -1.7560 ha        1 ZZH      0.116500
     38 HAQ         4.1200    2.4110   -0.8840 hc        1 ZZH      0.046700
     39 HAQA        4.3760    2.5940    0.8970 hc        1 ZZH      0.046700
     40 HAI         3.4970   -0.5850   -0.9340 ha        1 ZZH      0.138000
     41 HAE         5.0490   -2.5410   -1.0340 ha        1 ZZH      0.122000
     42 HAC         7.3460   -2.3650   -0.0730 ha        1 ZZH      0.119000
     43 HAF         8.0880   -0.2320    0.9880 ha        1 ZZH      0.122000
     44 HAJ         6.5440    1.7170    1.0850 ha        1 ZZH      0.138000
@<TRIPOS>BOND
     1    1    2 ar  
     2    1    6 ar  
     3    1   26 1   
     4    2    3 ar  
     5    2   27 1   
     6    3    4 ar  
     7    3   28 1   
     8    4    5 ar  
     9    4   29 1   
    10    5    6 ar  
    11    5   30 1   
    12    6    7 1   
    13    7    8 1   
    14    7   31 1   
    15    7   32 1   
    16    8    9 1   
    17    8   12 1   
    18    8   33 1   
    19    9   10 1   
    20    9   11 1   
    21   12   13 1   
    22   13   14 ar  
    23   13   16 ar  
    24   14   15 ar  
    25   14   34 1   
    26   15   18 ar  
    27   15   35 1   
    28   16   17 ar  
    29   16   36 1   
    30   17   18 ar  
    31   17   37 1   
    32   18   19 1   
    33   19   20 1   
    34   19   38 1   
    35   19   39 1   
    36   20   21 ar  
    37   20   25 ar  
    38   21   22 ar  
    39   21   40 1   
    40   22   23 ar  
    41   22   41 1   
    42   23   24 ar  
    43   23   42 1   
    44   24   25 ar  
    45   24   43 1   
    46   25   44 1   
@<TRIPOS>SUBSTRUCTURE
     1 ZZH         1 TEMP              0 ****  ****    0 ROOT
