@<TRIPOS>MOLECULE
ZZH
   44    46     1     0     0
SMALL
bcc


@<TRIPOS>ATOM
      1 CAK         0.4880    1.2990    0.4900 ca        1 ZZH     -0.131500
      2 CAG         1.3650    2.0410    1.2810 ca        1 ZZH     -0.141500
      3 CAD         1.2320    2.0330    2.6680 ca        1 ZZH     -0.154000
      4 CAH         0.2180    1.2810    3.2610 ca        1 ZZH     -0.141500
      5 CAL        -0.6620    0.5390    2.4760 ca        1 ZZH     -0.131500
      6 CAW        -0.5330    0.5430    1.0790 ca        1 ZZH     -0.055300
      7 CAR        -1.4820   -0.2160    0.2230 c3        1 ZZH     -0.042100
      8 CAY        -1.8660   -1.5670    0.8230 c3        1 ZZH      0.011100
      9 CAT        -3.1580   -1.4420    1.6860 c         1 ZZH      0.898600
     10 OAB        -4.2030   -0.9840    1.1620 o         1 ZZH     -0.820300
     11 OAA        -3.0360   -1.7810    2.9000 o         1 ZZH     -0.820300
     12 OAS        -2.0480   -2.4290   -0.3240 os        1 ZZH     -0.324900
     13 CAX        -2.0780   -3.7770   -0.0860 ca        1 ZZH      0.168100
     14 CAP        -1.9860   -4.5860   -1.2380 ca        1 ZZH     -0.191000
     15 CAN        -2.0070   -5.9690   -1.1100 ca        1 ZZH     -0.099000
     16 CAO        -2.2010   -4.3710    1.1810 ca        1 ZZH     -0.191000
     17 CAM        -2.2170   -5.7570    1.2850 ca        1 ZZH     -0.099000
     18 CAV        -2.1140   -6.5700    0.1490 ca        1 ZZH     -0.155300
     19 CAQ        -2.1550   -8.0530    0.2740 c3        1 ZZH      0.020200
     20 CAU        -0.8100   -8.6930    0.3660 ca        1 ZZH     -0.061300
     21 CAI         0.2240   -8.0950    1.0970 ca        1 ZZH     -0.127500
     22 CAE         1.4650   -8.7200    1.2030 ca        1 ZZH     -0.134000
     23 CAC         1.6860   -9.9500    0.5810 ca        1 ZZH     -0.145000
     24 CAF         0.6610  -10.5500   -0.1490 ca        1 ZZH     -0.134000
     25 CAJ        -0.5800   -9.9250   -0.2570 ca        1 ZZH     -0.127500
     26 HAK         0.5990    1.3070   -0.6040 ha        1 ZZH      0.156500
     27 HAG         2.1630    2.6310    0.8080 ha        1 ZZH      0.116000
     28 HAD         1.9230    2.6170    3.2910 ha        1 ZZH      0.110000
     29 HAH         0.1090    1.2710    4.3560 ha        1 ZZH      0.116000
     30 HAL        -1.4670   -0.0630    2.9440 ha        1 ZZH      0.156500
     31 HAR        -2.4260    0.3840    0.0910 hc        1 ZZH      0.066200
     32 HARA       -1.0400   -0.3740   -0.7980 hc        1 ZZH      0.066200
     33 HAY        -1.0300   -1.9800    1.4510 h1        1 ZZH      0.042700
     34 HAP        -1.9080   -4.1090   -2.2240 ha        1 ZZH      0.166500
     35 HAN        -1.9370   -6.5980   -2.0090 ha        1 ZZH      0.116500
     36 HAO        -2.3230   -3.7390    2.0820 ha        1 ZZH      0.166500
     37 HAM        -2.3220   -6.2200    2.2780 ha        1 ZZH      0.116500
     38 HAQ        -2.7120   -8.4820   -0.6040 hc        1 ZZH      0.046700
     39 HAQA       -2.7350   -8.3340    1.1980 hc        1 ZZH      0.046700
     40 HAI         0.0480   -7.1190    1.5780 ha        1 ZZH      0.138000
     41 HAE         2.2710   -8.2410    1.7760 ha        1 ZZH      0.122000
     42 HAC         2.6650  -10.4410    0.6640 ha        1 ZZH      0.119000
     43 HAF         0.8320  -11.5170   -0.6430 ha        1 ZZH      0.122000
     44 HAJ        -1.3840  -10.4020   -0.8370 ha        1 ZZH      0.138000
@<TRIPOS>BOND
     1    1    2 ar  
     2    1    6 ar  
     3    1   26 1   
     4    2    3 ar  
     5    2   27 1   
     6    3    4 ar  
     7    3   28 1   
     8    4    5 ar  
     9    4   29 1   
    10    5    6 ar  
    11    5   30 1   
    12    6    7 1   
    13    7    8 1   
    14    7   31 1   
    15    7   32 1   
    16    8    9 1   
    17    8   12 1   
    18    8   33 1   
    19    9   10 1   
    20    9   11 1   
    21   12   13 1   
    22   13   14 ar  
    23   13   16 ar  
    24   14   15 ar  
    25   14   34 1   
    26   15   18 ar  
    27   15   35 1   
    28   16   17 ar  
    29   16   36 1   
    30   17   18 ar  
    31   17   37 1   
    32   18   19 1   
    33   19   20 1   
    34   19   38 1   
    35   19   39 1   
    36   20   21 ar  
    37   20   25 ar  
    38   21   22 ar  
    39   21   40 1   
    40   22   23 ar  
    41   22   41 1   
    42   23   24 ar  
    43   23   42 1   
    44   24   25 ar  
    45   24   43 1   
    46   25   44 1   
@<TRIPOS>SUBSTRUCTURE
     1 ZZH         1 TEMP              0 ****  ****    0 ROOT
