@<TRIPOS>MOLECULE
ZZH
   44    39     1     0     0
SMALL
bcc


@<TRIPOS>ATOM
      1 CAK         3.1350    3.9470    0.9090 c1        1 ZZH     -0.142000
      2 CAG         4.3790    4.4410    0.5500 c1        1 ZZH     -0.137833
      3 CAD         5.5090    4.0500    1.2500 c1        1 ZZH     -0.137833
      4 CAH         5.3960    3.1640    2.3100 c1        1 ZZH     -0.137833
      5 CAL         4.1530    2.6690    2.6690 c1        1 ZZH     -0.137833
      6 CAW         3.0220    3.0610    1.9690 c1        1 ZZH     -0.046000
      7 CAR         1.6650    2.5770    2.4010 c3        1 ZZH     -0.133000
      8 CAY         1.3790    1.2420    1.7590 c3        1 ZZH     -0.041000
      9 CAT         2.0370    0.1430    2.5660 c2        1 ZZH      0.326000
     10 OAB         2.9330   -0.5710    2.0440 o         1 ZZH     -0.559000
     11 OAA         1.6980   -0.0490    3.7640 o         1 ZZH     -0.559000
     12 OAS        -0.0110    1.0280    1.7200 os        1 ZZH     -0.214000
     13 CAX        -0.4040   -0.0060    0.8540 c2        1 ZZH      0.112000
     14 CAP        -0.3620    0.1870   -0.5180 c2        1 ZZH     -0.188000
     15 CAN        -0.8080   -0.8090   -1.3720 c1        1 ZZH     -0.105000
     16 CAO        -0.8920   -1.1940    1.3720 c1        1 ZZH     -0.184000
     17 CAM        -1.3380   -2.1910    0.5180 c1        1 ZZH     -0.106000
     18 CAV        -1.2960   -1.9990   -0.8540 c1        1 ZZH     -0.142000
     19 CAQ        -1.6770   -3.1300   -1.7880 c3        1 ZZH     -0.074000
     20 CAU        -3.0930   -2.9260   -2.2760 c2        1 ZZH     -0.054000
     21 CAI        -4.1030   -3.7670   -1.8370 c2        1 ZZH     -0.139000
     22 CAE        -5.3820   -3.6450   -2.3580 c1        1 ZZH     -0.137000
     23 CAC        -5.6500   -2.6820   -3.3180 c1        1 ZZH     -0.137833
     24 CAF        -4.6400   -1.8410   -3.7570 c1        1 ZZH     -0.137833
     25 CAJ        -3.3620   -1.9630   -3.2370 c1        1 ZZH     -0.116000
     26 HAK         2.3370    4.2230    0.4150 ha        1 ZZH      0.120000
     27 HAG         4.4580    5.0650   -0.1960 ha        1 ZZH      0.129500
     28 HAD         6.3890    4.3880    0.9870 ha        1 ZZH      0.129500
     29 HAH         6.1910    2.8880    2.8020 ha        1 ZZH      0.129500
     30 HAL         4.0730    2.0440    3.4180 ha        1 ZZH      0.129500
     31 HAR         1.6480    2.4800    3.3740 hc        1 ZZH      0.103000
     32 HARA        0.9860    3.2220    2.1260 hc        1 ZZH      0.103000
     33 HAY         1.7360    1.2360    0.8480 h1        1 ZZH      0.082000
     34 HAP        -0.0180    1.0240   -0.8820 ha        1 ZZH      0.211000
     35 HAN        -0.7780   -0.6740   -2.3370 ha        1 ZZH      0.120000
     36 HAO        -0.9220   -1.3300    2.3370 ha        1 ZZH      0.133000
     37 HAM        -1.6660   -3.0350    0.8830 ha        1 ZZH      0.113000
     38 HAQ        -1.6160   -3.9820   -1.3110 hc        1 ZZH      0.086000
     39 HAQA       -1.0680   -3.1410   -2.5520 hc        1 ZZH      0.086000
     40 HAI        -3.9100   -4.4580   -1.1780 ha        1 ZZH      0.124000
     41 HAE        -6.0890   -4.2470   -2.0610 ha        1 ZZH      0.119000
     42 HAC        -6.5400   -2.6220   -3.7130 ha        1 ZZH      0.129500
     43 HAF        -4.8240   -1.1760   -4.4450 ha        1 ZZH      0.129500
     44 HAJ        -2.6740   -1.6440   -3.8530 ha        1 ZZH      0.152000
@<TRIPOS>BOND
     1    1    6 1   
     2    1   26 1   
     3    2    3 1   
     4    2   27 1   
     5    3   28 1   
     6    4    5 1   
     7    4   29 1   
     8    5   30 1   
     9    6    7 1   
    10    7    8 1   
    11    7   31 1   
    12    7   32 1   
    13    8    9 1   
    14    8   12 1   
    15    8   33 1   
    16    9   10 1   
    17    9   11 1   
    18   12   13 1   
    19   13   14 1   
    20   13   16 1   
    21   14   15 1   
    22   14   34 1   
    23   15   35 1   
    24   16   36 1   
    25   17   18 1   
    26   17   37 1   
    27   18   19 1   
    28   19   20 1   
    29   19   38 1   
    30   19   39 1   
    31   20   21 1   
    32   20   25 1   
    33   21   22 1   
    34   21   40 1   
    35   22   41 1   
    36   23   24 1   
    37   23   42 1   
    38   24   43 1   
    39   25   44 1   
@<TRIPOS>SUBSTRUCTURE
     1 ZZH         1 TEMP              0 ****  ****    0 ROOT
