@<TRIPOS>MOLECULE
ZZI
   37    36     1     0     0
SMALL
bcc


@<TRIPOS>ATOM
      1 CAA         0.0370    0.1720   -0.2580 c3        1 ZZI     -0.100600
      2 CAB         1.5280    0.4070   -0.2750 c3        1 ZZI     -0.104900
      3 CAC         2.1350   -0.1290    1.0160 c3        1 ZZI      0.108300
      4 NAH         3.6270    0.0050    1.0720 n4        1 ZZI     -0.594200
      5 CAG         4.0560    1.4020    1.4190 c3        1 ZZI      0.108300
      6 CAF         3.9860    1.7340    2.9050 c3        1 ZZI     -0.104900
      7 CAE         4.3700    3.1780    3.1120 c3        1 ZZI     -0.100600
      8 CAI         4.2500   -0.9870    2.0320 c         1 ZZI      0.520100
      9 OAD         3.5490   -1.4710    2.9020 o         1 ZZI     -0.397100
     10 CAJ         5.7240   -1.3190    1.7420 c3        1 ZZI      0.089100
     11 OAN         5.7460   -2.3020    0.7420 oh        1 ZZI     -0.569800
     12 CAK         6.4040   -1.7310    3.0600 c3        1 ZZI      0.118100
     13 OAO         6.3120   -0.5930    3.9000 oh        1 ZZI     -0.617800
     14 CAL         7.8670   -2.1140    2.8040 c3        1 ZZI      0.099400
     15 OAM         8.3910   -2.4190    4.0830 oh        1 ZZI     -0.603800
     16 HAA1       -0.4400    0.6930    0.6070 hc        1 ZZI      0.059700
     17 HAA2       -0.4140    0.5680   -1.2010 hc        1 ZZI      0.059700
     18 HAA3       -0.1950   -0.9190   -0.1890 hc        1 ZZI      0.059700
     19 HAB1        1.9780   -0.1110   -1.1640 hc        1 ZZI      0.069700
     20 HAB2        1.7310    1.5060   -0.3820 hc        1 ZZI      0.069700
     21 HAC1        1.8850   -1.2260    1.1190 hx        1 ZZI      0.103700
     22 HAC2        1.7030    0.4100    1.9070 hx        1 ZZI      0.103700
     23 HAG1        5.1200    1.5250    1.0620 hx        1 ZZI      0.103700
     24 HAG2        3.4000    2.1120    0.8380 hx        1 ZZI      0.103700
     25 HAF1        4.6870    1.0690    3.4830 hc        1 ZZI      0.069700
     26 HAF2        2.9500    1.5600    3.3000 hc        1 ZZI      0.069700
     27 HAE1        5.4080    3.3730    2.7460 hc        1 ZZI      0.059700
     28 HAE2        3.6690    3.8620    2.5740 hc        1 ZZI      0.059700
     29 HAE3        4.3310    3.4210    4.2020 hc        1 ZZI      0.059700
     30 HAJ         6.2550   -0.4230    1.3060 h1        1 ZZI      0.115700
     31 HAN         5.7140   -3.1780    1.1580 ho        1 ZZI      0.444000
     32 HAK         5.8540   -2.5940    3.5320 h1        1 ZZI      0.084700
     33 HAO         6.8660   -0.7700    4.6760 ho        1 ZZI      0.462000
     34 HAL1        8.4240   -1.2530    2.3470 h1        1 ZZI      0.050200
     35 HAL2        7.9210   -3.0050    2.1250 h1        1 ZZI      0.050200
     36 HAM         9.3200   -2.6540    3.9630 ho        1 ZZI      0.436000
     37 HAH1        3.9990   -0.2140    0.1370 hn        1 ZZI      0.457800
@<TRIPOS>BOND
     1    1    2 1   
     2    1   16 1   
     3    1   17 1   
     4    1   18 1   
     5    2    3 1   
     6    2   19 1   
     7    2   20 1   
     8    3    4 1   
     9    3   21 1   
    10    3   22 1   
    11    4    5 1   
    12    4    8 1   
    13    4   37 1   
    14    5    6 1   
    15    5   23 1   
    16    5   24 1   
    17    6    7 1   
    18    6   25 1   
    19    6   26 1   
    20    7   27 1   
    21    7   28 1   
    22    7   29 1   
    23    8    9 2   
    24    8   10 1   
    25   10   11 1   
    26   10   12 1   
    27   10   30 1   
    28   11   31 1   
    29   12   13 1   
    30   12   14 1   
    31   12   32 1   
    32   13   33 1   
    33   14   15 1   
    34   14   34 1   
    35   14   35 1   
    36   15   36 1   
@<TRIPOS>SUBSTRUCTURE
     1 ZZI         1 TEMP              0 ****  ****    0 ROOT
