@<TRIPOS>MOLECULE
ZZI
   37    36     1     0     0
SMALL
bcc


@<TRIPOS>ATOM
      1 CAA         0.1000    0.0600   -0.3910 c3        1 ZZI     -0.100600
      2 CAB         1.5820    0.3450   -0.3570 c3        1 ZZI     -0.104900
      3 CAC         2.1650   -0.1880    0.9470 c3        1 ZZI      0.108300
      4 NAH         3.6490   -0.0060    1.0530 nx        1 ZZI     -0.594200
      5 CAG         4.0210    1.4000    1.4290 c3        1 ZZI      0.108300
      6 CAF         3.8940    1.7110    2.9160 c3        1 ZZI     -0.104900
      7 CAE         4.2240    3.1640    3.1510 c3        1 ZZI     -0.100600
      8 CAI         4.2740   -0.9890    2.0200 c         1 ZZI      0.520100
      9 OAD         3.5610   -1.5070    2.8620 o         1 ZZI     -0.397100
     10 CAJ         5.7670   -1.2690    1.7750 c3        1 ZZI      0.089100
     11 OAN         5.8530   -2.2360    0.7620 oh        1 ZZI     -0.569800
     12 CAK         6.4170   -1.6770    3.1080 c3        1 ZZI      0.118100
     13 OAO         6.2600   -0.5550    3.9600 oh        1 ZZI     -0.617800
     14 CAL         7.8990   -2.0090    2.8950 c3        1 ZZI      0.099400
     15 OAM         8.3910   -2.3150    4.1860 oh        1 ZZI     -0.603800
     16 HAA1       -0.4210    0.5550    0.4640 hc        1 ZZI      0.059700
     17 HAA2       -0.3340    0.4540   -1.3430 hc        1 ZZI      0.059700
     18 HAA3       -0.0980   -1.0380   -0.3410 hc        1 ZZI      0.059700
     19 HAB1        2.0780   -0.1470   -1.2360 hc        1 ZZI      0.069700
     20 HAB2        1.7520    1.4500   -0.4440 hc        1 ZZI      0.069700
     21 HAC1        1.6880    0.3260    1.8300 hx        1 ZZI      0.103700
     22 HAC2        1.9480   -1.2930    1.0290 hx        1 ZZI      0.103700
     23 HAG1        3.3600    2.0950    0.8350 hx        1 ZZI      0.103700
     24 HAG2        5.0910    1.5620    1.1070 hx        1 ZZI      0.103700
     25 HAF1        4.5980    1.0620    3.5080 hc        1 ZZI      0.069700
     26 HAF2        2.8530    1.4970    3.2760 hc        1 ZZI      0.069700
     27 HAE1        3.5170    3.8310    2.6000 hc        1 ZZI      0.059700
     28 HAE2        4.1430    3.3910    4.2430 hc        1 ZZI      0.059700
     29 HAE3        5.2650    3.3970    2.8210 hc        1 ZZI      0.059700
     30 HAJ         6.2810   -0.3490    1.3690 h1        1 ZZI      0.115700
     31 HAN         5.8380   -3.1190    1.1650 ho        1 ZZI      0.444000
     32 HAK         5.8810   -2.5650    3.5510 h1        1 ZZI      0.084700
     33 HAO         6.7940   -0.7250    4.7520 ho        1 ZZI      0.462000
     34 HAL1        8.4420   -1.1240    2.4690 h1        1 ZZI      0.050200
     35 HAL2        8.0050   -2.8880    2.2060 h1        1 ZZI      0.050200
     36 HAM         9.3310   -2.5180    4.0940 ho        1 ZZI      0.436000
     37 HAH1        4.0580   -0.2020    0.1270 hn        1 ZZI      0.457800
@<TRIPOS>BOND
     1    1    2 1   
     2    1   16 1   
     3    1   17 1   
     4    1   18 1   
     5    2    3 1   
     6    2   19 1   
     7    2   20 1   
     8    3    4 1   
     9    3   21 1   
    10    3   22 1   
    11    4    5 1   
    12    4    8 1   
    13    4   37 1   
    14    5    6 1   
    15    5   23 1   
    16    5   24 1   
    17    6    7 1   
    18    6   25 1   
    19    6   26 1   
    20    7   27 1   
    21    7   28 1   
    22    7   29 1   
    23    8    9 2   
    24    8   10 1   
    25   10   11 1   
    26   10   12 1   
    27   10   30 1   
    28   11   31 1   
    29   12   13 1   
    30   12   14 1   
    31   12   32 1   
    32   13   33 1   
    33   14   15 1   
    34   14   34 1   
    35   14   35 1   
    36   15   36 1   
@<TRIPOS>SUBSTRUCTURE
     1 ZZI         1 TEMP              0 ****  ****    0 ROOT
