@<TRIPOS>MOLECULE
ZZI
   36    35     1     0     0
SMALL
bcc


@<TRIPOS>ATOM
      1 CAA         4.8450   -1.1240   -0.5360 c3        1 ZZI     -0.092100
      2 CAB         3.6360   -0.7850    0.2970 c3        1 ZZI     -0.107400
      3 CAC         2.5000   -0.2960   -0.6030 c3        1 ZZI      0.093500
      4 NAH         1.2920    0.0840    0.1030 n         1 ZZI     -0.452800
      5 CAG         1.2710    1.3960    0.7030 c3        1 ZZI      0.093500
      6 CAF         0.6940    2.5040   -0.1790 c3        1 ZZI     -0.107400
      7 CAE         0.7430    3.8230    0.5470 c3        1 ZZI     -0.092100
      8 CAI         0.2310   -0.7920    0.1520 c         1 ZZI      0.641100
      9 OAD         0.3360   -1.9640   -0.2790 o         1 ZZI     -0.631100
     10 CAJ        -1.1240   -0.3920    0.7600 c3        1 ZZI      0.086100
     11 OAN        -1.4710   -1.3440    1.7450 oh        1 ZZI     -0.590800
     12 CAK        -2.1820   -0.3660   -0.3610 c3        1 ZZI      0.115100
     13 OAO        -1.9560    0.8150   -1.1140 oh        1 ZZI     -0.606800
     14 CAL        -3.5900   -0.3520    0.2450 c3        1 ZZI      0.096400
     15 OAM        -4.4870   -0.2980   -0.8530 oh        1 ZZI     -0.614800
     16 HAA1        5.6750   -1.4830    0.1190 hc        1 ZZI      0.034700
     17 HAA2        4.6040   -1.9300   -1.2720 hc        1 ZZI      0.034700
     18 HAA3        5.2030   -0.2290   -1.1000 hc        1 ZZI      0.034700
     19 HAB1        3.3010   -1.6910    0.8680 hc        1 ZZI      0.054450
     20 HAB2        3.9040    0.0050    1.0470 hc        1 ZZI      0.054450
     21 HAC1        2.8560    0.5990   -1.1900 h1        1 ZZI      0.054450
     22 HAC2        2.2460   -1.1180   -1.3350 h1        1 ZZI      0.054450
     23 HAG1        0.6940    1.3570    1.6700 h1        1 ZZI      0.054450
     24 HAG2        2.3350    1.6690    0.9680 h1        1 ZZI      0.054450
     25 HAF1        1.2810    2.5740   -1.1320 hc        1 ZZI      0.054450
     26 HAF2       -0.3660    2.2570   -0.4580 hc        1 ZZI      0.054450
     27 HAE1        0.1440    3.7800    1.4900 hc        1 ZZI      0.034700
     28 HAE2        1.7940    4.0940    0.8120 hc        1 ZZI      0.034700
     29 HAE3        0.3230    4.6310   -0.0990 hc        1 ZZI      0.034700
     30 HAJ        -1.1130    0.5960    1.2960 h1        1 ZZI      0.100700
     31 HAN        -1.3570   -2.2240    1.3550 ho        1 ZZI      0.426000
     32 HAK        -2.0640   -1.2690   -1.0240 h1        1 ZZI      0.071700
     33 HAO        -2.6710    0.8650   -1.7630 ho        1 ZZI      0.428000
     34 HAL1       -3.7580   -1.2820    0.8480 h1        1 ZZI      0.044200
     35 HAL2       -3.7240    0.5500    0.8980 h1        1 ZZI      0.044200
     36 HAM        -5.3780   -0.2880   -0.4840 ho        1 ZZI      0.411000
@<TRIPOS>BOND
     1    1    2 1   
     2    1   16 1   
     3    1   17 1   
     4    1   18 1   
     5    2    3 1   
     6    2   19 1   
     7    2   20 1   
     8    3    4 1   
     9    3   21 1   
    10    3   22 1   
    11    4    5 1   
    12    4    8 1   
    13    5    6 1   
    14    5   23 1   
    15    5   24 1   
    16    6    7 1   
    17    6   25 1   
    18    6   26 1   
    19    7   27 1   
    20    7   28 1   
    21    7   29 1   
    22    8    9 2   
    23    8   10 1   
    24   10   11 1   
    25   10   12 1   
    26   10   30 1   
    27   11   31 1   
    28   12   13 1   
    29   12   14 1   
    30   12   32 1   
    31   13   33 1   
    32   14   15 1   
    33   14   34 1   
    34   14   35 1   
    35   15   36 1   
@<TRIPOS>SUBSTRUCTURE
     1 ZZI         1 TEMP              0 ****  ****    0 ROOT
