@<TRIPOS>MOLECULE
ZZJ
   17    16     1     0     0
SMALL
bcc


@<TRIPOS>ATOM
      1 N           1.7050    0.0400   -0.2970 n3        1 ZZJ     -0.801200
      2 CA          0.4770    0.7570    0.0000 c3        1 ZZJ      0.113500
      3 C          -0.7370   -0.1660    0.2640 c         1 ZZJ      0.615100
      4 O          -0.7710   -1.3450   -0.1470 o         1 ZZJ     -0.621100
      5 CB          0.0850    1.7090   -1.1310 c3        1 ZZJ     -0.092100
      6 CM          2.2290   -0.7190    0.8100 c3        1 ZZJ      0.143100
      7 NXT        -1.7940    0.3450    0.9710 n         1 ZZJ     -0.673000
      8 H           1.5620   -0.5550   -1.0940 hn        1 ZZJ      0.375800
      9 HA          0.6710    1.3660    0.9330 h1        1 ZZJ      0.067700
     10 HM1C        3.1670   -1.2310    0.4690 h1        1 ZZJ      0.037367
     11 HM2C        2.4850   -0.0220    1.6500 h1        1 ZZJ      0.037367
     12 HM3C        1.5150   -1.4980    1.1970 h1        1 ZZJ      0.037367
     13 HB1C        0.9310    2.3970   -1.3690 hc        1 ZZJ      0.047700
     14 HB2C       -0.1840    1.1410   -2.0540 hc        1 ZZJ      0.047700
     15 HB3C       -0.7940    2.3190   -0.8140 hc        1 ZZJ      0.047700
     16 HXT1       -1.8040    1.2880    1.2620 hn        1 ZZJ      0.310000
     17 HXT2       -2.5970   -0.2120    1.1270 hn        1 ZZJ      0.310000
@<TRIPOS>BOND
     1    1    2 1   
     2    1    6 1   
     3    1    8 1   
     4    2    3 1   
     5    2    5 1   
     6    2    9 1   
     7    3    4 2   
     8    3    7 1   
     9    5   13 1   
    10    5   14 1   
    11    5   15 1   
    12    6   10 1   
    13    6   11 1   
    14    6   12 1   
    15    7   16 1   
    16    7   17 1   
@<TRIPOS>SUBSTRUCTURE
     1 ZZJ         1 TEMP              0 ****  ****    0 ROOT
