@<TRIPOS>MOLECULE
ZZK
   40    43     1     0     0
SMALL
bcc


@<TRIPOS>ATOM
      1 N01         6.3880    2.3440   -0.6260 n         1 ZZK     -0.673000
      2 C02         6.1680    1.0400   -0.2500 c         1 ZZK      0.669700
      3 O03         7.1360    0.3020    0.0260 o         1 ZZK     -0.608100
      4 C04         4.7610    0.5540   -0.1780 ca        1 ZZK     -0.141600
      5 C05         4.4320   -0.3660    0.8240 ca        1 ZZK     -0.093000
      6 C06         3.1330   -0.8610    0.9210 ca        1 ZZK     -0.133500
      7 C07         2.1490   -0.4500    0.0110 cp        1 ZZK     -0.011000
      8 C08         0.7800   -0.9480    0.1020 cp        1 ZZK     -0.237300
      9 C09        -0.2780   -0.0420    0.2080 ca        1 ZZK     -0.029000
     10 C10        -1.5980   -0.4970    0.2910 cp        1 ZZK     -0.209300
     11 C11        -2.7170    0.4160    0.4240 cp        1 ZZK      0.008000
     12 C12        -2.5770    1.6660    1.0760 ca        1 ZZK     -0.132000
     13 C13        -3.6310    2.5610    1.2090 ca        1 ZZK     -0.127000
     14 C14        -4.9140    2.2810    0.7040 ca        1 ZZK     -0.116000
     15 C15        -5.0620    1.0630    0.0740 ca        1 ZZK      0.061100
     16 O16        -6.2050    0.5300   -0.5120 os        1 ZZK     -0.333900
     17 C17        -5.8410   -0.7660   -1.0370 c3        1 ZZK      0.321200
     18 O18        -4.4460   -0.9890   -0.7320 os        1 ZZK     -0.337900
     19 C19        -3.9890    0.1430   -0.0620 ca        1 ZZK      0.054100
     20 C20        -1.8000   -1.8980    0.2350 ca        1 ZZK      0.473200
     21 N21        -0.8250   -2.8010    0.1240 nb        1 ZZK     -0.729000
     22 C22         0.4770   -2.3530    0.0730 ca        1 ZZK      0.669200
     23 N23         1.5020   -3.2920    0.0440 nh        1 ZZK     -0.939500
     24 C24         2.4870    0.4710   -0.9920 ca        1 ZZK     -0.133500
     25 C25         3.7840    0.9690   -1.0880 ca        1 ZZK     -0.093000
     26 H011        7.3140    2.6920   -0.6500 hn        1 ZZK      0.313000
     27 H012        5.6380    2.9650   -0.7800 hn        1 ZZK      0.313000
     28 H05         5.2120   -0.7010    1.5260 ha        1 ZZK      0.147000
     29 H25         4.0310    1.6750   -1.8960 ha        1 ZZK      0.147000
     30 H06         2.8780   -1.5690    1.7250 ha        1 ZZK      0.147500
     31 H24         1.7190    0.7970   -1.7100 ha        1 ZZK      0.147500
     32 H09        -0.0590    1.0380    0.2190 ha        1 ZZK      0.141000
     33 H20        -2.8270   -2.3140    0.2700 h4        1 ZZK      0.040100
     34 H12        -1.5950    1.9260    1.5000 ha        1 ZZK      0.139000
     35 H13        -3.4660    3.5180    1.7260 ha        1 ZZK      0.139000
     36 H14        -5.7450    2.9900    0.8080 ha        1 ZZK      0.156000
     37 H171       -6.4490   -1.5470   -0.5160 h2        1 ZZK      0.072700
     38 H172       -5.9670   -0.7510   -2.1480 h2        1 ZZK      0.072700
     39 H231        2.3710   -2.9700   -0.3170 hn        1 ZZK      0.421800
     40 H232        1.2580   -4.2300   -0.1810 hn        1 ZZK      0.421800
@<TRIPOS>BOND
     1    1    2 1   
     2    1   26 1   
     3    1   27 1   
     4    2    3 2   
     5    2    4 1   
     6    4    5 ar  
     7    4   25 ar  
     8    5    6 ar  
     9    5   28 1   
    10    6    7 ar  
    11    6   30 1   
    12    7    8 1   
    13    7   24 ar  
    14    8    9 ar  
    15    8   22 ar  
    16    9   10 ar  
    17    9   32 1   
    18   10   11 1   
    19   10   20 ar  
    20   11   12 ar  
    21   11   19 ar  
    22   12   13 ar  
    23   12   34 1   
    24   13   14 ar  
    25   13   35 1   
    26   14   15 ar  
    27   14   36 1   
    28   15   16 1   
    29   15   19 ar  
    30   16   17 1   
    31   17   18 1   
    32   17   37 1   
    33   17   38 1   
    34   18   19 1   
    35   20   21 ar  
    36   20   33 1   
    37   21   22 ar  
    38   22   23 1   
    39   23   39 1   
    40   23   40 1   
    41   24   25 ar  
    42   24   31 1   
    43   25   29 1   
@<TRIPOS>SUBSTRUCTURE
     1 ZZK         1 TEMP              0 ****  ****    0 ROOT
