@<TRIPOS>MOLECULE
ZZK
   41    44     1     0     0
SMALL
bcc


@<TRIPOS>ATOM
      1 N01        -0.0400   -0.3040    0.0650 nz        1 ZZK     -0.764400
      2 C02         1.4740   -0.1070    0.0480 c         1 ZZK      0.580700
      3 O03         1.9570   -0.0350    1.1700 o         1 ZZK     -0.429100
      4 C04         2.1130   -0.0400   -1.2510 ca        1 ZZK     -0.236600
      5 C05         3.5210    0.0490   -1.2560 ca        1 ZZK     -0.051500
      6 C06         4.2150    0.1200   -2.4570 ca        1 ZZK     -0.143500
      7 C07         3.5310    0.1070   -3.6840 cp        1 ZZK      0.102000
      8 C08         4.2310    0.1560   -4.9540 cp        1 ZZK     -0.295300
      9 C09         3.8750   -0.7640   -5.9590 ca        1 ZZK     -0.026000
     10 C10         4.5490   -0.7820   -7.1750 cp        1 ZZK     -0.181300
     11 C11         4.2270   -1.7290   -8.2260 cp        1 ZZK     -0.022000
     12 C12         3.7390   -3.0260   -7.9310 ca        1 ZZK     -0.131000
     13 C13         3.4210   -3.9430   -8.9240 ca        1 ZZK     -0.123000
     14 C14         3.5620   -3.6430  -10.2920 ca        1 ZZK     -0.102000
     15 C15         4.0430   -2.3840  -10.5870 ca        1 ZZK      0.067100
     16 O16         4.2810   -1.8230  -11.8350 os        1 ZZK     -0.324900
     17 C17         4.7850   -0.4860  -11.6080 c3        1 ZZK      0.322200
     18 O18         4.8370   -0.2760  -10.1760 os        1 ZZK     -0.343900
     19 C19         4.3760   -1.4420   -9.5760 ca        1 ZZK      0.065100
     20 C20         5.5830    0.1810   -7.3560 ca        1 ZZK      0.499200
     21 N21         5.9360    1.0850   -6.4490 nb        1 ZZK     -0.715000
     22 C22         5.2790    1.0940   -5.2330 ca        1 ZZK      0.690200
     23 N23         5.6890    2.0140   -4.2770 nv        1 ZZK     -0.938500
     24 C24         2.1210    0.0070   -3.6700 ca        1 ZZK     -0.143500
     25 C25         1.4220   -0.0630   -2.4770 ca        1 ZZK     -0.051500
     26 H011       -0.4980    0.4860   -0.3940 hn        1 ZZK      0.465133
     27 H012       -0.2820   -1.1650   -0.4320 hn        1 ZZK      0.465133
     28 H05         4.0700    0.0530   -0.2980 ha        1 ZZK      0.145500
     29 H25         0.3240   -0.1260   -2.5230 ha        1 ZZK      0.145500
     30 H06         5.3190    0.1530   -2.4390 ha        1 ZZK      0.177000
     31 H24         1.5750   -0.0070   -4.6280 ha        1 ZZK      0.177000
     32 H09         3.0610   -1.4820   -5.7660 ha        1 ZZK      0.140000
     33 H20         6.1430    0.2210   -8.3140 h4        1 ZZK      0.058100
     34 H12         3.6280   -3.3160   -6.8760 ha        1 ZZK      0.132000
     35 H13         3.0500   -4.9410   -8.6420 ha        1 ZZK      0.145000
     36 H14         3.3090   -4.3690  -11.0750 ha        1 ZZK      0.166000
     37 H171        5.8240   -0.4200  -12.0150 h2        1 ZZK      0.081700
     38 H172        4.0660    0.2470  -12.0500 h2        1 ZZK      0.081700
     39 H231        5.0040    2.2910   -3.6140 hn        1 ZZK      0.426300
     40 H232        6.3250    2.7250   -4.5660 hn        1 ZZK      0.426300
     41 H013       -0.3680   -0.3690    1.0360 hn        1 ZZK      0.465133
@<TRIPOS>BOND
     1    1    2 1   
     2    1   26 1   
     3    1   27 1   
     4    1   41 1   
     5    2    3 2   
     6    2    4 1   
     7    4    5 ar  
     8    4   25 ar  
     9    5    6 ar  
    10    5   28 1   
    11    6    7 ar  
    12    6   30 1   
    13    7    8 1   
    14    7   24 ar  
    15    8    9 ar  
    16    8   22 ar  
    17    9   10 ar  
    18    9   32 1   
    19   10   11 1   
    20   10   20 ar  
    21   11   12 ar  
    22   11   19 ar  
    23   12   13 ar  
    24   12   34 1   
    25   13   14 ar  
    26   13   35 1   
    27   14   15 ar  
    28   14   36 1   
    29   15   16 1   
    30   15   19 ar  
    31   16   17 1   
    32   17   18 1   
    33   17   37 1   
    34   17   38 1   
    35   18   19 1   
    36   20   21 ar  
    37   20   33 1   
    38   21   22 ar  
    39   22   23 1   
    40   23   39 1   
    41   23   40 1   
    42   24   25 ar  
    43   24   31 1   
    44   25   29 1   
@<TRIPOS>SUBSTRUCTURE
     1 ZZK         1 TEMP              0 ****  ****    0 ROOT
