@<TRIPOS>MOLECULE
ZZK
   42    45     1     0     0
SMALL
bcc


@<TRIPOS>ATOM
      1 N01         0.0010   -0.5220    0.0870 n4        1 ZZK     -0.758400
      2 C02         1.4560   -0.0960    0.0550 c         1 ZZK      0.564700
      3 O03         1.9460    0.1030    1.1550 o         1 ZZK     -0.376100
      4 C04         2.1010   -0.0080   -1.2590 ca        1 ZZK     -0.185600
      5 C05         3.4940   -0.1940   -1.2900 ca        1 ZZK     -0.054500
      6 C06         4.1820   -0.1040   -2.4990 ca        1 ZZK     -0.124500
      7 C07         3.4930    0.1760   -3.6870 cp        1 ZZK     -0.012000
      8 C08         4.1920    0.2050   -4.9730 cp        1 ZZK     -0.122300
      9 C09         3.8580   -0.7450   -5.9550 ca        1 ZZK     -0.092000
     10 C10         4.5140   -0.7550   -7.1940 cp        1 ZZK     -0.016300
     11 C11         4.2040   -1.7220   -8.2220 cp        1 ZZK     -0.098000
     12 C12         3.6550   -2.9950   -7.9080 ca        1 ZZK     -0.112000
     13 C13         3.3520   -3.9310   -8.8830 ca        1 ZZK     -0.118000
     14 C14         3.5620   -3.6780  -10.2560 ca        1 ZZK     -0.060000
     15 C15         4.0980   -2.4480  -10.5700 ca        1 ZZK      0.066100
     16 O16         4.4040   -1.9350  -11.8220 os        1 ZZK     -0.306900
     17 C17         4.9430   -0.6090  -11.6210 c3        1 ZZK      0.325200
     18 O18         4.9450   -0.3590  -10.1860 os        1 ZZK     -0.353900
     19 C19         4.4260   -1.4850   -9.5740 ca        1 ZZK      0.105100
     20 C20         5.5130    0.2440   -7.4110 ca        1 ZZK      0.450200
     21 N21         5.8490    1.1610   -6.5060 nb        1 ZZK     -0.631000
     22 C22         5.1990    1.1410   -5.3050 ca        1 ZZK      0.419200
     23 N23         5.6010    2.1960   -4.3520 n4        1 ZZK     -0.813300
     24 C24         2.1020    0.3680   -3.6480 ca        1 ZZK     -0.124500
     25 C25         1.4080    0.2770   -2.4440 ca        1 ZZK     -0.054500
     26 H011       -0.5910    0.2090   -0.3200 hn        1 ZZK      0.476800
     27 H012       -0.1250   -1.3890   -0.4460 hn        1 ZZK      0.476800
     28 H05         4.0440   -0.4180   -0.3560 ha        1 ZZK      0.168500
     29 H25         0.3200    0.4510   -2.4520 ha        1 ZZK      0.168500
     30 H06         5.2670   -0.3050   -2.5150 ha        1 ZZK      0.176500
     31 H24         1.5510    0.5840   -4.5810 ha        1 ZZK      0.176500
     32 H09         3.0670   -1.4830   -5.7390 ha        1 ZZK      0.174000
     33 H20         6.0660    0.2990   -8.3760 h4        1 ZZK      0.095100
     34 H12         3.4880   -3.2530   -6.8510 ha        1 ZZK      0.133000
     35 H13         2.9360   -4.9090   -8.5900 ha        1 ZZK      0.163000
     36 H14         3.3150   -4.4240  -11.0270 ha        1 ZZK      0.186000
     37 H171        4.2640    0.1350  -12.1070 h2        1 ZZK      0.097700
     38 H172        6.0010   -0.5890  -11.9830 h2        1 ZZK      0.097700
     39 H231        5.2570    1.9620   -3.4170 hn        1 ZZK      0.471800
     40 H232        6.6280    2.2820   -4.3330 hn        1 ZZK      0.471800
     41 H013       -0.2920   -0.6790    1.0630 hn        1 ZZK      0.476800
     42 H233        5.2060    3.0960   -4.6560 hn        1 ZZK      0.471800
@<TRIPOS>BOND
     1    1    2 1   
     2    1   26 1   
     3    1   27 1   
     4    1   41 1   
     5    2    3 2   
     6    2    4 1   
     7    4    5 ar  
     8    4   25 ar  
     9    5    6 ar  
    10    5   28 1   
    11    6    7 ar  
    12    6   30 1   
    13    7    8 1   
    14    7   24 ar  
    15    8    9 ar  
    16    8   22 ar  
    17    9   10 ar  
    18    9   32 1   
    19   10   11 1   
    20   10   20 ar  
    21   11   12 ar  
    22   11   19 ar  
    23   12   13 ar  
    24   12   34 1   
    25   13   14 ar  
    26   13   35 1   
    27   14   15 ar  
    28   14   36 1   
    29   15   16 1   
    30   15   19 ar  
    31   16   17 1   
    32   17   18 1   
    33   17   37 1   
    34   17   38 1   
    35   18   19 1   
    36   20   21 ar  
    37   20   33 1   
    38   21   22 ar  
    39   22   23 1   
    40   23   39 1   
    41   23   40 1   
    42   23   42 1   
    43   24   25 ar  
    44   24   31 1   
    45   25   29 1   
@<TRIPOS>SUBSTRUCTURE
     1 ZZK         1 TEMP              0 ****  ****    0 ROOT
