@<TRIPOS>MOLECULE
ZZL
   48    52     1     0     0
SMALL
bcc


@<TRIPOS>ATOM
      1 C13         1.2500   -0.5260   -2.5440 c3        1 ZZL      0.171100
      2 C15         2.7790   -0.7980   -0.7450 ce        1 ZZL      0.514500
      3 C17         4.9550   -2.0130   -0.3700 ca        1 ZZL      0.176400
      4 C20         5.3070   -3.3700    1.6010 ca        1 ZZL     -0.078000
      5 C21         4.0300   -3.0640    2.0540 ca        1 ZZL     -0.188500
      6 C22         3.1990   -2.2210    1.2880 ca        1 ZZL      0.176400
      7 C24         2.7500    0.6240   -0.3210 ca        1 ZZL     -0.143900
      8 C26         4.0320    2.5530    0.4020 ca        1 ZZL      0.018400
      9 C28         2.8680    3.3270    0.4360 ca        1 ZZL     -0.125000
     10 O01        -9.1440   -0.8210   -0.6390 o         1 ZZL     -0.827300
     11 O03        -8.9620   -1.2170    1.5530 o         1 ZZL     -0.827300
     12 C04        -7.0750   -0.2820    0.4260 ca        1 ZZL     -0.116600
     13 C05        -6.5050    0.1810   -0.7610 ca        1 ZZL     -0.103000
     14 C06        -5.2060    0.6860   -0.7890 ca        1 ZZL     -0.152000
     15 C07        -4.4480    0.7270    0.3960 ca        1 ZZL      0.067600
     16 C09        -2.0730    0.8040   -0.2910 ca        1 ZZL      0.887900
     17 N10        -2.3020   -0.0490   -1.3760 nb        1 ZZL     -0.707000
     18 C11        -1.2250   -0.4300   -2.0610 ca        1 ZZL      0.479200
     19 C12         0.0920   -0.0130   -1.7620 ca        1 ZZL     -0.404900
     20 N14         2.1610   -1.3170   -1.7530 n2        1 ZZL     -0.547900
     21 C16         3.6580   -1.6750    0.0720 ca        1 ZZL     -0.196900
     22 C19         5.7800   -2.8560    0.3980 ca        1 ZZL     -0.188500
     23 C25         3.9750    1.2120    0.0300 ca        1 ZZL     -0.110000
     24 CL1         5.5270    3.2520    0.8170 cl        1 ZZL     -0.101400
     25 C29         1.6540    2.7450    0.0910 ca        1 ZZL     -0.088000
     26 C30         1.5750    1.3950   -0.2960 cp        1 ZZL     -0.110500
     27 C31         0.2450    0.8560   -0.6580 cp        1 ZZL      0.532800
     28 N32        -0.8100    1.2550    0.0890 nb        1 ZZL     -0.771000
     29 C33        -5.0170    0.2470    1.5970 ca        1 ZZL     -0.152000
     30 C34        -6.3170   -0.2440    1.6010 ca        1 ZZL     -0.103000
     31 H131        0.8880   -1.2090   -3.3660 h1        1 ZZL      0.062700
     32 H132        1.7880    0.3410   -3.0300 h1        1 ZZL      0.062700
     33 H19         6.7870   -3.1030    0.0330 ha        1 ZZL      0.152500
     34 H20         5.9520   -4.0320    2.1990 ha        1 ZZL      0.140000
     35 H21         3.6500   -3.4740    3.0000 ha        1 ZZL      0.152500
     36 H25         4.8940    0.6040   -0.0030 ha        1 ZZL      0.151000
     37 H28         2.9100    4.3860    0.7340 ha        1 ZZL      0.148000
     38 H29         0.7390    3.3590    0.1240 ha        1 ZZL      0.162000
     39 H05        -7.1120    0.1420   -1.6810 ha        1 ZZL      0.156500
     40 H34        -6.7790   -0.6170    2.5310 ha        1 ZZL      0.156500
     41 H06        -4.7820    1.0460   -1.7370 ha        1 ZZL      0.118000
     42 H08        -2.9190    1.7340    1.3050 hn        1 ZZL      0.432800
     43 H33        -4.4400    0.2660    2.5330 ha        1 ZZL      0.118000
     44 H11        -1.4180   -1.1180   -2.9060 h4        1 ZZL      0.028100
     45 N08        -3.1550    1.3190    0.4250 nh        1 ZZL     -0.686300
     46 F18         5.4260   -1.5200   -1.5390 f         1 ZZL     -0.123400
     47 F23         1.9550   -1.9460    1.7390 f         1 ZZL     -0.123400
     48 C02        -8.5010   -0.8150    0.4480 c         1 ZZL      0.908200
@<TRIPOS>BOND
     1    1   19 1   
     2    1   20 1   
     3    1   31 1   
     4    1   32 1   
     5    2    7 1   
     6    2   20 2   
     7    2   21 1   
     8    3   21 ar  
     9    3   22 ar  
    10    3   46 1   
    11    4    5 ar  
    12    4   22 ar  
    13    4   34 1   
    14    5    6 ar  
    15    5   35 1   
    16    6   21 ar  
    17    6   47 1   
    18    7   23 ar  
    19    7   26 ar  
    20    8    9 ar  
    21    8   23 ar  
    22    8   24 1   
    23    9   25 ar  
    24    9   37 1   
    25   10   48 1   
    26   11   48 1   
    27   12   13 ar  
    28   12   30 ar  
    29   12   48 1   
    30   13   14 ar  
    31   13   39 1   
    32   14   15 ar  
    33   14   41 1   
    34   15   29 ar  
    35   15   45 1   
    36   16   17 ar  
    37   16   28 ar  
    38   16   45 1   
    39   17   18 ar  
    40   18   19 ar  
    41   18   44 1   
    42   19   27 ar  
    43   22   33 1   
    44   23   36 1   
    45   25   26 ar  
    46   25   38 1   
    47   26   27 1   
    48   27   28 ar  
    49   29   30 ar  
    50   29   43 1   
    51   30   40 1   
    52   42   45 1   
@<TRIPOS>SUBSTRUCTURE
     1 ZZL         1 TEMP              0 ****  ****    0 ROOT
