@<TRIPOS>MOLECULE
ZZL
   48    52     1     0     0
SMALL
bcc


@<TRIPOS>ATOM
      1 C13         0.6810    0.9390   -0.1170 c1        1 ZZL      0.000000
      2 C15        -0.2840    1.4830    2.0610 c2        1 ZZL     -0.046000
      3 C17        -2.5180    2.1790    3.0480 c2        1 ZZL      0.148000
      4 C20        -2.7620    4.4760    4.1580 c1        1 ZZL      0.258000
      5 C21        -2.4580    4.5590    2.7010 c3        1 ZZL     -0.361000
      6 C22        -1.1620    3.9260    2.1570 c3        1 ZZL      0.156000
      7 C24         0.6780    1.0450    2.9200 c2        1 ZZL     -0.008000
      8 C26         0.9030    0.8030    5.3520 c2        1 ZZL     -0.121000
      9 C28         0.3520   -2.3090    1.9840 c1        1 ZZL     -0.143000
     10 O01         7.8890   -1.1740   -6.9070 o         1 ZZL     -0.303000
     11 O03         9.2840    0.1150   -5.5340 os        1 ZZL     -0.267000
     12 C04         7.7770   -0.6580   -4.2900 c2        1 ZZL     -0.172000
     13 C05         6.8430   -1.1620   -3.5870 c1        1 ZZL     -0.487000
     14 C06         6.0540   -1.4830   -2.4780 c3        1 ZZL      0.070000
     15 C07         6.4690   -0.7850   -1.1710 c2        1 ZZL     -0.133000
     16 C09         4.4540   -0.1890    0.0860 c2        1 ZZL      0.231000
     17 N10         4.0670    0.7830   -0.8970 n7        1 ZZL     -0.213000
     18 C11         2.9540    1.5030   -0.7880 c1        1 ZZL      0.048000
     19 C12         2.0650    1.2990    0.3980 c3        1 ZZL     -0.277000
     20 N14        -0.3410    1.0580    0.6970 n7        1 ZZL     -0.135000
     21 C16        -1.3160    2.4360    2.4630 c2        1 ZZL     -0.186000
     22 C19        -3.3240    3.4250    3.2480 c3        1 ZZL     -0.324000
     23 C25         0.7430    1.5800    4.2750 c2        1 ZZL     -0.148000
     24 Cl1         0.9840    1.4340    6.9250 cl        1 ZZL     -0.047000
     25 C29         0.9480   -1.2640    2.2290 c1        1 ZZL     -0.710000
     26 C30         1.6450   -0.0630    2.5770 c3        1 ZZL      0.129000
     27 C31         2.5460    0.2760    1.3940 c2        1 ZZL      0.154000
     28 N32         3.6820   -0.3830    1.2540 n2        1 ZZL     -0.232000
     29 C33         7.6290   -0.1200   -1.0390 c2        1 ZZL     -0.180000
     30 C34         9.0060    0.2160   -4.2310 c1        1 ZZL      0.022000
     31 H131        2.0360    2.3040    0.9300 hc        1 ZZL      0.170000
     32 H132       -1.2360    0.7390    0.3820 hn        1 ZZL      0.263000
     33 H19        -4.4110    3.3260    3.1010 hc        1 ZZL      0.177000
     34 H20        -2.8430    5.3960    2.0980 hc        1 ZZL      0.169000
     35 H21        -1.1170    4.0710    1.0380 h1        1 ZZL      0.119000
     36 H25         0.6370    2.6780    4.3540 ha        1 ZZL      0.145000
     37 H28         0.9830   -0.2940    5.3210 h4        1 ZZL      0.180000
     38 H29         2.3080   -0.2400    3.4800 hc        1 ZZL      0.106000
     39 H05         4.9740   -1.2230   -2.6780 hc        1 ZZL      0.087000
     40 H34         7.9580    0.3710   -0.1150 ha        1 ZZL      0.152500
     41 H06         6.1080   -2.5930   -2.2790 hc        1 ZZL      0.087000
     42 H08         5.7930   -1.6210    0.6290 hn        1 ZZL      0.273000
     43 H33         8.3170   -0.0380   -1.9020 ha        1 ZZL      0.152500
     44 H11         4.6430    0.8870   -1.7140 hn        1 ZZL      0.294000
     45 N08         5.5800   -0.9170   -0.0540 n7        1 ZZL     -0.159000
     46 F18        -3.0300    0.9970    3.4010 f         1 ZZL     -0.056000
     47 F23        -0.0300    4.4920    2.7080 f         1 ZZL     -0.147000
     48 C02         8.0990   -0.7730   -5.7870 c2        1 ZZL      0.263000
@<TRIPOS>BOND
     1    1   19 1   
     2    1   20 1   
     3    2    7 1   
     4    2   20 1   
     5    2   21 1   
     6    3   21 1   
     7    3   22 1   
     8    3   46 1   
     9    4    5 1   
    10    4   22 1   
    11    5    6 1   
    12    5   22 1   
    13    5   34 1   
    14    6   21 1   
    15    6   35 1   
    16    6   47 1   
    17    7   23 1   
    18    7   26 1   
    19    8   23 1   
    20    8   24 1   
    21    8   37 1   
    22    9   25 1   
    23   10   48 1   
    24   11   30 1   
    25   11   48 1   
    26   12   13 1   
    27   12   30 1   
    28   12   48 1   
    29   13   14 1   
    30   14   15 1   
    31   14   39 1   
    32   14   41 1   
    33   15   29 1   
    34   15   45 1   
    35   16   17 1   
    36   16   28 1   
    37   16   45 1   
    38   17   18 1   
    39   17   44 1   
    40   18   19 1   
    41   19   27 1   
    42   19   31 1   
    43   20   32 1   
    44   22   33 1   
    45   23   36 1   
    46   25   26 1   
    47   26   27 1   
    48   26   38 1   
    49   27   28 1   
    50   29   40 1   
    51   29   43 1   
    52   42   45 1   
@<TRIPOS>SUBSTRUCTURE
     1 ZZL         1 TEMP              0 ****  ****    0 ROOT
