@<TRIPOS>MOLECULE
ZZL
   48    52     1     0     0
SMALL
bcc


@<TRIPOS>ATOM
      1 C13         0.4690    0.4020   -0.3160 c1        1 ZZL     -0.027000
      2 C15         0.0480    1.4520    1.9120 c2        1 ZZL     -0.246000
      3 C17        -0.9590    3.6670    1.2530 c2        1 ZZL     -0.069000
      4 C20        -2.5420    4.9180    2.8110 c1        1 ZZL      0.209000
      5 C21        -1.1830    4.7120    3.3990 c3        1 ZZL     -0.372000
      6 C22        -0.6560    3.2760    3.5840 c3        1 ZZL      0.158000
      7 C24         0.5280    0.5720    2.9920 c2        1 ZZL      0.005000
      8 C26        -0.0570   -0.9570    4.9840 c3        1 ZZL      0.129000
      9 C28         1.3860   -0.9760    4.9850 c1        1 ZZL     -0.252000
     10 O01         8.1970   -1.6920   -4.9780 o         1 ZZL     -0.245000
     11 O03         6.3210   -1.4720   -6.3710 os        1 ZZL     -0.244000
     12 C04         5.7840   -0.8400   -4.4740 c2        1 ZZL     -0.387000
     13 C05         5.4200   -0.4290   -3.2590 c2        1 ZZL      0.091000
     14 C06         6.3220   -0.4430   -2.0840 c3        1 ZZL     -0.129000
     15 C07         6.2530    0.8480   -1.3040 c2        1 ZZL      0.066000
     16 C09         4.4150    0.3040    0.2760 c2        1 ZZL      0.079000
     17 N10         3.7460   -0.4760   -0.6710 n2        1 ZZL     -0.250000
     18 C11         2.6530   -1.1070   -0.2700 c1        1 ZZL     -0.306000
     19 C12         2.1780   -0.9790    1.0700 c2        1 ZZL     -0.285000
     20 N14         0.2120    1.0020    0.6540 n2        1 ZZL      0.085000
     21 C16        -0.5330    2.7240    2.1590 c2        1 ZZL     -0.024000
     22 C19        -1.3610    4.9480    1.9010 c3        1 ZZL     -0.262000
     23 C25        -0.3690   -0.0620    3.7840 c2        1 ZZL     -0.182000
     24 CL1        -0.8000   -2.5480    4.7850 cl        1 ZZL     -0.119000
     25 C29         2.1960   -0.4180    4.2660 c1        1 ZZL     -0.104000
     26 C30         2.0790    0.4820    3.1340 c3        1 ZZL      0.102000
     27 C31         2.7590    0.0010    1.8760 c2        1 ZZL     -0.012000
     28 N32         3.9130    0.6410    1.5150 n2        1 ZZL     -0.269000
     29 C33         6.8520    1.9440   -1.8270 c2        1 ZZL     -0.346000
     30 C34         5.1670   -0.9910   -5.8480 c1        1 ZZL      0.182000
     31 H131        1.3440   -1.5950    1.4190 ha        1 ZZL      0.132000
     32 H132        0.8180   -0.1220   -1.1960 ha        1 ZZL      0.347000
     33 H19        -1.0730    5.8670    1.3660 hc        1 ZZL      0.159000
     34 H20        -0.7610    5.4470    4.0990 hc        1 ZZL      0.156000
     35 H21         0.3670    3.3040    4.0560 h1        1 ZZL      0.112000
     36 H25        -1.4490    0.0760    3.6150 ha        1 ZZL      0.154000
     37 H28        -0.5020   -0.5390    5.9230 h1        1 ZZL      0.123000
     38 H29         2.4460    1.5140    3.4080 hc        1 ZZL      0.131000
     39 H05         6.0360   -1.3280   -1.4450 hc        1 ZZL      0.129500
     40 H34         6.8580    2.9200   -1.3320 ha        1 ZZL      0.113500
     41 H06         7.3900   -0.6000   -2.4030 hc        1 ZZL      0.129500
     42 H08         5.9260    1.6630    0.5130 hn        1 ZZL      0.207000
     43 H33         7.3840    1.8970   -2.7820 ha        1 ZZL      0.113500
     44 H11         4.3830   -0.0740   -3.0830 ha        1 ZZL      0.196000
     45 N08         5.7140    0.8350   -0.0100 n3        1 ZZL     -0.238000
     46 F18        -0.9880    3.5680   -0.0880 f         1 ZZL     -0.100000
     47 F23        -1.4900    2.5390    4.4030 f         1 ZZL     -0.156000
     48 C02         7.0380   -1.3740   -5.0910 c2        1 ZZL      0.314000
@<TRIPOS>BOND
     1    1   20 1   
     2    1   32 1   
     3    2    7 1   
     4    2   20 1   
     5    2   21 1   
     6    3   21 1   
     7    3   22 1   
     8    3   46 1   
     9    4    5 1   
    10    4   22 1   
    11    5    6 1   
    12    5   22 1   
    13    5   34 1   
    14    6   21 1   
    15    6   35 1   
    16    6   47 1   
    17    7   23 1   
    18    7   26 1   
    19    8    9 1   
    20    8   23 1   
    21    8   24 1   
    22    8   37 1   
    23    9   25 1   
    24   10   48 1   
    25   11   30 1   
    26   11   48 1   
    27   12   13 1   
    28   12   30 1   
    29   12   48 1   
    30   13   14 1   
    31   13   44 1   
    32   14   15 1   
    33   14   39 1   
    34   14   41 1   
    35   15   29 1   
    36   15   45 1   
    37   16   17 1   
    38   16   28 1   
    39   16   45 1   
    40   17   18 1   
    41   18   19 1   
    42   19   27 1   
    43   19   31 1   
    44   22   33 1   
    45   23   36 1   
    46   25   26 1   
    47   26   27 1   
    48   26   38 1   
    49   27   28 1   
    50   29   40 1   
    51   29   43 1   
    52   42   45 1   
@<TRIPOS>SUBSTRUCTURE
     1 ZZL         1 TEMP              0 ****  ****    0 ROOT
