@<TRIPOS>MOLECULE
ZZM
   36    38     1     0     0
SMALL
bcc


@<TRIPOS>ATOM
      1 CAA        -0.2770   -0.2790   -0.4310 c3        1 ZZM     -0.117100
      2 CAB         1.2240   -0.2170   -0.1660 c3        1 ZZM      0.073000
      3 CAC         1.4840   -0.1350    1.3340 c3        1 ZZM     -0.117100
      4 NAE         1.9400   -1.3580   -0.7880 na        1 ZZM      0.042200
      5 NAD         1.7150   -2.6360   -0.4680 nc        1 ZZM     -0.405100
      6 C6          2.9370   -1.2420   -1.7710 ca        1 ZZM      0.458800
      7 N1          3.4860   -0.1570   -2.3920 nb        1 ZZM     -0.620000
      8 C2          4.4350   -0.4600   -3.3010 ca        1 ZZM      0.682900
      9 N3          4.9070   -1.6980   -3.6720 nb        1 ZZM     -0.692000
     10 C4          4.3530   -2.7590   -3.0470 ca        1 ZZM      0.556200
     11 NAN         4.8160   -4.1180   -3.4020 n4        1 ZZM     -0.828300
     12 C5          3.3530   -2.6220   -2.0740 ca        1 ZZM     -0.425500
     13 CAI         2.5330   -3.4440   -1.2060 cd        1 ZZM      0.423800
     14 CAM         2.5810   -4.8370   -1.1450 ch        1 ZZM     -0.214200
     15 CAO         2.5860   -6.0340   -1.0440 cg        1 ZZM      0.007000
     16 CAP         2.6150   -7.4320   -0.9540 ca        1 ZZM     -0.163300
     17 CAQ         1.5130   -8.2130   -1.3510 ca        1 ZZM     -0.046000
     18 CAR         1.5920   -9.5980   -1.2280 ca        1 ZZM     -0.243300
     19 CAU         2.7730  -10.1650   -0.7100 ca        1 ZZM      0.435200
     20 NAT         3.8370   -9.4350   -0.3200 nb        1 ZZM     -0.653000
     21 CAS         3.7530   -8.0990   -0.4340 ca        1 ZZM      0.431200
     22 HAA1       -0.7410   -1.1620    0.0700 hc        1 ZZM      0.065200
     23 HAA2       -0.7390    0.6510   -0.0160 hc        1 ZZM      0.065200
     24 HAA3       -0.4970   -0.3260   -1.5240 hc        1 ZZM      0.065200
     25 HAB         1.6500    0.7050   -0.6660 h1        1 ZZM      0.095700
     26 HAC1        1.0550   -1.0160    1.8690 hc        1 ZZM      0.065200
     27 HAC2        2.5760   -0.0720    1.5570 hc        1 ZZM      0.065200
     28 HAC3        0.9900    0.7910    1.7200 hc        1 ZZM      0.065200
     29 H2          4.9100    0.3990   -3.8320 h5        1 ZZM      0.101100
     30 HAN1        5.8180   -4.2120   -3.1910 hn        1 ZZM      0.478133
     31 HAN2        4.2760   -4.8020   -2.8490 hn        1 ZZM      0.478133
     32 HAQ         0.6030   -7.7340   -1.7430 ha        1 ZZM      0.155000
     33 HAS         4.6330   -7.5300   -0.0820 h4        1 ZZM      0.026100
     34 HAR         0.7500  -10.2410   -1.5210 ha        1 ZZM      0.166000
     35 HAU         2.8760  -11.2620   -0.5960 h4        1 ZZM      0.046100
     36 HAN3        4.6710   -4.2870   -4.4050 hn        1 ZZM      0.478133
@<TRIPOS>BOND
     1    1    2 1   
     2    1   22 1   
     3    1   23 1   
     4    1   24 1   
     5    2    3 1   
     6    2    4 1   
     7    2   25 1   
     8    3   26 1   
     9    3   27 1   
    10    3   28 1   
    11    4    5 1   
    12    4    6 1   
    13    5   13 2   
    14    6    7 ar  
    15    6   12 ar  
    16    7    8 ar  
    17    8    9 ar  
    18    8   29 1   
    19    9   10 ar  
    20   10   11 1   
    21   10   12 ar  
    22   11   30 1   
    23   11   31 1   
    24   11   36 1   
    25   12   13 1   
    26   13   14 1   
    27   14   15 3   
    28   15   16 1   
    29   16   17 ar  
    30   16   21 ar  
    31   17   18 ar  
    32   17   32 1   
    33   18   19 ar  
    34   18   34 1   
    35   19   20 ar  
    36   19   35 1   
    37   20   21 ar  
    38   21   33 1   
@<TRIPOS>SUBSTRUCTURE
     1 ZZM         1 TEMP              0 ****  ****    0 ROOT
