@<TRIPOS>MOLECULE
ZZM
   35    37     1     0     0
SMALL
bcc


@<TRIPOS>ATOM
      1 CAA         3.6730    3.0920   -0.5450 c3        1 ZZM     -0.110100
      2 CAB         3.6940    1.8980    0.4080 c3        1 ZZM      0.077000
      3 CAC         3.7120    2.4010    1.8500 c3        1 ZZM     -0.110100
      4 NAE         2.5880    0.9650    0.1580 na        1 ZZM      0.007200
      5 NAD         1.2940    1.2950    0.2950 nc        1 ZZM     -0.483100
      6 C6          2.7370   -0.3670   -0.2790 ca        1 ZZM      0.474800
      7 N1          3.8630   -1.1020   -0.5430 nb        1 ZZM     -0.741000
      8 C2          3.5810   -2.3650   -0.9360 ca        1 ZZM      0.696900
      9 N3          2.3820   -2.9880   -1.1000 nb        1 ZZM     -0.798000
     10 C4          1.2500   -2.2490   -0.8420 ca        1 ZZM      0.767200
     11 NAN         0.0030   -2.7930   -1.0140 nh        1 ZZM     -0.961500
     12 C5          1.3900   -0.8930   -0.4120 ca        1 ZZM     -0.490500
     13 CAI         0.5300    0.2120   -0.0340 cd        1 ZZM      0.423800
     14 CAM        -0.8670    0.1810   -0.0090 ch        1 ZZM     -0.097200
     15 CAO        -2.0660    0.1440    0.0060 cg        1 ZZM     -0.095000
     16 CAP        -3.4670    0.1010    0.0270 ca        1 ZZM     -0.095300
     17 CAQ        -4.2090    0.9300    0.8870 ca        1 ZZM     -0.067000
     18 CAR        -5.6010    0.8460    0.8680 ca        1 ZZM     -0.247300
     19 CAU        -6.2100   -0.0670   -0.0120 ca        1 ZZM      0.402200
     20 NAT        -5.5190   -0.8700   -0.8460 nb        1 ZZM     -0.663000
     21 CAS        -4.1780   -0.7820   -0.8230 ca        1 ZZM      0.414200
     22 HAA1        4.5830    3.7110   -0.3540 hc        1 ZZM      0.051200
     23 HAA2        3.6870    2.7570   -1.6090 hc        1 ZZM      0.051200
     24 HAA3        2.7680    3.7230   -0.3790 hc        1 ZZM      0.051200
     25 HAB         4.6390    1.3040    0.2220 h1        1 ZZM      0.088700
     26 HAC1        4.6240    3.0310    1.9920 hc        1 ZZM      0.051200
     27 HAC2        2.8100    3.0200    2.0720 hc        1 ZZM      0.051200
     28 HAC3        3.7510    1.5510    2.5720 hc        1 ZZM      0.051200
     29 H2          4.4660   -3.0010   -1.1610 h5        1 ZZM      0.053100
     30 HAN1       -0.1030   -3.7510   -1.2390 hn        1 ZZM      0.445800
     31 HAN2       -0.7840   -2.2660   -0.7250 hn        1 ZZM      0.445800
     32 HAQ        -3.6960    1.6320    1.5600 ha        1 ZZM      0.151000
     33 HAS        -3.6380   -1.4460   -1.5220 h4        1 ZZM      0.025100
     34 HAR        -6.2130    1.4780    1.5240 ha        1 ZZM      0.149000
     35 HAU        -7.3100   -0.1640   -0.0570 h4        1 ZZM      0.026100
@<TRIPOS>BOND
     1    1    2 1   
     2    1   22 1   
     3    1   23 1   
     4    1   24 1   
     5    2    3 1   
     6    2    4 1   
     7    2   25 1   
     8    3   26 1   
     9    3   27 1   
    10    3   28 1   
    11    4    5 1   
    12    4    6 1   
    13    5   13 2   
    14    6    7 ar  
    15    6   12 ar  
    16    7    8 ar  
    17    8    9 ar  
    18    8   29 1   
    19    9   10 ar  
    20   10   11 1   
    21   10   12 ar  
    22   11   30 1   
    23   11   31 1   
    24   12   13 1   
    25   13   14 1   
    26   14   15 3   
    27   15   16 1   
    28   16   17 ar  
    29   16   21 ar  
    30   17   18 ar  
    31   17   32 1   
    32   18   19 ar  
    33   18   34 1   
    34   19   20 ar  
    35   19   35 1   
    36   20   21 ar  
    37   21   33 1   
@<TRIPOS>SUBSTRUCTURE
     1 ZZM         1 TEMP              0 ****  ****    0 ROOT
