@<TRIPOS>MOLECULE
ZZM
   35    37     1     0     0
SMALL
bcc


@<TRIPOS>ATOM
      1 CAA         0.0000    0.0000    0.0000 c3        1 ZZM     -0.030100
      2 CAB         1.5300    0.0000    0.0000 c3        1 ZZM      0.011000
      3 CAC         2.0410    0.0000    1.4420 c3        1 ZZM     -0.030100
      4 NAE         2.0180   -1.1970   -0.6910 na        1 ZZM      0.372200
      5 NAD         1.7480   -2.5160   -0.3100 nc        1 ZZM     -0.616100
      6 C6          2.8010   -1.1970   -1.8070 ca        1 ZZM      0.355800
      7 N1          3.3340   -0.2440   -2.5730 nb        1 ZZM     -0.694000
      8 C2          4.0680   -0.5560   -3.6190 ca        1 ZZM      0.715900
      9 N3          4.3160   -1.8060   -3.9690 nb        1 ZZM     -0.764000
     10 C4          3.8300   -2.8250   -3.2670 ca        1 ZZM      0.616200
     11 NAN         4.0930   -4.1300   -3.6370 nv        1 ZZM     -0.491500
     12 C5          3.0390   -2.5430   -2.1410 ca        1 ZZM     -0.549500
     13 CAI         2.3360   -3.3490   -1.1410 cd        1 ZZM      0.508800
     14 CAM         2.2930   -4.7790   -1.0810 ch        1 ZZM     -0.116200
     15 CAO         2.2380   -5.9500   -1.0260 cg        1 ZZM     -0.061000
     16 CAP         2.8160   -7.4260   -1.1270 ca        1 ZZM     -0.043300
     17 CAQ         3.9030   -8.0720   -1.3880 ca        1 ZZM     -0.107000
     18 CAR         4.3630   -9.4450   -1.4620 ca        1 ZZM     -0.211300
     19 CAU         3.0880  -10.4420   -1.0950 ca        1 ZZM      0.441200
     20 NAT         2.0000   -9.9700   -0.8270 nb        1 ZZM     -0.600000
     21 CAS         1.4930   -8.5950   -0.7410 ca        1 ZZM      0.424200
     22 HAA1       -0.5820    0.6750    0.6170 hc        1 ZZM      0.018033
     23 HAA2       -0.5380   -0.2860   -0.8960 hc        1 ZZM      0.018033
     24 HAA3       -0.2010   -0.8670    0.6180 hc        1 ZZM      0.018033
     25 HAB         2.0750    0.7890   -0.5040 h1        1 ZZM      0.054700
     26 HAC1        1.5370    0.8940    1.7880 hc        1 ZZM      0.018033
     27 HAC2        1.5790   -0.8310    1.9620 hc        1 ZZM      0.018033
     28 HAC3        3.0610    0.2440    1.7130 hc        1 ZZM      0.018033
     29 H2          4.7080    0.1570   -4.1230 h5        1 ZZM     -0.003900
     30 HAN1        4.5540   -4.4260   -4.4750 hn        1 ZZM      0.266800
     31 HAN2        4.0810   -4.8220   -2.9150 hn        1 ZZM      0.266800
     32 HAQ         4.6030   -7.2460   -1.4320 ha        1 ZZM      0.070000
     33 HAS         0.5690   -8.2650   -0.2820 h4        1 ZZM      0.004100
     34 HAR         5.3910   -9.7290   -1.2730 ha        1 ZZM      0.128000
     35 HAU         3.3980  -11.4800   -1.1010 h4        1 ZZM     -0.023900
@<TRIPOS>BOND
     1    1    2 1   
     2    1   22 1   
     3    1   23 1   
     4    1   24 1   
     5    2    3 1   
     6    2    4 1   
     7    2   25 1   
     8    3   26 1   
     9    3   27 1   
    10    3   28 1   
    11    4    5 1   
    12    4    6 1   
    13    5   13 2   
    14    6    7 ar  
    15    6   12 ar  
    16    7    8 ar  
    17    8    9 ar  
    18    8   29 1   
    19    9   10 ar  
    20   10   11 1   
    21   10   12 ar  
    22   11   30 1   
    23   11   31 1   
    24   12   13 1   
    25   13   14 1   
    26   14   15 3   
    27   15   16 1   
    28   16   17 ar  
    29   16   21 ar  
    30   17   18 ar  
    31   17   32 1   
    32   18   19 ar  
    33   18   34 1   
    34   19   20 ar  
    35   19   35 1   
    36   20   21 ar  
    37   21   33 1   
@<TRIPOS>SUBSTRUCTURE
     1 ZZM         1 TEMP              0 ****  ****    0 ROOT
