@<TRIPOS>MOLECULE
ZZN
   60    65     1     0     0
SMALL
bcc


@<TRIPOS>ATOM
      1 CAT         0.0780   -0.3460    0.1700 c3        1 ZZN     -0.063800
      2 CAP         1.5420   -0.1430    0.0740 ca        1 ZZN     -0.047300
      3 CAQ         2.3240   -0.1590    1.2350 ca        1 ZZN     -0.130000
      4 CAR         3.7040    0.0060    1.1750 ca        1 ZZN     -0.113000
      5 CAJ         4.3300    0.1870   -0.0580 ca        1 ZZN     -0.132000
      6 CAI         3.5780    0.2060   -1.2280 ca        1 ZZN     -0.118000
      7 CAH         2.1770    0.0500   -1.1760 ca        1 ZZN      0.013600
      8 NAG         1.4220    0.0710   -2.3880 n         1 ZZN     -0.324500
      9 CAF         0.9900   -1.1420   -2.9840 c         1 ZZN      0.717100
     10 OAB         1.2210   -2.2160   -2.4010 o         1 ZZN     -0.610500
     11 CAE         0.2810   -1.0250   -4.2760 ca        1 ZZN     -0.187600
     12 CAD        -0.1660   -2.1680   -4.9690 ca        1 ZZN      0.003700
     13 CAA         0.0520   -3.5330   -4.4360 c3        1 ZZN     -0.063800
     14 CAC        -0.8300   -2.0050   -6.1850 ca        1 ZZN     -0.161000
     15 CAK        -1.0520   -0.7320   -6.7160 ca        1 ZZN     -0.090000
     16 CAL        -0.6190    0.4020   -6.0490 ca        1 ZZN     -0.128000
     17 CAM         0.0580    0.2720   -4.8130 ca        1 ZZN      0.188400
     18 NAN         0.4890    1.4270   -4.1500 nc        1 ZZN     -0.614100
     19 CAO         1.1290    1.3030   -3.0080 cd        1 ZZN      0.472900
     20 CAS         1.6060    2.5570   -2.2530 c3        1 ZZN      0.023000
     21 NAV         1.2650    3.8280   -2.8500 na        1 ZZN      0.013200
     22 NAU        -0.0070    4.3010   -2.8600 nc        1 ZZN     -0.492100
     23 C6          2.0040    4.3830   -3.9350 ca        1 ZZN      0.491800
     24 N1          3.2930    4.1610   -4.3180 nb        1 ZZN     -0.742000
     25 C2          3.6740    4.9540   -5.3520 ca        1 ZZN      0.700900
     26 N3          2.9770    5.9040   -6.0220 nb        1 ZZN     -0.794000
     27 C4          1.6750    6.1360   -5.6230 ca        1 ZZN      0.767200
     28 NBK         0.9380    7.1190   -6.2280 nv        1 ZZN     -0.963500
     29 C5          1.1280    5.3570   -4.5600 ca        1 ZZN     -0.496500
     30 CBD        -0.1240    5.2390   -3.8250 cd        1 ZZN      0.436500
     31 CBC        -1.3420    6.0090   -4.0610 ca        1 ZZN     -0.040900
     32 CBB        -1.9550    5.9670   -5.3170 ca        1 ZZN     -0.176000
     33 CBJ        -1.8890    6.7710   -3.0230 ca        1 ZZN     -0.174000
     34 CBI        -3.0620    7.5110   -3.2540 ca        1 ZZN      0.165900
     35 F          -3.5960    8.2520   -2.2560 f         1 ZZN     -0.132900
     36 CBH        -3.6910    7.4910   -4.5120 ca        1 ZZN     -0.250000
     37 CBA        -3.1250    6.7130   -5.5280 ca        1 ZZN      0.147100
     38 OAZ        -3.6710    6.6410   -6.7880 oh        1 ZZN     -0.493100
     39 HAT1       -0.2210   -1.2450   -0.4300 hc        1 ZZN      0.054033
     40 HAT2       -0.4690    0.5440   -0.2320 hc        1 ZZN      0.054033
     41 HAT3       -0.2410   -0.5060    1.2280 hc        1 ZZN      0.054033
     42 HAQ         1.8340   -0.3110    2.2090 ha        1 ZZN      0.138000
     43 HAR         4.3020   -0.0120    2.0990 ha        1 ZZN      0.137000
     44 HAJ         5.4220    0.3090   -0.1110 ha        1 ZZN      0.139000
     45 HAI         4.0860    0.3390   -2.1970 ha        1 ZZN      0.146000
     46 HAA1       -0.4400   -3.6400   -3.4360 hc        1 ZZN      0.058700
     47 HAA2       -0.3600   -4.3090   -5.1270 hc        1 ZZN      0.058700
     48 HAA3        1.1470   -3.7210   -4.2910 hc        1 ZZN      0.058700
     49 HAC        -1.1830   -2.8910   -6.7340 ha        1 ZZN      0.139000
     50 HAK        -1.5790   -0.6300   -7.6780 ha        1 ZZN      0.137000
     51 HAL        -0.7970    1.4020   -6.4730 ha        1 ZZN      0.153000
     52 HAS1        1.1570    2.5230   -1.2170 h1        1 ZZN      0.104700
     53 HAS2        2.7320    2.5120   -2.1800 h1        1 ZZN      0.104700
     54 H2          4.7160    4.8000   -5.7090 h5        1 ZZN      0.054100
     55 HBK1        1.3040    7.6250   -6.9960 hn        1 ZZN      0.448300
     56 HBK2       -0.0180    7.2170   -5.9870 hn        1 ZZN      0.448300
     57 HBB        -1.5530    5.3410   -6.1270 ha        1 ZZN      0.165000
     58 HBJ        -1.4150    6.7900   -2.0300 ha        1 ZZN      0.166000
     59 HBH        -4.6080    8.0720   -4.6790 ha        1 ZZN      0.154000
     60 HAZ        -4.4990    7.1440   -6.7870 ho        1 ZZN      0.426000
@<TRIPOS>BOND
     1    1    2 1   
     2    1   39 1   
     3    1   40 1   
     4    1   41 1   
     5    2    3 ar  
     6    2    7 ar  
     7    3    4 ar  
     8    3   42 1   
     9    4    5 ar  
    10    4   43 1   
    11    5    6 ar  
    12    5   44 1   
    13    6    7 ar  
    14    6   45 1   
    15    7    8 1   
    16    8    9 1   
    17    8   19 1   
    18    9   10 2   
    19    9   11 1   
    20   11   12 ar  
    21   11   17 ar  
    22   12   13 1   
    23   12   14 ar  
    24   13   46 1   
    25   13   47 1   
    26   13   48 1   
    27   14   15 ar  
    28   14   49 1   
    29   15   16 ar  
    30   15   50 1   
    31   16   17 ar  
    32   16   51 1   
    33   17   18 1   
    34   18   19 2   
    35   19   20 1   
    36   20   21 1   
    37   20   52 1   
    38   20   53 1   
    39   21   22 1   
    40   21   23 1   
    41   22   30 2   
    42   23   24 ar  
    43   23   29 ar  
    44   24   25 ar  
    45   25   26 ar  
    46   25   54 1   
    47   26   27 ar  
    48   27   28 1   
    49   27   29 ar  
    50   28   55 1   
    51   28   56 1   
    52   29   30 1   
    53   30   31 1   
    54   31   32 ar  
    55   31   33 ar  
    56   32   37 ar  
    57   32   57 1   
    58   33   34 ar  
    59   33   58 1   
    60   34   35 1   
    61   34   36 ar  
    62   36   37 ar  
    63   36   59 1   
    64   37   38 1   
    65   38   60 1   
@<TRIPOS>SUBSTRUCTURE
     1 ZZN         1 TEMP              0 ****  ****    0 ROOT
