@<TRIPOS>MOLECULE
ZZN
   61    66     1     0     0
SMALL
bcc


@<TRIPOS>ATOM
      1 CAT        -0.0690   -0.2740    0.0980 c3        1 ZZN     -0.064800
      2 CAP         1.4000   -0.0820    0.0980 ca        1 ZZN     -0.045300
      3 CAQ         2.1000   -0.0780    1.3110 ca        1 ZZN     -0.126000
      4 CAR         3.4830    0.0650    1.3420 ca        1 ZZN     -0.104000
      5 CAJ         4.1960    0.2040    0.1510 ca        1 ZZN     -0.130000
      6 CAI         3.5280    0.2050   -1.0680 ca        1 ZZN     -0.125000
      7 CAH         2.1230    0.0730   -1.1070 ca        1 ZZN     -0.007400
      8 NAG         1.4550    0.0660   -2.3710 n         1 ZZN     -0.316500
      9 CAF         1.0460   -1.1600   -2.9690 c         1 ZZN      0.717100
     10 OAB         1.2160   -2.2150   -2.3400 o         1 ZZN     -0.580500
     11 CAE         0.4380   -1.0640   -4.3120 ca        1 ZZN     -0.181600
     12 CAD         0.0220   -2.2190   -5.0030 ca        1 ZZN      0.013700
     13 CAA         0.1750   -3.5720   -4.4210 c3        1 ZZN     -0.070800
     14 CAC        -0.5500   -2.0800   -6.2710 ca        1 ZZN     -0.148000
     15 CAK        -0.7110   -0.8210   -6.8510 ca        1 ZZN     -0.083000
     16 CAL        -0.3050    0.3260   -6.1840 ca        1 ZZN     -0.135000
     17 CAM         0.2780    0.2210   -4.9010 ca        1 ZZN      0.179400
     18 NAN         0.6830    1.3870   -4.2370 nc        1 ZZN     -0.646100
     19 CAO         1.2310    1.2750   -3.0450 cd        1 ZZN      0.468900
     20 CAS         1.6790    2.5430   -2.2990 c3        1 ZZN      0.014000
     21 NAV         1.3040    3.7950   -2.9420 na        1 ZZN      0.044200
     22 NAU         0.0760    4.3380   -2.8210 nc        1 ZZN     -0.408100
     23 C6          1.9480    4.2750   -4.1070 ca        1 ZZN      0.487800
     24 N1          3.1690    3.9910   -4.6330 nb        1 ZZN     -0.620000
     25 C2          3.4750    4.7110   -5.7380 ca        1 ZZN      0.690900
     26 N3          2.7260    5.6710   -6.3630 nb        1 ZZN     -0.698000
     27 C4          1.5150    5.9450   -5.8170 ca        1 ZZN      0.552200
     28 NBK         0.6830    6.9830   -6.4620 n4        1 ZZN     -0.832300
     29 C5          1.0360    5.2800   -4.6810 ca        1 ZZN     -0.409500
     30 CBD        -0.1220    5.2520   -3.7990 cd        1 ZZN      0.405500
     31 CBC        -1.3140    6.0810   -3.9350 ca        1 ZZN     -0.065900
     32 CBB        -1.9770    6.1240   -5.1690 ca        1 ZZN     -0.247000
     33 CBJ        -1.7810    6.8150   -2.8450 ca        1 ZZN     -0.170000
     34 CBI        -2.9340    7.6150   -2.9950 ca        1 ZZN      0.197900
     35 F          -3.3940    8.3210   -1.9400 f         1 ZZN     -0.105900
     36 CBH        -3.6010    7.6930   -4.2280 ca        1 ZZN     -0.238000
     37 CBA        -3.1120    6.9390   -5.3030 ca        1 ZZN      0.168100
     38 OAZ        -3.6780    6.9750   -6.5520 oh        1 ZZN     -0.495100
     39 HAT1       -0.5820    0.6000   -0.3760 hc        1 ZZN      0.056033
     40 HAT2       -0.4630   -0.3900    1.1370 hc        1 ZZN      0.056033
     41 HAT3       -0.3300   -1.1960   -0.4830 hc        1 ZZN      0.056033
     42 HAQ         1.5420   -0.2030    2.2530 ha        1 ZZN      0.147000
     43 HAR         4.0160    0.0570    2.3060 ha        1 ZZN      0.147000
     44 HAJ         5.2930    0.2990    0.1720 ha        1 ZZN      0.146000
     45 HAI         4.1040    0.2910   -2.0020 ha        1 ZZN      0.142000
     46 HAA1       -0.1990   -4.3600   -5.1190 hc        1 ZZN      0.066033
     47 HAA2        1.2520   -3.7750   -4.1900 hc        1 ZZN      0.066033
     48 HAA3       -0.3910   -3.6440   -3.4570 hc        1 ZZN      0.066033
     49 HAC        -0.8780   -2.9770   -6.8190 ha        1 ZZN      0.150000
     50 HAK        -1.1660   -0.7380   -7.8510 ha        1 ZZN      0.143000
     51 HAL        -0.4390    1.3130   -6.6490 ha        1 ZZN      0.138000
     52 HAS1        2.8060    2.5320   -2.2230 h1        1 ZZN      0.121200
     53 HAS2        1.2290    2.5300   -1.2610 h1        1 ZZN      0.121200
     54 H2          4.4640    4.5000   -6.2110 h5        1 ZZN      0.100100
     55 HBK1        0.3250    6.6240   -7.3560 hn        1 ZZN      0.478800
     56 HBK2       -0.1130    7.2060   -5.8410 hn        1 ZZN      0.478800
     57 HBB        -1.6950    5.4540   -5.9950 ha        1 ZZN      0.154000
     58 HBJ        -1.2780    6.7660   -1.8660 ha        1 ZZN      0.179000
     59 HBH        -4.5000    8.3190   -4.3320 ha        1 ZZN      0.175000
     60 HAZ        -4.5360    7.4260   -6.4920 ho        1 ZZN      0.448000
     61 HBK3        1.2400    7.8280   -6.6410 hn        1 ZZN      0.478800
@<TRIPOS>BOND
     1    1    2 1   
     2    1   39 1   
     3    1   40 1   
     4    1   41 1   
     5    2    3 ar  
     6    2    7 ar  
     7    3    4 ar  
     8    3   42 1   
     9    4    5 ar  
    10    4   43 1   
    11    5    6 ar  
    12    5   44 1   
    13    6    7 ar  
    14    6   45 1   
    15    7    8 1   
    16    8    9 1   
    17    8   19 1   
    18    9   10 2   
    19    9   11 1   
    20   11   12 ar  
    21   11   17 ar  
    22   12   13 1   
    23   12   14 ar  
    24   13   46 1   
    25   13   47 1   
    26   13   48 1   
    27   14   15 ar  
    28   14   49 1   
    29   15   16 ar  
    30   15   50 1   
    31   16   17 ar  
    32   16   51 1   
    33   17   18 1   
    34   18   19 2   
    35   19   20 1   
    36   20   21 1   
    37   20   52 1   
    38   20   53 1   
    39   21   22 1   
    40   21   23 1   
    41   22   30 2   
    42   23   24 ar  
    43   23   29 ar  
    44   24   25 ar  
    45   25   26 ar  
    46   25   54 1   
    47   26   27 ar  
    48   27   28 1   
    49   27   29 ar  
    50   28   55 1   
    51   28   56 1   
    52   28   61 1   
    53   29   30 1   
    54   30   31 1   
    55   31   32 ar  
    56   31   33 ar  
    57   32   37 ar  
    58   32   57 1   
    59   33   34 ar  
    60   33   58 1   
    61   34   35 1   
    62   34   36 ar  
    63   36   37 ar  
    64   36   59 1   
    65   37   38 1   
    66   38   60 1   
@<TRIPOS>SUBSTRUCTURE
     1 ZZN         1 TEMP              0 ****  ****    0 ROOT
