@<TRIPOS>MOLECULE
ZZN
   60    65     1     0     0
SMALL
bcc


@<TRIPOS>ATOM
      1 CAT        -3.5600    1.7560   -2.6740 c3        1 ZZN     -0.063800
      2 CAP        -3.8930    2.3120   -1.3420 ca        1 ZZN     -0.046300
      3 CAQ        -4.5020    3.5690   -1.2440 ca        1 ZZN     -0.130000
      4 CAR        -4.8470    4.1060   -0.0080 ca        1 ZZN     -0.113000
      5 CAJ        -4.5900    3.3880    1.1590 ca        1 ZZN     -0.132000
      6 CAI        -3.9870    2.1360    1.0920 ca        1 ZZN     -0.118000
      7 CAH        -3.6240    1.5880   -0.1560 ca        1 ZZN      0.013600
      8 NAG        -3.0080    0.3000   -0.2050 n         1 ZZN     -0.324500
      9 CAF        -3.7730   -0.8490   -0.5330 c         1 ZZN      0.717100
     10 OAB        -4.9690   -0.7080   -0.8420 o         1 ZZN     -0.609500
     11 CAE        -3.0670   -2.1460   -0.4820 ca        1 ZZN     -0.187600
     12 CAD        -3.7380   -3.3530   -0.7610 ca        1 ZZN      0.003700
     13 CAA        -5.1760   -3.3780   -1.1170 c3        1 ZZN     -0.063800
     14 CAC        -3.0280   -4.5530   -0.6980 ca        1 ZZN     -0.160000
     15 CAK        -1.6720   -4.5670   -0.3640 ca        1 ZZN     -0.090000
     16 CAL        -0.9960   -3.3900   -0.0870 ca        1 ZZN     -0.129000
     17 CAM        -1.6870   -2.1550   -0.1420 ca        1 ZZN      0.189400
     18 NAN        -0.9900   -0.9740    0.1380 nc        1 ZZN     -0.615100
     19 CAO        -1.6380    0.1700    0.1010 cd        1 ZZN      0.473900
     20 CAS        -0.8960    1.4850    0.3980 c3        1 ZZN      0.023000
     21 NAV         0.5240    1.3730    0.6450 na        1 ZZN      0.013200
     22 NAU         1.4090    1.0950   -0.3470 nc        1 ZZN     -0.489100
     23 C6          1.0510    0.9670    1.9030 ca        1 ZZN      0.489800
     24 N1          0.4960    1.0310    3.1470 nb        1 ZZN     -0.737000
     25 C2          1.3550    0.6410    4.1220 ca        1 ZZN      0.697900
     26 N3          2.6430    0.2230    4.0320 nb        1 ZZN     -0.789000
     27 C4          3.2000    0.1540    2.7720 ca        1 ZZN      0.754200
     28 NBK         4.4870   -0.3060    2.6090 nh        1 ZZN     -0.953500
     29 C5          2.4090    0.5240    1.6450 ca        1 ZZN     -0.493500
     30 CBD         2.5540    0.6310    0.1990 cd        1 ZZN      0.435500
     31 CBC         3.7480    0.3020   -0.5730 ca        1 ZZN     -0.042900
     32 CBB         4.2870   -0.9880   -0.4940 ca        1 ZZN     -0.224000
     33 CBJ         4.3350    1.2700   -1.3910 ca        1 ZZN     -0.175000
     34 CBI         5.4880    0.9410   -2.1310 ca        1 ZZN      0.157900
     35 F           6.0640    1.8800   -2.9190 f         1 ZZN     -0.132900
     36 CBH         6.0490   -0.3440   -2.0640 ca        1 ZZN     -0.191000
     37 CBA         5.4300   -1.2970   -1.2440 ca        1 ZZN      0.146100
     38 OAZ         6.0170   -2.5400   -1.2120 oh        1 ZZN     -0.491100
     39 HAT1       -2.4600    1.5740   -2.7600 hc        1 ZZN      0.054367
     40 HAT2       -4.0930    0.7820   -2.8230 hc        1 ZZN      0.054367
     41 HAT3       -3.8650    2.4540   -3.4920 hc        1 ZZN      0.054367
     42 HAQ        -4.7150    4.1350   -2.1640 ha        1 ZZN      0.139000
     43 HAR        -5.3270    5.0950    0.0480 ha        1 ZZN      0.137000
     44 HAJ        -4.8700    3.8050    2.1380 ha        1 ZZN      0.139000
     45 HAI        -3.8000    1.5730    2.0210 ha        1 ZZN      0.146000
     46 HAA1       -5.3540   -2.7740   -2.0440 hc        1 ZZN      0.059033
     47 HAA2       -5.5340   -4.4210   -1.2910 hc        1 ZZN      0.059033
     48 HAA3       -5.7850   -2.9170   -0.2980 hc        1 ZZN      0.059033
     49 HAC        -3.5430   -5.5020   -0.9130 ha        1 ZZN      0.139000
     50 HAK        -1.1340   -5.5270   -0.3200 ha        1 ZZN      0.136000
     51 HAL         0.0720   -3.4070    0.1760 ha        1 ZZN      0.151000
     52 HAS1       -1.0460    2.1700   -0.4880 h1        1 ZZN      0.105200
     53 HAS2       -1.3610    1.9460    1.3180 h1        1 ZZN      0.105200
     54 H2          0.9450    0.6690    5.1560 h5        1 ZZN      0.055100
     55 HBK1        5.0690   -0.4140    3.4040 hn        1 ZZN      0.439800
     56 HBK2        4.9170   -0.1540    1.7280 hn        1 ZZN      0.439800
     57 HBB         3.8040   -1.7530    0.1300 ha        1 ZZN      0.155000
     58 HBJ         3.9040    2.2780   -1.4700 ha        1 ZZN      0.165000
     59 HBH         6.9460   -0.6040   -2.6440 ha        1 ZZN      0.170000
     60 HAZ         5.4580   -3.1230   -0.6760 ho        1 ZZN      0.426000
@<TRIPOS>BOND
     1    1    2 1   
     2    1   39 1   
     3    1   40 1   
     4    1   41 1   
     5    2    3 ar  
     6    2    7 ar  
     7    3    4 ar  
     8    3   42 1   
     9    4    5 ar  
    10    4   43 1   
    11    5    6 ar  
    12    5   44 1   
    13    6    7 ar  
    14    6   45 1   
    15    7    8 1   
    16    8    9 1   
    17    8   19 1   
    18    9   10 2   
    19    9   11 1   
    20   11   12 ar  
    21   11   17 ar  
    22   12   13 1   
    23   12   14 ar  
    24   13   46 1   
    25   13   47 1   
    26   13   48 1   
    27   14   15 ar  
    28   14   49 1   
    29   15   16 ar  
    30   15   50 1   
    31   16   17 ar  
    32   16   51 1   
    33   17   18 1   
    34   18   19 2   
    35   19   20 1   
    36   20   21 1   
    37   20   52 1   
    38   20   53 1   
    39   21   22 1   
    40   21   23 1   
    41   22   30 2   
    42   23   24 ar  
    43   23   29 ar  
    44   24   25 ar  
    45   25   26 ar  
    46   25   54 1   
    47   26   27 ar  
    48   27   28 1   
    49   27   29 ar  
    50   28   55 1   
    51   28   56 1   
    52   29   30 1   
    53   30   31 1   
    54   31   32 ar  
    55   31   33 ar  
    56   32   37 ar  
    57   32   57 1   
    58   33   34 ar  
    59   33   58 1   
    60   34   35 1   
    61   34   36 ar  
    62   36   37 ar  
    63   36   59 1   
    64   37   38 1   
    65   38   60 1   
@<TRIPOS>SUBSTRUCTURE
     1 ZZN         1 TEMP              0 ****  ****    0 ROOT
