@<TRIPOS>MOLECULE
ZZO
   60    65     1     0     0
SMALL
bcc


@<TRIPOS>ATOM
      1 CAT         0.1070   -0.3470    0.1830 c3        1 ZZO     -0.063800
      2 CAL         1.5710   -0.1460    0.0760 ca        1 ZZO     -0.047300
      3 CAM         2.3620   -0.1650    1.2310 ca        1 ZZO     -0.130000
      4 CAE         3.7430   -0.0020    1.1590 ca        1 ZZO     -0.114000
      5 CAD         4.3580    0.1790   -0.0790 ca        1 ZZO     -0.132000
      6 CAC         3.5970    0.2020   -1.2430 ca        1 ZZO     -0.118000
      7 CAK         2.1960    0.0480   -1.1790 ca        1 ZZO      0.014600
      8 NAJ         1.4310    0.0720   -2.3850 n         1 ZZO     -0.324500
      9 CAI         0.9910   -1.1400   -2.9780 c         1 ZZO      0.717100
     10 OAB         1.2230   -2.2140   -2.3970 o         1 ZZO     -0.610500
     11 CAH         0.2740   -1.0200   -4.2650 ca        1 ZZO     -0.187600
     12 CAG        -0.1820   -2.1610   -4.9550 ca        1 ZZO      0.003700
     13 CAA         0.0350   -3.5270   -4.4250 c3        1 ZZO     -0.063800
     14 CAF        -0.8530   -1.9950   -6.1680 ca        1 ZZO     -0.160000
     15 CAN        -1.0730   -0.7220   -6.6970 ca        1 ZZO     -0.090000
     16 CAO        -0.6320    0.4100   -6.0320 ca        1 ZZO     -0.128000
     17 CAP         0.0520    0.2780   -4.8010 ca        1 ZZO      0.188400
     18 NAQ         0.4900    1.4310   -4.1390 nc        1 ZZO     -0.614100
     19 CAR         1.1380    1.3040   -3.0020 cd        1 ZZO      0.472900
     20 CAS         1.6240    2.5570   -2.2500 c3        1 ZZO      0.022000
     21 NAV         1.2750    3.8300   -2.8390 na        1 ZZO      0.012200
     22 NAU         0.0010    4.3010   -2.8310 nc        1 ZZO     -0.497100
     23 C6          1.9950    4.3820   -3.9370 ca        1 ZZO      0.490800
     24 N1          3.2790    4.1640   -4.3390 nb        1 ZZO     -0.739000
     25 C2          3.6440    4.9610   -5.3750 ca        1 ZZO      0.698900
     26 N3          2.9370    5.9140   -6.0310 nb        1 ZZO     -0.791000
     27 C4          1.6360    6.1310   -5.6240 ca        1 ZZO      0.760200
     28 NBG         0.8580    7.0600   -6.2690 nv        1 ZZO     -0.958500
     29 C5          1.1090    5.3550   -4.5500 ca        1 ZZO     -0.497500
     30 CAZ        -0.1330    5.2370   -3.7960 cd        1 ZZO      0.446500
     31 CBE        -1.3530    6.0060   -4.0150 ca        1 ZZO     -0.121900
     32 CBD        -1.9800    5.9720   -5.2640 ca        1 ZZO     -0.115000
     33 CBH        -3.1560    6.7080   -5.4670 ca        1 ZZO      0.028900
     34 F          -3.7810    6.6930   -6.6720 f         1 ZZO     -0.142900
     35 CBI        -3.7040    7.4710   -4.4080 ca        1 ZZO      0.107100
     36 OBL        -4.8480    8.2160   -4.5470 oh        1 ZZO     -0.485100
     37 CBJ        -3.0720    7.4880   -3.1570 ca        1 ZZO     -0.143000
     38 CBF        -1.9070    6.7540   -2.9660 ca        1 ZZO     -0.079000
     39 HAT1       -0.1970   -1.2450   -0.4140 hc        1 ZZO      0.054033
     40 HAT2       -0.4420    0.5440   -0.2130 hc        1 ZZO      0.054033
     41 HAT3       -0.2030   -0.5080    1.2450 hc        1 ZZO      0.054033
     42 HAM         1.8800   -0.3180    2.2090 ha        1 ZZO      0.138000
     43 HAE         4.3470   -0.0230    2.0780 ha        1 ZZO      0.137000
     44 HAD         5.4500    0.2990   -0.1400 ha        1 ZZO      0.139000
     45 HAC         4.0960    0.3350   -2.2160 ha        1 ZZO      0.146000
     46 HAA1       -0.4500   -3.6330   -3.4210 hc        1 ZZO      0.058700
     47 HAA2        1.1300   -3.7190   -4.2870 hc        1 ZZO      0.058700
     48 HAA3       -0.3830   -4.3010   -5.1130 hc        1 ZZO      0.058700
     49 HAF        -1.2120   -2.8800   -6.7150 ha        1 ZZO      0.139000
     50 HAN        -1.6050   -0.6180   -7.6560 ha        1 ZZO      0.137000
     51 HAO        -0.8090    1.4110   -6.4550 ha        1 ZZO      0.153000
     52 HAS1        2.7510    2.5120   -2.1920 h1        1 ZZO      0.104700
     53 HAS2        1.1880    2.5200   -1.2080 h1        1 ZZO      0.104700
     54 H2          4.6830    4.8130   -5.7450 h5        1 ZZO      0.054100
     55 HBG1        1.2640    7.6700   -6.9360 hn        1 ZZO      0.443300
     56 HBG2       -0.0110    7.3040   -5.8600 hn        1 ZZO      0.443300
     57 HBD        -1.5710    5.3620   -6.0850 ha        1 ZZO      0.165000
     58 HBF        -1.4160    6.7560   -1.9790 ha        1 ZZO      0.155000
     59 HBL        -5.1950    8.0710   -5.4420 ho        1 ZZO      0.433000
     60 HBJ        -3.5140    8.0790   -2.3410 ha        1 ZZO      0.161000
@<TRIPOS>BOND
     1    1    2 1   
     2    1   39 1   
     3    1   40 1   
     4    1   41 1   
     5    2    3 ar  
     6    2    7 ar  
     7    3    4 ar  
     8    3   42 1   
     9    4    5 ar  
    10    4   43 1   
    11    5    6 ar  
    12    5   44 1   
    13    6    7 ar  
    14    6   45 1   
    15    7    8 1   
    16    8    9 1   
    17    8   19 1   
    18    9   10 2   
    19    9   11 1   
    20   11   12 ar  
    21   11   17 ar  
    22   12   13 1   
    23   12   14 ar  
    24   13   46 1   
    25   13   47 1   
    26   13   48 1   
    27   14   15 ar  
    28   14   49 1   
    29   15   16 ar  
    30   15   50 1   
    31   16   17 ar  
    32   16   51 1   
    33   17   18 1   
    34   18   19 2   
    35   19   20 1   
    36   20   21 1   
    37   20   52 1   
    38   20   53 1   
    39   21   22 1   
    40   21   23 1   
    41   22   30 2   
    42   23   24 ar  
    43   23   29 ar  
    44   24   25 ar  
    45   25   26 ar  
    46   25   54 1   
    47   26   27 ar  
    48   27   28 1   
    49   27   29 ar  
    50   28   55 1   
    51   28   56 1   
    52   29   30 1   
    53   30   31 1   
    54   31   32 ar  
    55   31   38 ar  
    56   32   33 ar  
    57   32   57 1   
    58   33   34 1   
    59   33   35 ar  
    60   35   36 1   
    61   35   37 ar  
    62   36   59 1   
    63   37   38 ar  
    64   37   60 1   
    65   38   58 1   
@<TRIPOS>SUBSTRUCTURE
     1 ZZO         1 TEMP              0 ****  ****    0 ROOT
