@<TRIPOS>MOLECULE
ZZO
   60    65     1     0     0
SMALL
bcc


@<TRIPOS>ATOM
      1 CAT        -3.7290    1.2260   -2.9260 c3        1 ZZO     -0.063800
      2 CAL        -4.0770    1.9750   -1.6960 ca        1 ZZO     -0.047300
      3 CAM        -4.7460    3.2010   -1.7930 ca        1 ZZO     -0.130000
      4 CAE        -5.1060    3.9160   -0.6540 ca        1 ZZO     -0.114000
      5 CAD        -4.8040    3.4100    0.6090 ca        1 ZZO     -0.132000
      6 CAC        -4.1400    2.1940    0.7360 ca        1 ZZO     -0.118000
      7 CAK        -3.7620    1.4680   -0.4130 ca        1 ZZO      0.014600
      8 NAJ        -3.0830    0.2200   -0.2630 n         1 ZZO     -0.324500
      9 CAI        -3.7930   -1.0020   -0.3900 c         1 ZZO      0.717100
     10 OAB        -4.9970   -0.9700   -0.7000 o         1 ZZO     -0.610500
     11 CAH        -3.0240   -2.2400   -0.1410 ca        1 ZZO     -0.187600
     12 CAG        -3.6370   -3.5070   -0.2110 ca        1 ZZO      0.003700
     13 CAA        -5.0740   -3.6560   -0.5380 c3        1 ZZO     -0.063800
     14 CAF        -2.8680   -4.6450    0.0330 ca        1 ZZO     -0.160000
     15 CAN        -1.5110   -4.5410    0.3450 ca        1 ZZO     -0.090000
     16 CAO        -0.8920   -3.3030    0.4190 ca        1 ZZO     -0.128000
     17 CAP        -1.6430   -2.1290    0.1760 ca        1 ZZO      0.188400
     18 NAQ        -1.0030   -0.8860    0.2530 nc        1 ZZO     -0.614100
     19 CAR        -1.7070    0.2050    0.0410 cd        1 ZZO      0.472900
     20 CAS        -1.0260    1.5840    0.1110 c3        1 ZZO      0.022000
     21 NAV         0.3980    1.5820    0.3600 na        1 ZZO      0.012200
     22 NAU         1.2900    1.1720   -0.5790 nc        1 ZZO     -0.497100
     23 C6          0.9410    1.4030    1.6640 ca        1 ZZO      0.490800
     24 N1          0.3850    1.6500    2.8840 nb        1 ZZO     -0.739000
     25 C2          1.2580    1.4550    3.9050 ca        1 ZZO      0.698900
     26 N3          2.5600    1.0740    3.8760 nb        1 ZZO     -0.791000
     27 C4          3.1190    0.8220    2.6390 ca        1 ZZO      0.760200
     28 NBG         4.4230    0.4020    2.5450 nh        1 ZZO     -0.958500
     29 C5          2.3140    0.9730    1.4720 ca        1 ZZO     -0.497500
     30 CAZ         2.4530    0.8450    0.0270 cd        1 ZZO      0.446500
     31 CBE         3.6540    0.4380   -0.6930 ca        1 ZZO     -0.121900
     32 CBD         4.2430   -0.7990   -0.4170 ca        1 ZZO     -0.115000
     33 CBH         5.3950   -1.1880   -1.1160 ca        1 ZZO      0.028900
     34 F           5.9860   -2.3840   -0.8640 f         1 ZZO     -0.142900
     35 CBI         5.9460   -0.3340   -2.1010 ca        1 ZZO      0.107100
     36 OBL         7.0740   -0.6550   -2.8130 oh        1 ZZO     -0.485100
     37 CBJ         5.3390    0.9000   -2.3770 ca        1 ZZO     -0.143000
     38 CBF         4.1980    1.2760   -1.6780 ca        1 ZZO     -0.079000
     39 HAT1       -2.6220    1.0840   -2.9990 hc        1 ZZO      0.054033
     40 HAT2       -4.2160    0.2170   -2.9060 hc        1 ZZO      0.054033
     41 HAT3       -4.0750    1.7670   -3.8410 hc        1 ZZO      0.054033
     42 HAM        -4.9940    3.5990   -2.7890 ha        1 ZZO      0.138000
     43 HAE        -5.6330    4.8760   -0.7520 ha        1 ZZO      0.137000
     44 HAD        -5.0940    3.9670    1.5120 ha        1 ZZO      0.139000
     45 HAC        -3.9170    1.7990    1.7400 ha        1 ZZO      0.146000
     46 HAA1       -5.2880   -3.2200   -1.5470 hc        1 ZZO      0.058700
     47 HAA2       -5.3820   -4.7300   -0.5360 hc        1 ZZO      0.058700
     48 HAA3       -5.7000   -3.0990    0.2060 hc        1 ZZO      0.058700
     49 HAF        -3.3380   -5.6390   -0.0190 ha        1 ZZO      0.139000
     50 HAN        -0.9260   -5.4550    0.5340 ha        1 ZZO      0.137000
     51 HAO         0.1780   -3.2270    0.6650 ha        1 ZZO      0.153000
     52 HAS1       -1.2100    2.1060   -0.8740 h1        1 ZZO      0.104700
     53 HAS2       -1.5120    2.1690    0.9470 h1        1 ZZO      0.104700
     54 H2          0.8480    1.6360    4.9220 h5        1 ZZO      0.054100
     55 HBG1        5.0050    0.4070    3.3470 hn        1 ZZO      0.443300
     56 HBG2        4.8410    0.3790    1.6470 hn        1 ZZO      0.443300
     57 HBD         3.8050   -1.4780    0.3310 ha        1 ZZO      0.165000
     58 HBF         3.7130    2.2390   -1.9030 ha        1 ZZO      0.155000
     59 HBL         7.3510   -1.5470   -2.5510 ho        1 ZZO      0.433000
     60 HBJ         5.7750    1.5500   -3.1500 ha        1 ZZO      0.161000
@<TRIPOS>BOND
     1    1    2 1   
     2    1   39 1   
     3    1   40 1   
     4    1   41 1   
     5    2    3 ar  
     6    2    7 ar  
     7    3    4 ar  
     8    3   42 1   
     9    4    5 ar  
    10    4   43 1   
    11    5    6 ar  
    12    5   44 1   
    13    6    7 ar  
    14    6   45 1   
    15    7    8 1   
    16    8    9 1   
    17    8   19 1   
    18    9   10 2   
    19    9   11 1   
    20   11   12 ar  
    21   11   17 ar  
    22   12   13 1   
    23   12   14 ar  
    24   13   46 1   
    25   13   47 1   
    26   13   48 1   
    27   14   15 ar  
    28   14   49 1   
    29   15   16 ar  
    30   15   50 1   
    31   16   17 ar  
    32   16   51 1   
    33   17   18 1   
    34   18   19 2   
    35   19   20 1   
    36   20   21 1   
    37   20   52 1   
    38   20   53 1   
    39   21   22 1   
    40   21   23 1   
    41   22   30 2   
    42   23   24 ar  
    43   23   29 ar  
    44   24   25 ar  
    45   25   26 ar  
    46   25   54 1   
    47   26   27 ar  
    48   27   28 1   
    49   27   29 ar  
    50   28   55 1   
    51   28   56 1   
    52   29   30 1   
    53   30   31 1   
    54   31   32 ar  
    55   31   38 ar  
    56   32   33 ar  
    57   32   57 1   
    58   33   34 1   
    59   33   35 ar  
    60   35   36 1   
    61   35   37 ar  
    62   36   59 1   
    63   37   38 ar  
    64   37   60 1   
    65   38   58 1   
@<TRIPOS>SUBSTRUCTURE
     1 ZZO         1 TEMP              0 ****  ****    0 ROOT
