@<TRIPOS>MOLECULE
ZZO
   61    66     1     0     0
SMALL
bcc


@<TRIPOS>ATOM
      1 CAT        -0.0840   -0.2500    0.0920 c3        1 ZZO     -0.064800
      2 CAL         1.3860   -0.0710    0.0950 ca        1 ZZO     -0.045300
      3 CAM         2.0860   -0.0780    1.3080 ca        1 ZZO     -0.126000
      4 CAE         3.4700    0.0510    1.3400 ca        1 ZZO     -0.104000
      5 CAD         4.1850    0.1880    0.1500 ca        1 ZZO     -0.130000
      6 CAC         3.5180    0.1990   -1.0690 ca        1 ZZO     -0.125000
      7 CAK         2.1120    0.0810   -1.1100 ca        1 ZZO     -0.007400
      8 NAJ         1.4450    0.0840   -2.3740 n         1 ZZO     -0.316500
      9 CAI         1.0230   -1.1370   -2.9750 c         1 ZZO      0.717100
     10 OAB         1.1800   -2.1950   -2.3480 o         1 ZZO     -0.581500
     11 CAH         0.4180   -1.0310   -4.3190 ca        1 ZZO     -0.181600
     12 CAG        -0.0100   -2.1790   -5.0130 ca        1 ZZO      0.013700
     13 CAA         0.1270   -3.5350   -4.4330 c3        1 ZZO     -0.070800
     14 CAF        -0.5780   -2.0310   -6.2820 ca        1 ZZO     -0.148000
     15 CAN        -0.7230   -0.7700   -6.8600 ca        1 ZZO     -0.083000
     16 CAO        -0.3060    0.3710   -6.1900 ca        1 ZZO     -0.136000
     17 CAP         0.2740    0.2570   -4.9060 ca        1 ZZO      0.179400
     18 NAQ         0.6910    1.4170   -4.2390 nc        1 ZZO     -0.647100
     19 CAR         1.2350    1.2970   -3.0460 cd        1 ZZO      0.468900
     20 CAS         1.6960    2.5580   -2.2970 c3        1 ZZO      0.014000
     21 NAV         1.3340    3.8160   -2.9360 na        1 ZZO      0.043200
     22 NAU         0.1060    4.3640   -2.8200 nc        1 ZZO     -0.414100
     23 C6          1.9800    4.2870   -4.1040 ca        1 ZZO      0.487800
     24 N1          3.1990    3.9950   -4.6310 nb        1 ZZO     -0.620000
     25 C2          3.5080    4.7100   -5.7380 ca        1 ZZO      0.690900
     26 N3          2.7650    5.6750   -6.3630 nb        1 ZZO     -0.699000
     27 C4          1.5570    5.9570   -5.8150 ca        1 ZZO      0.550200
     28 NBG         0.7340    7.0070   -6.4540 n4        1 ZZO     -0.832300
     29 C5          1.0750    5.2960   -4.6800 ca        1 ZZO     -0.413500
     30 CAZ        -0.0870    5.2760   -3.8000 cd        1 ZZO      0.417500
     31 CBE        -1.2730    6.1080   -3.9430 ca        1 ZZO     -0.160900
     32 CBD        -2.0120    6.0520   -5.1340 ca        1 ZZO     -0.186000
     33 CBH        -3.1530    6.8500   -5.2890 ca        1 ZZO      0.107900
     34 F          -3.8560    6.8120   -6.4400 f         1 ZZO     -0.105900
     35 CBI        -3.5640    7.6960   -4.2200 ca        1 ZZO      0.128100
     36 OBL        -4.6730    8.4580   -4.4470 oh        1 ZZO     -0.461100
     37 CBJ        -2.8320    7.7180   -3.0270 ca        1 ZZO     -0.185000
     38 CBF        -1.6950    6.9250   -2.8890 ca        1 ZZO     -0.060000
     39 HAT1       -0.5890    0.6300   -0.3800 hc        1 ZZO      0.056033
     40 HAT2       -0.4800   -0.3650    1.1310 hc        1 ZZO      0.056033
     41 HAT3       -0.3530   -1.1690   -0.4910 hc        1 ZZO      0.056033
     42 HAM         1.5260   -0.2020    2.2490 ha        1 ZZO      0.147000
     43 HAE         4.0030    0.0350    2.3040 ha        1 ZZO      0.147000
     44 HAD         5.2830    0.2730    0.1720 ha        1 ZZO      0.145000
     45 HAC         4.0960    0.2830   -2.0030 ha        1 ZZO      0.142000
     46 HAA1       -0.2550   -4.3180   -5.1330 hc        1 ZZO      0.066033
     47 HAA2       -0.4420   -3.6030   -3.4700 hc        1 ZZO      0.066033
     48 HAA3        1.2010   -3.7510   -4.2010 hc        1 ZZO      0.066033
     49 HAF        -0.9160   -2.9240   -6.8320 ha        1 ZZO      0.150000
     50 HAN        -1.1750   -0.6800   -7.8600 ha        1 ZZO      0.143000
     51 HAO        -0.4270    1.3600   -6.6540 ha        1 ZZO      0.138000
     52 HAS1        2.8230    2.5360   -2.2210 h1        1 ZZO      0.120700
     53 HAS2        1.2450    2.5480   -1.2590 h1        1 ZZO      0.120700
     54 H2          4.4940    4.4910   -6.2120 h5        1 ZZO      0.100100
     55 HBG1        0.5160    6.7370   -7.4210 hn        1 ZZO      0.478133
     56 HBG2       -0.1430    7.1130   -5.9170 hn        1 ZZO      0.478133
     57 HBD        -1.7530    5.3300   -5.9250 ha        1 ZZO      0.155000
     58 HBF        -1.1340    6.9360   -1.9400 ha        1 ZZO      0.165000
     59 HBL        -4.9180    8.9050   -3.6190 ho        1 ZZO      0.444000
     60 HBJ        -3.1660    8.3530   -2.1910 ha        1 ZZO      0.165000
     61 HBG3        1.2480    7.8960   -6.4650 hn        1 ZZO      0.478133
@<TRIPOS>BOND
     1    1    2 1   
     2    1   39 1   
     3    1   40 1   
     4    1   41 1   
     5    2    3 ar  
     6    2    7 ar  
     7    3    4 ar  
     8    3   42 1   
     9    4    5 ar  
    10    4   43 1   
    11    5    6 ar  
    12    5   44 1   
    13    6    7 ar  
    14    6   45 1   
    15    7    8 1   
    16    8    9 1   
    17    8   19 1   
    18    9   10 2   
    19    9   11 1   
    20   11   12 ar  
    21   11   17 ar  
    22   12   13 1   
    23   12   14 ar  
    24   13   46 1   
    25   13   47 1   
    26   13   48 1   
    27   14   15 ar  
    28   14   49 1   
    29   15   16 ar  
    30   15   50 1   
    31   16   17 ar  
    32   16   51 1   
    33   17   18 1   
    34   18   19 2   
    35   19   20 1   
    36   20   21 1   
    37   20   52 1   
    38   20   53 1   
    39   21   22 1   
    40   21   23 1   
    41   22   30 2   
    42   23   24 ar  
    43   23   29 ar  
    44   24   25 ar  
    45   25   26 ar  
    46   25   54 1   
    47   26   27 ar  
    48   27   28 1   
    49   27   29 ar  
    50   28   55 1   
    51   28   56 1   
    52   28   61 1   
    53   29   30 1   
    54   30   31 1   
    55   31   32 ar  
    56   31   38 ar  
    57   32   33 ar  
    58   32   57 1   
    59   33   34 1   
    60   33   35 ar  
    61   35   36 1   
    62   35   37 ar  
    63   36   59 1   
    64   37   38 ar  
    65   37   60 1   
    66   38   58 1   
@<TRIPOS>SUBSTRUCTURE
     1 ZZO         1 TEMP              0 ****  ****    0 ROOT
