@<TRIPOS>MOLECULE
ZZP
   52    55     1     0     0
SMALL
bcc


@<TRIPOS>ATOM
      1 CAY         0.9510   -2.2230   -0.2490 c3        1 ZZP      0.105700
      2 OBE         2.1400   -1.4550   -0.0430 os        1 ZZP     -0.299900
      3 CAK         2.1790   -0.6360    1.0450 ce        1 ZZP      0.288100
      4 CBF         1.1580   -0.4890    1.9560 cf        1 ZZP     -0.469600
      5 CAW         3.4200    0.0920    1.1450 ce        1 ZZP     -0.292000
      6 CBB         3.6030    0.9080    2.2140 c2        1 ZZP      0.171900
      7 OBC         4.7140    1.6680    2.4500 os        1 ZZP     -0.313900
      8 CBD         5.7690    1.5790    1.4890 c3        1 ZZP      0.105700
      9 CBA         2.6110    1.0710    3.3130 c3        1 ZZP     -0.132500
     10 CAZ         1.2680    0.4080    3.0670 cf        1 ZZP      0.674600
     11 NAX         0.3470    0.7380    3.9560 ne        1 ZZP     -0.874700
     12 CAR        -0.9660    0.2900    4.0350 ca        1 ZZP      0.611000
     13 NAS        -1.6160   -0.5130    3.1790 nb        1 ZZP     -0.673000
     14 CAT        -2.9380   -0.8000    3.4050 ca        1 ZZP      0.359300
     15 CAU        -3.6520   -1.6520    2.5020 ca        1 ZZP     -0.179300
     16 CAV        -4.9760   -1.9340    2.7220 ca        1 ZZP     -0.079000
     17 CAQ        -5.6660   -1.3970    3.8370 ca        1 ZZP     -0.117000
     18 CAP        -5.0270   -0.5790    4.7320 ca        1 ZZP     -0.144300
     19 CAO        -3.6450   -0.2580    4.5430 ca        1 ZZP      0.268300
     20 NAN        -2.9940    0.5500    5.4420 nb        1 ZZP     -0.602000
     21 CAM        -1.7120    0.8210    5.2110 ca        1 ZZP      0.348900
     22 NAL        -0.9960    1.6750    6.1640 n4        1 ZZP     -0.661600
     23 SAI        -0.3510    3.2740    5.3610 sy        1 ZZP      1.498200
     24 OAJ         1.0190    3.1540    5.5080 o         1 ZZP     -0.566300
     25 OAH        -0.9730    3.3800    4.1380 o         1 ZZP     -0.566300
     26 CAG        -0.9990    4.2630    6.4750 ca        1 ZZP     -0.550500
     27 CAF        -0.2530    4.6860    7.5960 ca        1 ZZP      0.032000
     28 CAE        -0.7680    5.5840    8.5130 ca        1 ZZP     -0.194000
     29 CAB        -2.0720    6.0980    8.3250 ca        1 ZZP      0.257900
     30 FAA        -2.5830    6.9700    9.2080 f         1 ZZP     -0.088900
     31 CAC        -2.8350    5.6940    7.2050 ca        1 ZZP     -0.194000
     32 CAD        -2.2950    4.7950    6.3040 ca        1 ZZP      0.032000
     33 HAY1        0.7820   -2.9150    0.6110 h1        1 ZZP      0.062367
     34 HAY2        1.1810   -2.7940   -1.1850 h1        1 ZZP      0.062367
     35 HAY3        0.0740   -1.5470   -0.3980 h1        1 ZZP      0.062367
     36 HBF         0.2270   -1.0580    1.8190 ha        1 ZZP      0.179000
     37 HAW         4.1640   -0.0430    0.3470 ha        1 ZZP      0.177000
     38 HBA1        2.4770    2.1720    3.5240 hc        1 ZZP      0.119700
     39 HBA2        3.0610    0.6260    4.2500 hc        1 ZZP      0.119700
     40 HBD1        6.5460    2.2720    1.9010 h1        1 ZZP      0.062367
     41 HBD2        5.4120    1.9260    0.4890 h1        1 ZZP      0.062367
     42 HBD3        6.1560    0.5330    1.4330 h1        1 ZZP      0.062367
     43 HAU        -3.1220   -2.0710    1.6320 ha        1 ZZP      0.163000
     44 HAV        -5.5250   -2.5890    2.0250 ha        1 ZZP      0.158000
     45 HAQ        -6.7300   -1.6490    3.9760 ha        1 ZZP      0.159000
     46 HAP        -5.5620   -0.1610    5.6010 ha        1 ZZP      0.160000
     47 HAL        -1.5950    1.8820    6.9660 hn        1 ZZP      0.460300
     48 HAF         0.7770    4.3040    7.7340 ha        1 ZZP      0.172000
     49 HAD        -2.8870    4.4980    5.4170 ha        1 ZZP      0.172000
     50 HAE        -0.1740    5.9120    9.3830 ha        1 ZZP      0.185000
     51 HAC        -3.8480    6.1060    7.0590 ha        1 ZZP      0.185000
     52 HAL2       -0.1990    1.1300    6.5080 hn        1 ZZP      0.460300
@<TRIPOS>BOND
     1    1    2 1   
     2    1   33 1   
     3    1   34 1   
     4    1   35 1   
     5    2    3 1   
     6    3    4 2   
     7    3    5 1   
     8    4   10 1   
     9    4   36 1   
    10    5    6 2   
    11    5   37 1   
    12    6    7 1   
    13    6    9 1   
    14    7    8 1   
    15    8   40 1   
    16    8   41 1   
    17    8   42 1   
    18    9   10 1   
    19    9   38 1   
    20    9   39 1   
    21   10   11 2   
    22   11   12 1   
    23   12   13 ar  
    24   12   21 ar  
    25   13   14 ar  
    26   14   15 ar  
    27   14   19 ar  
    28   15   16 ar  
    29   15   43 1   
    30   16   17 ar  
    31   16   44 1   
    32   17   18 ar  
    33   17   45 1   
    34   18   19 ar  
    35   18   46 1   
    36   19   20 ar  
    37   20   21 ar  
    38   21   22 1   
    39   22   23 1   
    40   22   47 1   
    41   22   52 1   
    42   23   24 2   
    43   23   25 2   
    44   23   26 1   
    45   26   27 ar  
    46   26   32 ar  
    47   27   28 ar  
    48   27   48 1   
    49   28   29 ar  
    50   28   50 1   
    51   29   30 1   
    52   29   31 ar  
    53   31   32 ar  
    54   31   51 1   
    55   32   49 1   
@<TRIPOS>SUBSTRUCTURE
     1 ZZP         1 TEMP              0 ****  ****    0 ROOT
