@<TRIPOS>MOLECULE
ZZP
   51    44     1     0     0
SMALL
bcc


@<TRIPOS>ATOM
      1 CAY         6.5100   -1.4400   -1.5870 c3        1 ZZP     -0.075000
      2 OBE         5.7080   -0.3160   -1.2260 os        1 ZZP     -0.204000
      3 CAK         4.2980   -0.5300   -1.4030 c2        1 ZZP      0.155000
      4 CBF         3.4280   -0.7580   -0.2210 c1        1 ZZP     -0.248000
      5 CAW         3.7410   -0.6490   -2.7520 c2        1 ZZP     -0.312000
      6 CBB         2.3360   -1.1600   -2.9410 c1        1 ZZP      0.116000
      7 OBC         1.9490   -1.7060   -4.1780 o         1 ZZP     -0.203000
      8 CBD         1.6340   -0.7310   -5.1700 c3        1 ZZP     -0.081000
      9 CBA         1.2870   -0.9610   -1.8240 c3        1 ZZP     -0.156000
     10 CAZ         1.9030   -0.8700   -0.3970 c1        1 ZZP      0.136000
     11 NAX         1.1100   -0.9000    0.6740 n1        1 ZZP     -0.223000
     12 CAR        -0.3430   -1.0080    0.5070 c1        1 ZZP      0.036000
     13 NAS        -0.5440   -2.3430    0.4330 n2        1 ZZP     -0.155000
     14 CAT        -1.8220   -2.8460    0.4450 c1        1 ZZP     -0.050000
     15 CAU        -2.0360   -4.2210    0.2600 c1        1 ZZP     -0.109750
     16 CAV        -3.3370   -4.7190    0.1670 c1        1 ZZP     -0.109750
     17 CAQ        -4.4300   -3.8470    0.2570 c1        1 ZZP     -0.109750
     18 CAP        -4.2190   -2.4880    0.4390 c1        1 ZZP     -0.109750
     19 CAO        -2.9030   -1.9840    0.5340 c1        1 ZZP      0.007000
     20 NAN        -2.6950   -0.6290    0.6100 n1        1 ZZP     -0.190000
     21 CAM        -1.4430   -0.1360    0.5980 c1        1 ZZP      0.148000
     22 NAL        -1.2680    1.2830    0.9320 n3        1 ZZP     -0.792000
     23 SAI        -2.5730    2.2070    1.2750 s4        1 ZZP      2.091800
     24 OAJ        -3.1700    2.7350    0.0780 o         1 ZZP     -0.526400
     25 OAH        -3.6310    1.4290    1.7850 o         1 ZZP     -0.526400
     26 CAG        -2.1160    3.5410    2.4330 c1        1 ZZP     -0.852000
     27 CAF        -2.8270    3.7080    3.6100 c2        1 ZZP      0.010000
     28 CAE        -2.4360    4.6740    4.5290 c1        1 ZZP     -0.197000
     29 CAB        -1.3330    5.4720    4.2710 c1        1 ZZP      0.157000
     30 FAA        -0.9410    6.3890    5.1750 f         1 ZZP     -0.095000
     31 CAC        -0.6170    5.3080    3.0930 c1        1 ZZP     -0.197000
     32 CAD        -1.0080    4.3410    2.1720 c1        1 ZZP      0.010000
     33 HAY1        6.1330   -2.2630   -1.1700 h1        1 ZZP      0.086333
     34 HAY2        6.5110   -1.5420   -2.5870 h1        1 ZZP      0.086333
     35 HAY3        7.4360   -1.3040   -1.2690 h1        1 ZZP      0.086333
     36 HBF         3.8210   -0.8850    0.6430 ha        1 ZZP      0.166000
     37 HAW         4.2660   -0.3730   -3.5200 ha        1 ZZP      0.149000
     38 HBA1        0.6200   -0.2570   -1.9360 hc        1 ZZP      0.155000
     39 HBA2        0.6990   -1.7620   -1.8850 hc        1 ZZP      0.155000
     40 HBD1        1.1270   -0.0020   -4.7620 h1        1 ZZP      0.090667
     41 HBD2        2.4610   -0.3780   -5.5550 h1        1 ZZP      0.090667
     42 HBD3        1.1040   -1.1400   -5.8670 h1        1 ZZP      0.090667
     43 HAU        -1.2470   -4.8530    0.1950 ha        1 ZZP      0.144750
     44 HAV        -3.4820   -5.6530    0.0420 ha        1 ZZP      0.144750
     45 HAQ        -5.3510   -4.2010    0.1900 ha        1 ZZP      0.144750
     46 HAP        -4.9810   -1.8800    0.5020 ha        1 ZZP      0.144750
     47 HAL        -0.4600    1.6160    1.0190 hn        1 ZZP      0.276000
     48 HAF        -3.5970    3.1520    3.7930 ha        1 ZZP      0.163000
     49 HAD        -0.5040    4.2240    1.3380 ha        1 ZZP      0.163000
     50 HAE        -2.9290    4.7880    5.3420 ha        1 ZZP      0.158000
     51 HAC         0.1600    5.8700    2.9110 ha        1 ZZP      0.158000
@<TRIPOS>BOND
     1    1    2 1   
     2    1   33 1   
     3    1   34 1   
     4    1   35 1   
     5    2    3 1   
     6    3    4 1   
     7    3    5 1   
     8    4   36 1   
     9    5    6 1   
    10    5   37 1   
    11    6    9 1   
    12    7    8 1   
    13    8   40 1   
    14    8   41 1   
    15    8   42 1   
    16    9   10 1   
    17    9   38 1   
    18    9   39 1   
    19   10   11 1   
    20   12   13 1   
    21   12   21 1   
    22   13   14 1   
    23   14   19 1   
    24   15   16 1   
    25   15   43 1   
    26   16   44 1   
    27   17   18 1   
    28   17   45 1   
    29   18   46 1   
    30   19   20 1   
    31   21   22 1   
    32   22   23 1   
    33   22   47 1   
    34   23   24 1   
    35   23   25 1   
    36   26   27 1   
    37   26   32 1   
    38   27   28 1   
    39   27   48 1   
    40   28   50 1   
    41   29   30 1   
    42   29   31 1   
    43   31   51 1   
    44   32   49 1   
@<TRIPOS>SUBSTRUCTURE
     1 ZZP         1 TEMP              0 ****  ****    0 ROOT
