@<TRIPOS>MOLECULE
ZZP
   51    54     1     0     0
SMALL
bcc


@<TRIPOS>ATOM
      1 CAY        -4.8040   -2.8790    1.7800 c3        1 ZZP      0.108700
      2 OBE        -5.5520   -1.8030    1.2170 os        1 ZZP     -0.319900
      3 CAK        -4.8320   -0.8200    0.5830 ce        1 ZZP      0.224100
      4 CBF        -3.4770   -0.7920    0.4650 cf        1 ZZP     -0.422600
      5 CAW        -5.6850    0.2160    0.0400 ce        1 ZZP     -0.268000
      6 CBB        -5.1000    1.2680   -0.5780 c2        1 ZZP      0.138900
      7 OBC        -5.7700    2.3300   -1.1370 os        1 ZZP     -0.322900
      8 CBD        -7.1920    2.3050   -1.0390 c3        1 ZZP      0.108700
      9 CBA        -3.6290    1.4420   -0.7400 c3        1 ZZP     -0.111500
     10 CAZ        -2.7900    0.2820   -0.2320 cf        1 ZZP      0.597600
     11 NAX        -1.5080    0.4000   -0.4470 ne        1 ZZP     -0.738700
     12 CAR        -0.5280   -0.5550   -0.1200 ca        1 ZZP      0.528000
     13 NAS        -0.6860   -1.8640   -0.3240 nb        1 ZZP     -0.663000
     14 CAT         0.3840   -2.7060   -0.0980 ca        1 ZZP      0.280300
     15 CAU         0.2460   -4.1100   -0.3200 ca        1 ZZP     -0.154300
     16 CAV         1.3050   -4.9520   -0.0860 ca        1 ZZP     -0.133000
     17 CAQ         2.5420   -4.4500    0.3750 ca        1 ZZP     -0.118000
     18 CAP         2.7180   -3.1060    0.5980 ca        1 ZZP     -0.167300
     19 CAO         1.6440   -2.1960    0.3640 ca        1 ZZP      0.324300
     20 NAN         1.8250   -0.8450    0.5800 nb        1 ZZP     -0.722000
     21 CAM         0.7920   -0.0260    0.3570 ca        1 ZZP      0.601900
     22 NAL         0.9740    1.3370    0.5930 nh        1 ZZP     -0.851800
     23 SAI         2.2700    2.0570    1.3140 sy        1 ZZP      1.520200
     24 OAJ         1.9350    3.4290    1.3820 o         1 ZZP     -0.644300
     25 OAH         2.6050    1.4390    2.5260 o         1 ZZP     -0.644300
     26 CAG         3.5170    1.8650    0.2090 ca        1 ZZP     -0.405500
     27 CAF         3.6600    2.7560   -0.8640 ca        1 ZZP      0.023500
     28 CAE         4.7020    2.6350   -1.7720 ca        1 ZZP     -0.201000
     29 CAB         5.6370    1.5930   -1.6080 ca        1 ZZP      0.194900
     30 FAA         6.6550    1.4600   -2.4860 f         1 ZZP     -0.130900
     31 CAC         5.5160    0.6930   -0.5310 ca        1 ZZP     -0.201000
     32 CAD         4.4600    0.8400    0.3600 ca        1 ZZP      0.023500
     33 HAY1       -4.2300   -3.4150    0.9860 h1        1 ZZP      0.053033
     34 HAY2       -4.1170   -2.5030    2.5760 h1        1 ZZP      0.053033
     35 HAY3       -5.5950   -3.5400    2.2160 h1        1 ZZP      0.053033
     36 HBF        -2.8630   -1.5950    0.8970 ha        1 ZZP      0.163000
     37 HAW        -6.7710    0.0990    0.1580 ha        1 ZZP      0.163000
     38 HBA1       -3.4130    1.6110   -1.8340 hc        1 ZZP      0.104700
     39 HBA2       -3.3270    2.3840   -0.1990 hc        1 ZZP      0.104700
     40 HBD1       -7.5100    2.3060    0.0310 h1        1 ZZP      0.052700
     41 HBD2       -7.5030    3.2520   -1.5490 h1        1 ZZP      0.052700
     42 HBD3       -7.6040    1.4130   -1.5710 h1        1 ZZP      0.052700
     43 HAU        -0.7180   -4.5020   -0.6820 ha        1 ZZP      0.148000
     44 HAV         1.2000   -6.0350   -0.2580 ha        1 ZZP      0.137000
     45 HAQ         3.3690   -5.1530    0.5560 ha        1 ZZP      0.137000
     46 HAP         3.6820   -2.7150    0.9610 ha        1 ZZP      0.148000
     47 HAL         0.2260    1.9110    0.2610 hn        1 ZZP      0.478800
     48 HAF         2.9350    3.5830   -0.9770 ha        1 ZZP      0.163500
     49 HAD         4.3620    0.1390    1.2110 ha        1 ZZP      0.163500
     50 HAE         4.8090    3.3370   -2.6100 ha        1 ZZP      0.157000
     51 HAC         6.2530   -0.1130   -0.4070 ha        1 ZZP      0.157000
@<TRIPOS>BOND
     1    1    2 1   
     2    1   33 1   
     3    1   34 1   
     4    1   35 1   
     5    2    3 1   
     6    3    4 2   
     7    3    5 1   
     8    4   10 1   
     9    4   36 1   
    10    5    6 2   
    11    5   37 1   
    12    6    7 1   
    13    6    9 1   
    14    7    8 1   
    15    8   40 1   
    16    8   41 1   
    17    8   42 1   
    18    9   10 1   
    19    9   38 1   
    20    9   39 1   
    21   10   11 2   
    22   11   12 1   
    23   12   13 ar  
    24   12   21 ar  
    25   13   14 ar  
    26   14   15 ar  
    27   14   19 ar  
    28   15   16 ar  
    29   15   43 1   
    30   16   17 ar  
    31   16   44 1   
    32   17   18 ar  
    33   17   45 1   
    34   18   19 ar  
    35   18   46 1   
    36   19   20 ar  
    37   20   21 ar  
    38   21   22 1   
    39   22   23 1   
    40   22   47 1   
    41   23   24 2   
    42   23   25 2   
    43   23   26 1   
    44   26   27 ar  
    45   26   32 ar  
    46   27   28 ar  
    47   27   48 1   
    48   28   29 ar  
    49   28   50 1   
    50   29   30 1   
    51   29   31 ar  
    52   31   32 ar  
    53   31   51 1   
    54   32   49 1   
@<TRIPOS>SUBSTRUCTURE
     1 ZZP         1 TEMP              0 ****  ****    0 ROOT
