@<TRIPOS>MOLECULE
ZZP
   51    54     1     0     0
SMALL
bcc


@<TRIPOS>ATOM
      1 CAY         0.5720   -1.7260   -0.4990 c3        1 ZZP      0.108700
      2 OBE         1.9540   -1.4960   -0.2290 os        1 ZZP     -0.319900
      3 CAK         2.2470   -0.7680    0.8990 ce        1 ZZP      0.224100
      4 CBF         1.3280   -0.2480    1.7570 cf        1 ZZP     -0.422600
      5 CAW         3.6730   -0.6030    1.0850 ce        1 ZZP     -0.268000
      6 CBB         4.0990    0.1300    2.1400 c2        1 ZZP      0.138900
      7 OBC         5.4150    0.3830    2.4480 os        1 ZZP     -0.322900
      8 CBD         6.3900   -0.1730    1.5680 c3        1 ZZP      0.108700
      9 CBA         3.2010    0.7860    3.1310 c3        1 ZZP     -0.111500
     10 CAZ         1.7210    0.5050    2.9360 cf        1 ZZP      0.597600
     11 NAX         0.9430    1.0180    3.8500 ne        1 ZZP     -0.738700
     12 CAR        -0.4530    0.8590    3.9240 ca        1 ZZP      0.528000
     13 NAS        -1.0700   -0.3040    3.7080 nb        1 ZZP     -0.663000
     14 CAT        -2.4280   -0.3890    3.9370 ca        1 ZZP      0.280300
     15 CAU        -3.1110   -1.6260    3.7260 ca        1 ZZP     -0.154300
     16 CAV        -4.4640   -1.7120    3.9440 ca        1 ZZP     -0.133000
     17 CAQ        -5.2010   -0.5870    4.3770 ca        1 ZZP     -0.118000
     18 CAP        -4.5830    0.6200    4.5960 ca        1 ZZP     -0.167300
     19 CAO        -3.1770    0.7510    4.3850 ca        1 ZZP      0.324300
     20 NAN        -2.5550    1.9620    4.6130 nb        1 ZZP     -0.722000
     21 CAM        -1.2390    2.0470    4.3960 ca        1 ZZP      0.601900
     22 NAL        -0.6170    3.2760    4.6120 nu        1 ZZP     -0.851800
     23 SAI        -1.3510    4.7210    4.9190 sy        1 ZZP      1.520200
     24 OAJ        -0.2960    5.6600    4.9830 o         1 ZZP     -0.644300
     25 OAH        -2.3720    4.9960    4.0000 o         1 ZZP     -0.644300
     26 CAG        -1.9970    4.5380    6.4560 ca        1 ZZP     -0.405500
     27 CAF        -1.1990    4.7380    7.5910 ca        1 ZZP      0.023500
     28 CAE        -1.7200    4.6220    8.8720 ca        1 ZZP     -0.201000
     29 CAB        -3.0830    4.2980    9.0320 ca        1 ZZP      0.194900
     30 FAA        -3.6040    4.1790   10.2730 f         1 ZZP     -0.130900
     31 CAC        -3.9020    4.1020    7.9040 ca        1 ZZP     -0.201000
     32 CAD        -3.3510    4.2230    6.6340 ca        1 ZZP      0.023500
     33 HAY1        0.0990   -2.2960    0.3370 h1        1 ZZP      0.053033
     34 HAY2        0.5930   -2.3380   -1.4370 h1        1 ZZP      0.053033
     35 HAY3        0.0410   -0.7580   -0.6680 h1        1 ZZP      0.053033
     36 HBF         0.2530   -0.3900    1.5760 ha        1 ZZP      0.163000
     37 HAW         4.3430   -1.0790    0.3570 ha        1 ZZP      0.163000
     38 HBA1        3.3780    1.8990    3.0790 hc        1 ZZP      0.104700
     39 HBA2        3.5140    0.4550    4.1620 hc        1 ZZP      0.104700
     40 HBD1        6.2610    0.2330    0.5350 h1        1 ZZP      0.052700
     41 HBD2        6.3210   -1.2880    1.5640 h1        1 ZZP      0.052700
     42 HBD3        7.3600    0.1650    2.0120 h1        1 ZZP      0.052700
     43 HAU        -2.5360   -2.5030    3.3910 ha        1 ZZP      0.148000
     44 HAV        -4.9910   -2.6650    3.7820 ha        1 ZZP      0.137000
     45 HAQ        -6.2850   -0.6900    4.5380 ha        1 ZZP      0.137000
     46 HAP        -5.1580    1.4970    4.9300 ha        1 ZZP      0.148000
     47 HAL         0.3810    3.2380    4.5870 hn        1 ZZP      0.478800
     48 HAF        -0.1360    5.0110    7.4610 ha        1 ZZP      0.163500
     49 HAD        -3.9910    4.0740    5.7440 ha        1 ZZP      0.163500
     50 HAE        -1.0890    4.7810    9.7580 ha        1 ZZP      0.157000
     51 HAC        -4.9660    3.8560    8.0370 ha        1 ZZP      0.157000
@<TRIPOS>BOND
     1    1    2 1   
     2    1   33 1   
     3    1   34 1   
     4    1   35 1   
     5    2    3 1   
     6    3    4 2   
     7    3    5 1   
     8    4   10 1   
     9    4   36 1   
    10    5    6 2   
    11    5   37 1   
    12    6    7 1   
    13    6    9 1   
    14    7    8 1   
    15    8   40 1   
    16    8   41 1   
    17    8   42 1   
    18    9   10 1   
    19    9   38 1   
    20    9   39 1   
    21   10   11 2   
    22   11   12 1   
    23   12   13 ar  
    24   12   21 ar  
    25   13   14 ar  
    26   14   15 ar  
    27   14   19 ar  
    28   15   16 ar  
    29   15   43 1   
    30   16   17 ar  
    31   16   44 1   
    32   17   18 ar  
    33   17   45 1   
    34   18   19 ar  
    35   18   46 1   
    36   19   20 ar  
    37   20   21 ar  
    38   21   22 1   
    39   22   23 1   
    40   22   47 1   
    41   23   24 2   
    42   23   25 2   
    43   23   26 1   
    44   26   27 ar  
    45   26   32 ar  
    46   27   28 ar  
    47   27   48 1   
    48   28   29 ar  
    49   28   50 1   
    50   29   30 1   
    51   29   31 ar  
    52   31   32 ar  
    53   31   51 1   
    54   32   49 1   
@<TRIPOS>SUBSTRUCTURE
     1 ZZP         1 TEMP              0 ****  ****    0 ROOT
