@<TRIPOS>MOLECULE
ZZQ
   58    62     1     0     0
SMALL
bcc


@<TRIPOS>ATOM
      1 CBC         0.0540    1.1250    0.0930 c3        1 ZZQ      0.113700
      2 OBB         1.4530    1.2540    0.3520 os        1 ZZQ     -0.350900
      3 CBG         1.9150    0.6030    1.4800 ca        1 ZZQ      0.143100
      4 CBH         1.1030    0.3550    2.5950 ca        1 ZZQ     -0.191000
      5 CBE         1.6380   -0.2600    3.7220 ca        1 ZZQ     -0.065000
      6 CBD         2.9830   -0.6300    3.7510 ca        1 ZZQ     -0.151000
      7 CAU         3.8010   -0.3940    2.6510 ca        1 ZZQ     -0.064000
      8 CBF         3.2880    0.2320    1.4980 ca        1 ZZQ     -0.048400
      9 NAT         4.1270    0.4210    0.3580 n         1 ZZQ     -0.254500
     10 CAS         4.2430   -0.5930   -0.6480 c         1 ZZQ      0.697700
     11 OBA         3.6460   -1.6660   -0.5010 o         1 ZZQ     -0.560500
     12 CAR         5.0980   -0.2500   -1.8000 cc        1 ZZQ     -0.182400
     13 CAQ         5.2800   -1.3220   -2.8090 c3        1 ZZQ     -0.034200
     14 CAP         5.8770   -0.8060   -4.1010 c3        1 ZZQ     -0.080400
     15 CAB         7.0130    0.1560   -3.8310 c3        1 ZZQ     -0.081400
     16 CAC         6.5350    1.3720   -3.0620 c3        1 ZZQ     -0.030200
     17 CAD         5.6820    0.9910   -1.8860 cd        1 ZZQ      0.160400
     18 NAE         5.4940    1.9580   -0.8990 nd        1 ZZQ     -0.734300
     19 CAF         4.7650    1.6350    0.1640 cc        1 ZZQ      0.482800
     20 SAG         4.5680    2.8510    1.4140 ss        1 ZZQ     -0.083300
     21 CAH         5.9990    3.8520    1.2350 c3        1 ZZQ     -0.145300
     22 CAI         6.1910    4.5540   -0.0690 c         1 ZZQ      0.584100
     23 OAA         7.2480    4.8880   -0.5790 o         1 ZZQ     -0.407100
     24 NAJ         4.9330    4.8670   -0.8590 n4        1 ZZQ     -0.543200
     25 CAK         4.5950    6.2920   -0.8310 ca        1 ZZQ     -0.054400
     26 CAL         5.4230    7.2100   -1.4590 ca        1 ZZQ     -0.101300
     27 CAM         5.0720    8.5890   -1.4440 ca        1 ZZQ      0.279300
     28 NAN         5.8990    9.5130   -2.0750 nb        1 ZZQ     -0.608000
     29 CAO         5.5220   10.7740   -2.0280 ca        1 ZZQ      0.323900
     30 CAZ         4.3040   11.1970   -1.3530 ca        1 ZZQ      0.336900
     31 NAY         3.5010   10.3470   -0.7470 nb        1 ZZQ     -0.612000
     32 CAX         3.8690    9.0070   -0.7780 ca        1 ZZQ      0.313300
     33 CAW         3.0490    8.0240   -0.1460 ca        1 ZZQ     -0.114300
     34 CAV         3.4010    6.6990   -0.1700 ca        1 ZZQ     -0.133000
     35 HBC1       -0.2810    0.0660    0.2040 h1        1 ZZQ      0.054700
     36 HBC2       -0.5200    1.7960    0.7780 h1        1 ZZQ      0.054700
     37 HBC3       -0.0470    1.4640   -0.9690 h1        1 ZZQ      0.054700
     38 HBH         0.0400    0.6350    2.5750 ha        1 ZZQ      0.153000
     39 HBE         0.9930   -0.4600    4.5930 ha        1 ZZQ      0.153000
     40 HBD         3.3990   -1.1240    4.6420 ha        1 ZZQ      0.155000
     41 HAU         4.8550   -0.7150    2.6810 ha        1 ZZQ      0.152000
     42 HAQ1        5.9490   -2.1110   -2.3650 hc        1 ZZQ      0.078200
     43 HAQ2        4.2900   -1.8150   -3.0120 hc        1 ZZQ      0.078200
     44 HAP1        6.2510   -1.6730   -4.7060 hc        1 ZZQ      0.056200
     45 HAP2        5.0850   -0.2920   -4.7070 hc        1 ZZQ      0.056200
     46 HAB1        7.8160   -0.3670   -3.2480 hc        1 ZZQ      0.058200
     47 HAB2        7.4650    0.4930   -4.8000 hc        1 ZZQ      0.058200
     48 HAC1        5.9240    2.0290   -3.7390 hc        1 ZZQ      0.059200
     49 HAC2        7.4250    1.9670   -2.7230 hc        1 ZZQ      0.059200
     50 HAH1        5.9210    4.6210    2.0560 h1        1 ZZQ      0.154200
     51 HAH2        6.9420    3.2630    1.4230 h1        1 ZZQ      0.154200
     52 HAJ         5.0850    4.5770   -1.8360 hn        1 ZZQ      0.476300
     53 HAL         6.3590    6.9020   -1.9640 ha        1 ZZQ      0.186000
     54 HAV         2.7500    5.9550    0.3200 ha        1 ZZQ      0.158000
     55 HAO         6.1700   11.5210   -2.5260 h4        1 ZZQ      0.062100
     56 HAZ         4.0230   12.2680   -1.3370 h4        1 ZZQ      0.062100
     57 HAW         2.1220    8.3460    0.3640 ha        1 ZZQ      0.185000
     58 HAJ2        4.1480    4.3170   -0.4660 hn        1 ZZQ      0.476300
@<TRIPOS>BOND
     1    1    2 1   
     2    1   35 1   
     3    1   36 1   
     4    1   37 1   
     5    2    3 1   
     6    3    4 ar  
     7    3    8 ar  
     8    4    5 ar  
     9    4   38 1   
    10    5    6 ar  
    11    5   39 1   
    12    6    7 ar  
    13    6   40 1   
    14    7    8 ar  
    15    7   41 1   
    16    8    9 1   
    17    9   10 1   
    18    9   19 1   
    19   10   11 2   
    20   10   12 1   
    21   12   13 1   
    22   12   17 2   
    23   13   14 1   
    24   13   42 1   
    25   13   43 1   
    26   14   15 1   
    27   14   44 1   
    28   14   45 1   
    29   15   16 1   
    30   15   46 1   
    31   15   47 1   
    32   16   17 1   
    33   16   48 1   
    34   16   49 1   
    35   17   18 1   
    36   18   19 2   
    37   19   20 1   
    38   20   21 1   
    39   21   22 1   
    40   21   50 1   
    41   21   51 1   
    42   22   23 2   
    43   22   24 1   
    44   24   25 1   
    45   24   52 1   
    46   24   58 1   
    47   25   26 ar  
    48   25   34 ar  
    49   26   27 ar  
    50   26   53 1   
    51   27   28 ar  
    52   27   32 ar  
    53   28   29 ar  
    54   29   30 ar  
    55   29   55 1   
    56   30   31 ar  
    57   30   56 1   
    58   31   32 ar  
    59   32   33 ar  
    60   33   34 ar  
    61   33   57 1   
    62   34   54 1   
@<TRIPOS>SUBSTRUCTURE
     1 ZZQ         1 TEMP              0 ****  ****    0 ROOT
