@<TRIPOS>MOLECULE
ZZQ
   57    61     1     0     0
SMALL
bcc


@<TRIPOS>ATOM
      1 CBC        -3.8140    3.2540   -1.7780 c3        1 ZZQ      0.113700
      2 OBB        -3.3710    2.0830   -1.0990 os        1 ZZQ     -0.317900
      3 CBG        -2.7200    2.2750    0.1000 ca        1 ZZQ      0.161100
      4 CBH        -2.3440    3.5370    0.5800 ca        1 ZZQ     -0.206000
      5 CBE        -1.6790    3.6510    1.7970 ca        1 ZZQ     -0.074000
      6 CBD        -1.3830    2.5140    2.5460 ca        1 ZZQ     -0.166000
      7 CAU        -1.7500    1.2540    2.0840 ca        1 ZZQ     -0.071000
      8 CBF        -2.4130    1.1040    0.8510 ca        1 ZZQ     -0.023400
      9 NAT        -2.8000   -0.1950    0.4070 n         1 ZZQ     -0.278500
     10 CAS        -4.1090   -0.6980    0.6680 c         1 ZZQ      0.708700
     11 OBA        -4.8970   -0.0300    1.3570 o         1 ZZQ     -0.607500
     12 CAR        -4.4140   -2.0160    0.0910 cc        1 ZZQ     -0.232400
     13 CAQ        -5.7660   -2.5530    0.3730 c3        1 ZZQ     -0.020200
     14 CAP        -6.1250   -3.7160   -0.5290 c3        1 ZZQ     -0.078400
     15 CAB        -4.9660   -4.6800   -0.6580 c3        1 ZZQ     -0.080400
     16 CAC        -3.7590   -4.0100   -1.2820 c3        1 ZZQ     -0.032200
     17 CAD        -3.4650   -2.6780   -0.6530 cd        1 ZZQ      0.187400
     18 NAE        -2.2010   -2.1430   -0.8810 nd        1 ZZQ     -0.667300
     19 CAF        -1.9200   -0.9520   -0.3700 cc        1 ZZQ      0.509800
     20 SAG        -0.3530   -0.2430   -0.6370 ss        1 ZZQ     -0.127300
     21 CAH         0.4970   -1.4250   -1.6410 c3        1 ZZQ     -0.125300
     22 CAI         1.9350   -0.9790   -1.8270 c         1 ZZQ      0.683100
     23 OAA         2.4360   -0.9550   -2.9630 o         1 ZZQ     -0.567100
     24 NAJ         2.6280   -0.6590   -0.6680 n         1 ZZQ     -0.470100
     25 CAK         3.9580   -0.2210   -0.5600 ca        1 ZZQ      0.085600
     26 CAL         4.4020    0.2510    0.6770 ca        1 ZZQ     -0.230300
     27 CAM         5.7440    0.6840    0.8480 ca        1 ZZQ      0.311300
     28 NAN         6.1680    1.1480    2.0890 nb        1 ZZQ     -0.630000
     29 CAO         7.4240    1.5370    2.1790 ca        1 ZZQ      0.301900
     30 CAZ         8.3360    1.4910    1.0540 ca        1 ZZQ      0.283900
     31 NAY         7.9680    1.0570   -0.1350 nb        1 ZZQ     -0.612000
     32 CAX         6.6510    0.6390   -0.2670 ca        1 ZZQ      0.260300
     33 CAW         6.1670    0.1550   -1.5170 ca        1 ZZQ     -0.135300
     34 CAV         4.8690   -0.2620   -1.6610 ca        1 ZZQ     -0.142000
     35 HBC1       -2.9410    3.8620   -2.1190 h1        1 ZZQ      0.049700
     36 HBC2       -4.3740    2.8420   -2.6560 h1        1 ZZQ      0.049700
     37 HBC3       -4.4890    3.8600   -1.1270 h1        1 ZZQ      0.049700
     38 HBH        -2.5760    4.4430    0.0030 ha        1 ZZQ      0.144000
     39 HBE        -1.3890    4.6460    2.1680 ha        1 ZZQ      0.139000
     40 HBD        -0.8640    2.6090    3.5110 ha        1 ZZQ      0.142000
     41 HAU        -1.5260    0.3660    2.6960 ha        1 ZZQ      0.146000
     42 HAQ1       -5.8010   -2.8790    1.4490 hc        1 ZZQ      0.063200
     43 HAQ2       -6.5250   -1.7310    0.2590 hc        1 ZZQ      0.063200
     44 HAP1       -7.0170   -4.2490   -0.1090 hc        1 ZZQ      0.045700
     45 HAP2       -6.4090   -3.3340   -1.5450 hc        1 ZZQ      0.045700
     46 HAB1       -4.6950   -5.0770    0.3550 hc        1 ZZQ      0.047200
     47 HAB2       -5.2660   -5.5540   -1.2940 hc        1 ZZQ      0.047200
     48 HAC1       -2.8680   -4.6880   -1.1930 hc        1 ZZQ      0.066200
     49 HAC2       -3.9420   -3.8400   -2.3780 hc        1 ZZQ      0.066200
     50 HAH1        0.4850   -2.4460   -1.1810 h1        1 ZZQ      0.118200
     51 HAH2        0.0210   -1.5080   -2.6510 h1        1 ZZQ      0.118200
     52 HAJ         2.1030   -0.6510    0.1830 hn        1 ZZQ      0.329500
     53 HAL         3.7260    0.2970    1.5470 ha        1 ZZQ      0.152000
     54 HAV         4.5280   -0.6310   -2.6440 ha        1 ZZQ      0.180000
     55 HAO         7.7730    1.9070    3.1590 h4        1 ZZQ      0.033100
     56 HAZ         9.3800    1.8260    1.1750 h4        1 ZZQ      0.034100
     57 HAW         6.8560    0.1170   -2.3770 ha        1 ZZQ      0.158000
@<TRIPOS>BOND
     1    1    2 1   
     2    1   35 1   
     3    1   36 1   
     4    1   37 1   
     5    2    3 1   
     6    3    4 ar  
     7    3    8 ar  
     8    4    5 ar  
     9    4   38 1   
    10    5    6 ar  
    11    5   39 1   
    12    6    7 ar  
    13    6   40 1   
    14    7    8 ar  
    15    7   41 1   
    16    8    9 1   
    17    9   10 1   
    18    9   19 1   
    19   10   11 2   
    20   10   12 1   
    21   12   13 1   
    22   12   17 2   
    23   13   14 1   
    24   13   42 1   
    25   13   43 1   
    26   14   15 1   
    27   14   44 1   
    28   14   45 1   
    29   15   16 1   
    30   15   46 1   
    31   15   47 1   
    32   16   17 1   
    33   16   48 1   
    34   16   49 1   
    35   17   18 1   
    36   18   19 2   
    37   19   20 1   
    38   20   21 1   
    39   21   22 1   
    40   21   50 1   
    41   21   51 1   
    42   22   23 2   
    43   22   24 1   
    44   24   25 1   
    45   24   52 1   
    46   25   26 ar  
    47   25   34 ar  
    48   26   27 ar  
    49   26   53 1   
    50   27   28 ar  
    51   27   32 ar  
    52   28   29 ar  
    53   29   30 ar  
    54   29   55 1   
    55   30   31 ar  
    56   30   56 1   
    57   31   32 ar  
    58   32   33 ar  
    59   33   34 ar  
    60   33   57 1   
    61   34   54 1   
@<TRIPOS>SUBSTRUCTURE
     1 ZZQ         1 TEMP              0 ****  ****    0 ROOT
