@<TRIPOS>MOLECULE
ZZQ
   57    61     1     0     0
SMALL
bcc


@<TRIPOS>ATOM
      1 CBC         0.5790   -0.3300    0.9140 c3        1 ZZQ      0.113700
      2 OBB         1.8840    0.0530    0.4900 os        1 ZZQ     -0.317900
      3 CBG         2.6870    0.6520    1.4360 ca        1 ZZQ      0.161100
      4 CBH         2.2310    1.0360    2.7050 ca        1 ZZQ     -0.206000
      5 CBE         3.1000    1.6470    3.6030 ca        1 ZZQ     -0.074000
      6 CBD         4.4280    1.8800    3.2500 ca        1 ZZQ     -0.166000
      7 CAU         4.8970    1.5040    1.9950 ca        1 ZZQ     -0.071000
      8 CBF         4.0390    0.8950    1.0580 ca        1 ZZQ     -0.023400
      9 NAT         4.5460    0.4970   -0.2130 n         1 ZZQ     -0.278500
     10 CAS         5.0080   -0.8340   -0.4340 c         1 ZZQ      0.708700
     11 OBA         5.0420   -1.6370    0.5130 o         1 ZZQ     -0.607500
     12 CAR         5.4320   -1.1440   -1.8080 cc        1 ZZQ     -0.232400
     13 CAQ         5.9300   -2.5200   -2.0410 c3        1 ZZQ     -0.020200
     14 CAP         6.0060   -2.8650   -3.5140 c3        1 ZZQ     -0.078400
     15 CAB         6.6060   -1.7250   -4.3080 c3        1 ZZQ     -0.080400
     16 CAC         5.7570   -0.4740   -4.2030 c3        1 ZZQ     -0.032200
     17 CAD         5.3620   -0.1770   -2.7850 cd        1 ZZQ      0.187400
     18 NAE         4.9010    1.1080   -2.5200 nd        1 ZZQ     -0.667300
     19 CAF         4.5100    1.3940   -1.2850 cc        1 ZZQ      0.509800
     20 SAG         3.9210    2.9880   -0.9100 ss        1 ZZQ     -0.127300
     21 CAH         3.9940    3.8540   -2.4500 c3        1 ZZQ     -0.125300
     22 CAI         3.6330    5.3100   -2.2210 c         1 ZZQ      0.683100
     23 OAA         2.7920    5.8640   -2.9490 o         1 ZZQ     -0.567100
     24 NAJ         4.3240    5.9560   -1.2060 ns        1 ZZQ     -0.470100
     25 CAK         4.1840    7.2900   -0.7890 ca        1 ZZQ      0.085600
     26 CAL         4.8210    7.6880    0.3870 ca        1 ZZQ     -0.230300
     27 CAM         4.7310    9.0310    0.8420 ca        1 ZZQ      0.311300
     28 NAN         5.3750    9.4080    2.0160 nb        1 ZZQ     -0.630000
     29 CAO         5.2500   10.6680    2.3820 ca        1 ZZQ      0.301900
     30 CAZ         4.4840   11.6300    1.6150 ca        1 ZZQ      0.283900
     31 NAY         3.8620   11.3060    0.4990 nb        1 ZZQ     -0.612000
     32 CAX         3.9720    9.9870    0.0820 ca        1 ZZQ      0.260300
     33 CAW         3.3310    9.5500   -1.1130 ca        1 ZZQ     -0.135300
     34 CAV         3.4330    8.2510   -1.5370 ca        1 ZZQ     -0.142000
     35 HBC1        0.6320   -1.0200    1.7910 h1        1 ZZQ      0.049700
     36 HBC2       -0.0340    0.5720    1.1550 h1        1 ZZQ      0.049700
     37 HBC3        0.1660   -0.8600    0.0180 h1        1 ZZQ      0.049700
     38 HBH         1.1880    0.8530    2.9990 ha        1 ZZQ      0.144000
     39 HBE         2.7340    1.9430    4.5980 ha        1 ZZQ      0.139000
     40 HBD         5.1140    2.3560    3.9660 ha        1 ZZQ      0.142000
     41 HAU         5.9540    1.6790    1.7370 ha        1 ZZQ      0.146000
     42 HAQ1        5.2620   -3.2530   -1.5100 hc        1 ZZQ      0.063200
     43 HAQ2        6.9490   -2.6130   -1.5740 hc        1 ZZQ      0.063200
     44 HAP1        6.6280   -3.7880   -3.6470 hc        1 ZZQ      0.045700
     45 HAP2        4.9790   -3.0920   -3.9030 hc        1 ZZQ      0.045700
     46 HAB1        7.6400   -1.5110   -3.9310 hc        1 ZZQ      0.047200
     47 HAB2        6.6930   -2.0170   -5.3870 hc        1 ZZQ      0.047200
     48 HAC1        4.8150   -0.6020   -4.8040 hc        1 ZZQ      0.066200
     49 HAC2        6.3170    0.3950   -4.6410 hc        1 ZZQ      0.066200
     50 HAH1        5.0120    3.7960   -2.9120 h1        1 ZZQ      0.118200
     51 HAH2        3.2680    3.4240   -3.1870 h1        1 ZZQ      0.118200
     52 HAJ         4.9300    5.3930   -0.6440 hn        1 ZZQ      0.329500
     53 HAL         5.4070    6.9740    0.9890 ha        1 ZZQ      0.152000
     54 HAV         2.9230    7.9460   -2.4680 ha        1 ZZQ      0.180000
     55 HAO         5.7560   10.9800    3.3120 h4        1 ZZQ      0.033100
     56 HAZ         4.4060   12.6750    1.9590 h4        1 ZZQ      0.034100
     57 HAW         2.7470   10.2770   -1.7020 ha        1 ZZQ      0.158000
@<TRIPOS>BOND
     1    1    2 1   
     2    1   35 1   
     3    1   36 1   
     4    1   37 1   
     5    2    3 1   
     6    3    4 ar  
     7    3    8 ar  
     8    4    5 ar  
     9    4   38 1   
    10    5    6 ar  
    11    5   39 1   
    12    6    7 ar  
    13    6   40 1   
    14    7    8 ar  
    15    7   41 1   
    16    8    9 1   
    17    9   10 1   
    18    9   19 1   
    19   10   11 2   
    20   10   12 1   
    21   12   13 1   
    22   12   17 2   
    23   13   14 1   
    24   13   42 1   
    25   13   43 1   
    26   14   15 1   
    27   14   44 1   
    28   14   45 1   
    29   15   16 1   
    30   15   46 1   
    31   15   47 1   
    32   16   17 1   
    33   16   48 1   
    34   16   49 1   
    35   17   18 1   
    36   18   19 2   
    37   19   20 1   
    38   20   21 1   
    39   21   22 1   
    40   21   50 1   
    41   21   51 1   
    42   22   23 2   
    43   22   24 1   
    44   24   25 1   
    45   24   52 1   
    46   25   26 ar  
    47   25   34 ar  
    48   26   27 ar  
    49   26   53 1   
    50   27   28 ar  
    51   27   32 ar  
    52   28   29 ar  
    53   29   30 ar  
    54   29   55 1   
    55   30   31 ar  
    56   30   56 1   
    57   31   32 ar  
    58   32   33 ar  
    59   33   34 ar  
    60   33   57 1   
    61   34   54 1   
@<TRIPOS>SUBSTRUCTURE
     1 ZZQ         1 TEMP              0 ****  ****    0 ROOT
