@<TRIPOS>MOLECULE
ZZR
   18    19     1     0     0
SMALL
bcc


@<TRIPOS>ATOM
      1 NAC         0.0580    0.0480   -0.0310 n2        1 ZZR     -0.271800
      2 NAF         1.3880   -0.0170    0.0020 na        1 ZZR      0.026600
      3 CAI         1.8370   -0.1140    1.2970 cc        1 ZZR      0.585000
      4 NAD         3.0130   -0.0540    2.0760 nc        1 ZZR     -0.439000
      5 CAG         2.5320   -0.0110    3.3520 cd        1 ZZR      0.609400
      6 NAA         3.3840    0.1160    4.5360 n4        1 ZZR     -0.828300
      7 NAE         1.0500    0.0430    3.4490 na        1 ZZR     -0.192200
      8 NAJ         0.6550   -0.1740    2.1550 na        1 ZZR     -0.311000
      9 CAH        -0.4430    0.0240    1.2590 cc        1 ZZR      0.550400
     10 NAB        -1.8530    0.1010    1.6080 n4        1 ZZR     -0.805300
     11 HAF         1.9430   -0.0010   -0.8720 hn        1 ZZR      0.478700
     12 HAA1        3.1580    0.9930    5.0530 hn        1 ZZR      0.541467
     13 HAA2        3.2600   -0.7020    5.1680 hn        1 ZZR      0.541467
     14 HAE         0.5980   -0.5720    4.1320 hn        1 ZZR      0.366700
     15 HAB1       -2.1850   -0.8010    2.0050 hn        1 ZZR      0.535467
     16 HAB2       -2.0220    0.8730    2.2830 hn        1 ZZR      0.535467
     17 HAA3        4.3940    0.1570    4.2500 hn        1 ZZR      0.541467
     18 HAB3       -2.4160    0.2980    0.7420 hn        1 ZZR      0.535467
@<TRIPOS>BOND
     1    1    2 1   
     2    1    9 2   
     3    2    3 2   
     4    2   11 1   
     5    3    4 1   
     6    3    8 1   
     7    4    5 2   
     8    5    6 1   
     9    5    7 1   
    10    6   12 1   
    11    6   13 1   
    12    6   17 1   
    13    7    8 1   
    14    7   14 1   
    15    8    9 1   
    16    9   10 1   
    17   10   15 1   
    18   10   16 1   
    19   10   18 1   
@<TRIPOS>SUBSTRUCTURE
     1 ZZR         1 TEMP              0 ****  ****    0 ROOT
