@<TRIPOS>MOLECULE
ZZR
   16    17     1     0     0
SMALL
bcc


@<TRIPOS>ATOM
      1 NAC         2.1440   -0.7950    0.1240 n2        1 ZZR     -0.540800
      2 NAF         1.0910   -1.6490    0.0150 na        1 ZZR     -0.054400
      3 CAI        -0.0750   -0.9890   -0.2320 cc        1 ZZR      0.585000
      4 NAD        -1.4430   -1.1920   -0.1110 nc        1 ZZR     -0.688000
      5 CAG        -1.9380    0.1140    0.0000 cd        1 ZZR      0.756400
      6 NAA        -3.2330    0.4400    0.1630 nh        1 ZZR     -0.883500
      7 NAE        -0.8540    1.1630   -0.0080 na        1 ZZR     -0.256200
      8 NAJ         0.2610    0.4450   -0.3880 na        1 ZZR     -0.377000
      9 CAH         1.6630    0.5020    0.0370 cc        1 ZZR      0.750400
     10 NAB         2.3650    1.6540    0.1670 nh        1 ZZR     -0.922500
     11 HAF         1.2560   -2.6400   -0.0270 hn        1 ZZR      0.390700
     12 HAA1       -3.9160   -0.2850    0.2570 hn        1 ZZR      0.491800
     13 HAA2       -3.5160    1.3860    0.2930 hn        1 ZZR      0.491800
     14 HAE        -1.0330    1.8940   -0.6920 hn        1 ZZR      0.288700
     15 HAB1        3.3600    1.6160    0.2020 hn        1 ZZR      0.483800
     16 HAB2        1.9030    2.5310    0.1970 hn        1 ZZR      0.483800
@<TRIPOS>BOND
     1    1    2 1   
     2    1    9 2   
     3    2    3 2   
     4    2   11 1   
     5    3    4 1   
     6    3    8 1   
     7    4    5 2   
     8    5    6 1   
     9    5    7 1   
    10    6   12 1   
    11    6   13 1   
    12    7    8 1   
    13    7   14 1   
    14    8    9 1   
    15    9   10 1   
    16   10   15 1   
    17   10   16 1   
@<TRIPOS>SUBSTRUCTURE
     1 ZZR         1 TEMP              0 ****  ****    0 ROOT
