@<TRIPOS>MOLECULE
ZZR
   16    17     1     0     0
SMALL
bcc


@<TRIPOS>ATOM
      1 NAC         0.0430    0.1780   -0.0030 n2        1 ZZR     -0.540800
      2 NAF         1.4010    0.1230    0.0520 na        1 ZZR     -0.054400
      3 CAI         1.8470   -0.1590    1.3080 cc        1 ZZR      0.585000
      4 NAD         3.0010   -0.0210    2.0680 nc        1 ZZR     -0.688000
      5 CAG         2.5030    0.0130    3.3770 cd        1 ZZR      0.756400
      6 NAA         3.2500    0.1600    4.4870 nv        1 ZZR     -0.883500
      7 NAE         0.9980   -0.0610    3.4420 na        1 ZZR     -0.256200
      8 NAJ         0.6530   -0.4010    2.1510 na        1 ZZR     -0.377000
      9 CAH        -0.4520    0.0150    1.2820 cc        1 ZZR      0.750400
     10 NAB        -1.7440    0.0740    1.6830 nv        1 ZZR     -0.922500
     11 HAF         1.9350    0.1400   -0.8000 hn        1 ZZR      0.390700
     12 HAA1        2.8300    0.2350    5.3870 hn        1 ZZR      0.491800
     13 HAA2        4.2370    0.2990    4.4020 hn        1 ZZR      0.491800
     14 HAE         0.6760   -0.7870    4.0790 hn        1 ZZR      0.288700
     15 HAB1       -2.4660    0.1080    0.9960 hn        1 ZZR      0.483800
     16 HAB2       -1.9810    0.0530    2.6460 hn        1 ZZR      0.483800
@<TRIPOS>BOND
     1    1    2 1   
     2    1    9 2   
     3    2    3 2   
     4    2   11 1   
     5    3    4 1   
     6    3    8 1   
     7    4    5 2   
     8    5    6 1   
     9    5    7 1   
    10    6   12 1   
    11    6   13 1   
    12    7    8 1   
    13    7   14 1   
    14    8    9 1   
    15    9   10 1   
    16   10   15 1   
    17   10   16 1   
@<TRIPOS>SUBSTRUCTURE
     1 ZZR         1 TEMP              0 ****  ****    0 ROOT
