@<TRIPOS>MOLECULE
ZZS
   13    13     1     0     0
SMALL
bcc


@<TRIPOS>ATOM
      1 NAA        -0.0090   -0.2370   -0.0330 nv        1 ZZS     -0.945500
      2 CAG         1.3650   -0.0580   -0.0130 ca        1 ZZS      0.922900
      3 NAF         2.0010   -0.0960    1.2200 nb        1 ZZS     -0.851000
      4 NAD         2.0230    0.1040   -1.2380 nb        1 ZZS     -0.818000
      5 CAC         3.3690    0.1900   -1.1330 ca        1 ZZS      0.708900
      6 NAE         4.1230    0.1520   -0.0110 nb        1 ZZS     -0.818000
      7 CAH         3.3830    0.0220    1.1700 ca        1 ZZS      0.922900
      8 NAB         4.0680    0.0570    2.3730 nv        1 ZZS     -0.945500
      9 HAA1       -0.4960   -0.0560   -0.8760 hn        1 ZZS      0.442300
     10 HAA2       -0.5070   -0.1940    0.8220 hn        1 ZZS      0.442300
     11 HAC         3.9250    0.3060   -2.0890 h5        1 ZZS      0.052100
     12 HAB1        3.5870   -0.1920    3.2030 hn        1 ZZS      0.442300
     13 HAB2        5.0560   -0.0200    2.3560 hn        1 ZZS      0.442300
@<TRIPOS>BOND
     1    1    2 1   
     2    1    9 1   
     3    1   10 1   
     4    2    3 ar  
     5    2    4 ar  
     6    3    7 ar  
     7    4    5 ar  
     8    5    6 ar  
     9    5   11 1   
    10    6    7 ar  
    11    7    8 1   
    12    8   12 1   
    13    8   13 1   
@<TRIPOS>SUBSTRUCTURE
     1 ZZS         1 TEMP              0 ****  ****    0 ROOT
