@<TRIPOS>MOLECULE
ZZS
   13    11     1     0     0
SMALL
bcc


@<TRIPOS>ATOM
      1 NAA        -2.4960   -0.0040   -0.4570 nh        1 ZZS     -0.834600
      2 CAG        -1.0770   -0.0040   -0.4570 ce        1 ZZS      0.426600
      3 NAF        -0.4070   -0.0040    0.7050 ne        1 ZZS     -0.686000
      4 NAD        -0.4070   -0.0040   -1.6180 n1        1 ZZS     -0.292000
      5 CAC         0.9340   -0.0040   -1.6180 c1        1 ZZS      0.429300
      6 NAE         1.6050   -0.0040   -0.4570 n1        1 ZZS     -0.617800
      7 CAH         0.9340   -0.0040    0.7050 c1        1 ZZS      0.424400
      8 NAB         1.6440    0.0070    1.9330 n3        1 ZZS     -0.442400
      9 HAA1       -2.9520   -0.4830   -1.0850 hn        1 ZZS      0.442300
     10 HAA2       -2.9520    0.4850    0.1630 hn        1 ZZS      0.442300
     11 HAC         1.4220   -0.0040   -2.4640 ha        1 ZZS      0.131500
     12 HAB1        1.6190    0.7460    2.4670 hn        1 ZZS      0.287200
     13 HAB2        2.1320   -0.7210    2.1840 hn        1 ZZS      0.287200
@<TRIPOS>BOND
     1    1    2 1   
     2    1    9 1   
     3    1   10 1   
     4    2    3 1   
     5    2    4 2   
     6    3    7 2   
     7    5    6 3   
     8    5   11 1   
     9    7    8 2   
    10    8   12 1   
    11    8   13 1   
@<TRIPOS>SUBSTRUCTURE
     1 ZZS         1 TEMP              0 ****  ****    0 ROOT
