@<TRIPOS>MOLECULE
ZZS
   15    15     1     0     0
SMALL
bcc


@<TRIPOS>ATOM
      1 NAA        -0.0890    0.0130   -0.0480 n4        1 ZZS     -0.825300
      2 CAG         1.4020   -0.0150   -0.0440 ca        1 ZZS      0.790900
      3 NAF         2.0240    0.0260    1.1880 nb        1 ZZS     -0.684000
      4 NAD         2.0300   -0.0770   -1.2620 nb        1 ZZS     -0.624000
      5 CAC         3.3950   -0.0980   -1.2010 ca        1 ZZS      0.768900
      6 NAE         4.1360   -0.0620   -0.0540 nb        1 ZZS     -0.624000
      7 CAH         3.4020   -0.0010    1.1030 ca        1 ZZS      0.790900
      8 NAB         4.1570    0.0350    2.3880 n4        1 ZZS     -0.825300
      9 HAA1       -0.4180    0.9140    0.3390 hn        1 ZZS      0.512133
     10 HAA2       -0.4560   -0.7600    0.5320 hn        1 ZZS      0.512133
     11 HAC         3.9560   -0.1480   -2.1780 h5        1 ZZS      0.163100
     12 HAB1        4.0180   -0.8580    2.8910 hn        1 ZZS      0.512133
     13 HAB2        3.8180    0.8140    2.9770 hn        1 ZZS      0.512133
     14 HAA3       -0.4430   -0.0900   -1.0180 hn        1 ZZS      0.512133
     15 HAB3        5.1700    0.1630    2.2000 hn        1 ZZS      0.512133
@<TRIPOS>BOND
     1    1    2 1   
     2    1    9 1   
     3    1   10 1   
     4    1   14 1   
     5    2    3 ar  
     6    2    4 ar  
     7    3    7 ar  
     8    4    5 ar  
     9    5    6 ar  
    10    5   11 1   
    11    6    7 ar  
    12    7    8 1   
    13    8   12 1   
    14    8   13 1   
    15    8   15 1   
@<TRIPOS>SUBSTRUCTURE
     1 ZZS         1 TEMP              0 ****  ****    0 ROOT
