@<TRIPOS>MOLECULE
ZZS
   13    13     1     0     0
SMALL
bcc


@<TRIPOS>ATOM
      1 NAA         2.3690    0.9830   -0.1000 nh        1 ZZS     -0.945500
      2 CAG         1.1700    0.2950   -0.0170 ca        1 ZZS      0.922900
      3 NAF         0.0000    1.0410    0.0000 nb        1 ZZS     -0.851000
      4 NAD         1.2160   -1.1050   -0.0000 nb        1 ZZS     -0.818000
      5 CAC        -0.0000   -1.6960   -0.0010 ca        1 ZZS      0.708900
      6 NAE        -1.2160   -1.1050   -0.0010 nb        1 ZZS     -0.818000
      7 CAH        -1.1700    0.2950    0.0160 ca        1 ZZS      0.922900
      8 NAB        -2.3690    0.9830    0.1000 nh        1 ZZS     -0.945500
      9 HAA1        2.3680    1.9630    0.0470 hn        1 ZZS      0.442300
     10 HAA2        3.2120    0.4830    0.0460 hn        1 ZZS      0.442300
     11 HAC        -0.0000   -2.8080   -0.0020 h5        1 ZZS      0.052100
     12 HAB1       -2.3680    1.9630   -0.0460 hn        1 ZZS      0.442300
     13 HAB2       -3.2120    0.4830   -0.0470 hn        1 ZZS      0.442300
@<TRIPOS>BOND
     1    1    2 1   
     2    1    9 1   
     3    1   10 1   
     4    2    3 ar  
     5    2    4 ar  
     6    3    7 ar  
     7    4    5 ar  
     8    5    6 ar  
     9    5   11 1   
    10    6    7 ar  
    11    7    8 1   
    12    8   12 1   
    13    8   13 1   
@<TRIPOS>SUBSTRUCTURE
     1 ZZS         1 TEMP              0 ****  ****    0 ROOT
