@<TRIPOS>MOLECULE
ZZT
   21    21     1     0     0
SMALL
bcc


@<TRIPOS>ATOM
      1 N1          0.0210   -0.2240   -0.0650 nv        1 ZZT     -0.804200
      2 C2          1.4060   -0.0210   -0.0350 ca        1 ZZT      0.124600
      3 C3          2.1080   -0.0350    1.1880 ca        1 ZZT     -0.169000
      4 C4          3.5010    0.0560    1.2280 ca        1 ZZT     -0.065300
      5 C5          4.2030    0.0100    2.5330 c3        1 ZZT     -0.051800
      6 C6          4.2250    0.1770    0.0390 ca        1 ZZT     -0.144000
      7 C7          3.5620    0.2150   -1.1850 ca        1 ZZT     -0.151000
      8 C8          2.1710    0.1260   -1.2300 ca        1 ZZT      0.050100
      9 O9          1.4470    0.2380   -2.4100 os        1 ZZT     -0.345900
     10 C10         2.1190   -0.2180   -3.5800 c3        1 ZZT      0.120700
     11 H11N       -0.3980    0.0180   -0.9380 hn        1 ZZT      0.390300
     12 H12N       -0.4560    0.1730    0.7150 hn        1 ZZT      0.390300
     13 H3          1.5520   -0.1340    2.1330 ha        1 ZZT      0.135000
     14 H51C        5.2220    0.4610    2.4580 hc        1 ZZT      0.043367
     15 H52C        3.6270    0.5660    3.3140 hc        1 ZZT      0.043367
     16 H53C        4.3120   -1.0520    2.8690 hc        1 ZZT      0.043367
     17 H6          5.3220    0.2470    0.0670 ha        1 ZZT      0.132000
     18 H7          4.1380    0.3200   -2.1150 ha        1 ZZT      0.135000
     19 H101        2.8740    0.5390   -3.9050 h1        1 ZZT      0.041367
     20 H102        2.6070   -1.2070   -3.4080 h1        1 ZZT      0.041367
     21 H103        1.3010   -0.3040   -4.3390 h1        1 ZZT      0.041367
@<TRIPOS>BOND
     1    1    2 1   
     2    1   11 1   
     3    1   12 1   
     4    2    3 ar  
     5    2    8 ar  
     6    3    4 ar  
     7    3   13 1   
     8    4    5 1   
     9    4    6 ar  
    10    5   14 1   
    11    5   15 1   
    12    5   16 1   
    13    6    7 ar  
    14    6   17 1   
    15    7    8 ar  
    16    7   18 1   
    17    8    9 1   
    18    9   10 1   
    19   10   19 1   
    20   10   20 1   
    21   10   21 1   
@<TRIPOS>SUBSTRUCTURE
     1 ZZT         1 TEMP              0 ****  ****    0 ROOT
