@<TRIPOS>MOLECULE
ZZT
   21    21     1     0     0
SMALL
bcc


@<TRIPOS>ATOM
      1 N1         -0.7160    2.3100    0.2010 nh        1 ZZT     -0.804200
      2 C2         -0.0980    1.0670    0.0140 ca        1 ZZT      0.124600
      3 C3          1.3060    0.9470    0.0690 ca        1 ZZT     -0.169000
      4 C4          1.9330   -0.3000   -0.0060 ca        1 ZZT     -0.065300
      5 C5          3.4090   -0.3840    0.0820 c3        1 ZZT     -0.051800
      6 C6          1.1640   -1.4570   -0.1510 ca        1 ZZT     -0.144000
      7 C7         -0.2240   -1.3720   -0.2300 ca        1 ZZT     -0.151000
      8 C8         -0.8540   -0.1300   -0.1580 ca        1 ZZT      0.051100
      9 O9         -2.2260    0.0280   -0.3090 os        1 ZZT     -0.345900
     10 C10        -3.0150   -1.0750    0.1220 c3        1 ZZT      0.120700
     11 H11N       -0.1980    3.0720   -0.1800 hn        1 ZZT      0.390300
     12 H12N       -1.6760    2.3220   -0.0700 hn        1 ZZT      0.390300
     13 H3          1.9250    1.8500    0.1880 ha        1 ZZT      0.135000
     14 H51C        3.7310   -0.3260    1.1530 hc        1 ZZT      0.043367
     15 H52C        3.7840   -1.3470   -0.3440 hc        1 ZZT      0.043367
     16 H53C        3.8900    0.4590   -0.4720 hc        1 ZZT      0.043367
     17 H6          1.6540   -2.4400   -0.2090 ha        1 ZZT      0.132000
     18 H7         -0.8210   -2.2870   -0.3540 ha        1 ZZT      0.135000
     19 H101       -4.0510   -0.6540    0.1780 h1        1 ZZT      0.041367
     20 H102       -2.9700   -1.8960   -0.6340 h1        1 ZZT      0.041367
     21 H103       -2.6830   -1.4460    1.1210 h1        1 ZZT      0.041367
@<TRIPOS>BOND
     1    1    2 1   
     2    1   11 1   
     3    1   12 1   
     4    2    3 ar  
     5    2    8 ar  
     6    3    4 ar  
     7    3   13 1   
     8    4    5 1   
     9    4    6 ar  
    10    5   14 1   
    11    5   15 1   
    12    5   16 1   
    13    6    7 ar  
    14    6   17 1   
    15    7    8 ar  
    16    7   18 1   
    17    8    9 1   
    18    9   10 1   
    19   10   19 1   
    20   10   20 1   
    21   10   21 1   
@<TRIPOS>SUBSTRUCTURE
     1 ZZT         1 TEMP              0 ****  ****    0 ROOT
