@<TRIPOS>MOLECULE
ZZT
   22    22     1     0     0
SMALL
bcc


@<TRIPOS>ATOM
      1 N1         -0.0220   -0.1010   -0.0320 n4        1 ZZT     -0.684000
      2 C2          1.4370   -0.0470   -0.0030 ca        1 ZZT     -0.117400
      3 C3          2.1170   -0.0440    1.2310 ca        1 ZZT     -0.083000
      4 C4          3.5070   -0.0020    1.2560 ca        1 ZZT     -0.067300
      5 C5          4.2420    0.0010    2.5430 c3        1 ZZT     -0.069800
      6 C6          4.2220    0.0400    0.0450 ca        1 ZZT     -0.038000
      7 C7          3.5660    0.0400   -1.1770 ca        1 ZZT     -0.175000
      8 C8          2.1630   -0.0040   -1.2170 ca        1 ZZT      0.169100
      9 O9          1.4090   -0.0090   -2.3650 os        1 ZZT     -0.363900
     10 C10         2.1180    0.0710   -3.6080 c3        1 ZZT      0.116700
     11 H11N       -0.3250   -1.0790   -0.1040 hn        1 ZZT      0.464467
     12 H12N       -0.3620    0.4130   -0.8560 hn        1 ZZT      0.464467
     13 H3          1.5570   -0.0750    2.1810 ha        1 ZZT      0.156000
     14 H51C        3.5450   -0.0310    3.4160 hc        1 ZZT      0.068033
     15 H52C        4.9210   -0.8870    2.6000 hc        1 ZZT      0.068033
     16 H53C        4.8690    0.9250    2.6260 hc        1 ZZT      0.068033
     17 H6          5.3260    0.0730    0.0730 ha        1 ZZT      0.172000
     18 H7          4.1440    0.0730   -2.1150 ha        1 ZZT      0.174000
     19 H101        2.7030    1.0200   -3.6590 h1        1 ZZT      0.070700
     20 H102        2.7790   -0.8210   -3.7310 h1        1 ZZT      0.070700
     21 H103        1.2920    0.0660   -4.3650 h1        1 ZZT      0.070700
     22 H13        -0.4070    0.3170    0.8210 hn        1 ZZT      0.464467
@<TRIPOS>BOND
     1    1    2 1   
     2    1   11 1   
     3    1   12 1   
     4    1   22 1   
     5    2    3 ar  
     6    2    8 ar  
     7    3    4 ar  
     8    3   13 1   
     9    4    5 1   
    10    4    6 ar  
    11    5   14 1   
    12    5   15 1   
    13    5   16 1   
    14    6    7 ar  
    15    6   17 1   
    16    7    8 ar  
    17    7   18 1   
    18    8    9 1   
    19    9   10 1   
    20   10   19 1   
    21   10   20 1   
    22   10   21 1   
@<TRIPOS>SUBSTRUCTURE
     1 ZZT         1 TEMP              0 ****  ****    0 ROOT
