@<TRIPOS>MOLECULE
ZZU
   26    25     1     0     0
SMALL
bcc


@<TRIPOS>ATOM
      1 O           3.4550    1.3370    0.1380 o         1 ZZU     -0.839800
      2 C           3.3610    0.0780    0.2200 c         1 ZZU      0.885600
      3 OXT         4.2140   -0.6610    0.7850 o         1 ZZU     -0.839800
      4 CA          2.1180   -0.6020   -0.4440 c3        1 ZZU     -0.017500
      5 N           2.0490   -2.0390   -0.2160 n3        1 ZZU     -0.885800
      6 CB          0.8430    0.1520   -0.0010 c3        1 ZZU      0.181100
      7 OB          0.7920    1.4310   -0.6140 oh        1 ZZU     -0.652800
      8 CG         -0.4390   -0.5730   -0.4100 c3        1 ZZU     -0.082400
      9 CD         -1.6640    0.2340    0.0220 c3        1 ZZU      0.179800
     10 NE         -2.9040   -0.4060   -0.3840 nh        1 ZZU     -0.798200
     11 CZ         -4.1360    0.1180    0.1230 c2        1 ZZU      0.737100
     12 NH2        -4.1730    1.2240    0.8270 n2        1 ZZU     -0.862100
     13 NH1        -5.3090   -0.6600   -0.2110 nh        1 ZZU     -0.933800
     14 HA          2.2260   -0.4510   -1.5580 h1        1 ZZU      0.055700
     15 HN1         2.9700   -2.4090   -0.3920 hn        1 ZZU      0.333300
     16 HN2         1.8690   -2.1950    0.7610 hn        1 ZZU      0.333300
     17 HB          0.8640    0.2840    1.1180 h1        1 ZZU      0.024700
     18 HC          1.6610    1.8490   -0.4800 ho        1 ZZU      0.455000
     19 HG1C       -0.4350   -0.7130   -1.5210 hc        1 ZZU      0.046700
     20 HG2C       -0.4620   -1.5840    0.0710 hc        1 ZZU      0.046700
     21 HD1C       -1.6170    0.3880    1.1390 h1        1 ZZU      0.062200
     22 HD2C       -1.6270    1.2520   -0.4620 h1        1 ZZU      0.062200
     23 HE         -2.8540   -1.4030   -0.2890 hn        1 ZZU      0.384800
     24 HH2        -5.0870    1.5580    1.0400 hn        1 ZZU      0.374400
     25 HH11       -5.1590   -1.3490   -0.9160 hn        1 ZZU      0.374800
     26 HH12       -6.0900   -0.0840   -0.4420 hn        1 ZZU      0.374800
@<TRIPOS>BOND
     1    1    2 1   
     2    2    3 1   
     3    2    4 1   
     4    4    5 1   
     5    4    6 1   
     6    4   14 1   
     7    5   15 1   
     8    5   16 1   
     9    6    7 1   
    10    6    8 1   
    11    6   17 1   
    12    7   18 1   
    13    8    9 1   
    14    8   19 1   
    15    8   20 1   
    16    9   10 1   
    17    9   21 1   
    18    9   22 1   
    19   10   11 1   
    20   10   23 1   
    21   11   12 2   
    22   11   13 1   
    23   12   24 1   
    24   13   25 1   
    25   13   26 1   
@<TRIPOS>SUBSTRUCTURE
     1 ZZU         1 TEMP              0 ****  ****    0 ROOT
