@<TRIPOS>MOLECULE
ZZV
   47    50     1     0     0
SMALL
bcc


@<TRIPOS>ATOM
      1 CAA         2.9630   -1.6730   -2.1920 c3        1 ZZV      0.201100
      2 CAB         1.8400   -2.5110    1.4110 c3        1 ZZV     -0.371300
      3 OAD         2.2550   -3.9820   -0.6040 o         1 ZZV     -0.655300
      4 OAE         0.1400   -2.8950   -0.4080 o         1 ZZV     -0.655300
      5 CAH         4.9890    0.8910    1.1420 ca        1 ZZV     -0.224300
      6 CAI         4.5920    2.2210    1.4780 ca        1 ZZV      0.412200
      7 CAJ        -4.6970    0.4720    1.3530 ca        1 ZZV     -0.169500
      8 CAK        -4.3190   -1.8080    0.5650 ca        1 ZZV     -0.169500
      9 CAL        -4.0490    0.9580    0.2230 ca        1 ZZV     -0.086500
     10 CAM        -3.6750   -1.3000   -0.5600 ca        1 ZZV     -0.086500
     11 CAN         4.1060    0.0980    0.4530 ca        1 ZZV     -0.100000
     12 CAP        -0.5150   -0.1640   -1.7330 c3        1 ZZV      0.092300
     13 NAQ         3.4180    2.7340    1.1570 nb        1 ZZV     -0.668000
     14 CAR        -1.0330    2.0550   -1.0880 c         1 ZZV      0.716100
     15 CAS        -4.8350   -0.9180    1.5250 ca        1 ZZV      0.128900
     16 CAT        -3.5420    0.0790   -0.7400 ca        1 ZZV     -0.151300
     17 CAU         1.2380    2.5250    0.1020 ca        1 ZZV      0.186800
     18 CAV         0.6600    0.4020   -0.9680 ca        1 ZZV     -0.020300
     19 CAW         0.3440    1.7450   -0.5980 ca        1 ZZV     -0.214600
     20 CAX         1.8590   -0.1950   -0.6340 ca        1 ZZV      0.084600
     21 CAY         2.8230    0.6040    0.0870 ca        1 ZZV     -0.089300
     22 CAZ         2.5220    1.9480    0.4620 ca        1 ZZV      0.320600
     23 NBA         2.1550   -1.5250   -1.0120 nh        1 ZZV     -0.693900
     24 NBB        -1.4750    0.9370   -1.8490 n         1 ZZV     -0.448800
     25 SBC         1.5350   -2.8280   -0.2310 s6        1 ZZV      1.460900
     26 HAA         3.9070   -1.0720   -2.1000 h1        1 ZZV      0.053367
     27 HAAA        3.2350   -2.7560   -2.3300 h1        1 ZZV      0.053367
     28 HAAB        2.4030   -1.3150   -3.0990 h1        1 ZZV      0.053367
     29 HAB         2.3130   -3.3990    1.9030 h1        1 ZZV      0.124033
     30 HABA        2.5160   -1.6460    1.6240 h1        1 ZZV      0.124033
     31 HABB        0.8930   -2.3070    1.9740 h1        1 ZZV      0.124033
     32 HOAF        1.5970    4.2320    0.9060 ho        1 ZZV      0.452000
     33 HAH         5.9850    0.5320    1.4350 ha        1 ZZV      0.153000
     34 HAI         5.2820    2.8830    2.0350 h4        1 ZZV      0.033100
     35 HAJ        -5.0990    1.1580    2.1120 ha        1 ZZV      0.150500
     36 HAK        -4.4250   -2.8920    0.7110 ha        1 ZZV      0.150500
     37 HAL        -3.9220    2.0460    0.0850 ha        1 ZZV      0.150500
     38 HAM        -3.2630   -1.9970   -1.3070 ha        1 ZZV      0.150500
     39 HAN         4.3910   -0.9280    0.1740 ha        1 ZZV      0.149000
     40 HAO        -2.9820   -0.1130   -2.8130 h1        1 ZZV      0.071700
     41 HAOA       -3.3940    1.5890   -2.2670 h1        1 ZZV      0.071700
     42 HAP        -0.1980   -0.4790   -2.7660 h1        1 ZZV      0.090700
     43 H18        -0.9560   -1.0560   -1.2000 h1        1 ZZV      0.090700
     44 OAC        -1.6860    3.0900   -0.9220 o         1 ZZV     -0.584500
     45 OAF         0.8760    3.7960    0.4220 oh        1 ZZV     -0.451100
     46 CAO        -2.8750    0.6300   -1.9700 c3        1 ZZV      0.134300
     47 FAG        -5.4660   -1.4020    2.6220 f         1 ZZV     -0.142900
@<TRIPOS>BOND
     1    1   23 1   
     2    1   26 1   
     3    1   27 1   
     4    1   28 1   
     5    2   25 1   
     6    2   29 1   
     7    2   30 1   
     8    2   31 1   
     9    3   25 2   
    10    4   25 2   
    11    5    6 ar  
    12    5   11 ar  
    13    5   33 1   
    14    6   13 ar  
    15    6   34 1   
    16    7    9 ar  
    17    7   15 ar  
    18    7   35 1   
    19    8   10 ar  
    20    8   15 ar  
    21    8   36 1   
    22    9   16 ar  
    23    9   37 1   
    24   10   16 ar  
    25   10   38 1   
    26   11   21 ar  
    27   11   39 1   
    28   12   18 1   
    29   12   24 1   
    30   12   42 1   
    31   12   43 1   
    32   13   22 ar  
    33   14   19 1   
    34   14   24 1   
    35   14   44 2   
    36   15   47 1   
    37   16   46 1   
    38   17   19 ar  
    39   17   22 ar  
    40   17   45 1   
    41   18   19 ar  
    42   18   20 ar  
    43   20   21 ar  
    44   20   23 1   
    45   21   22 ar  
    46   23   25 1   
    47   24   46 1   
    48   32   45 1   
    49   40   46 1   
    50   41   46 1   
@<TRIPOS>SUBSTRUCTURE
     1 ZZV         1 TEMP              0 ****  ****    0 ROOT
