@<TRIPOS>MOLECULE
ZZV
   47    50     1     0     0
SMALL
bcc


@<TRIPOS>ATOM
      1 CAA         0.4630    0.3940    0.1270 c3        1 ZZV     -0.071000
      2 CAB         2.0000   -1.7150    1.9540 c3        1 ZZV     -0.953000
      3 OAD         2.4630    0.7050    2.4200 o         1 ZZV     -0.933500
      4 OAE         4.0700   -0.4930    1.1160 o         1 ZZV     -0.933500
      5 CAH         2.6050   -3.5680   -1.8340 c3        1 ZZV     -0.297000
      6 CAI         2.3730   -3.2720   -3.2760 c1        1 ZZV      0.008000
      7 CAJ         6.5830    5.5510   -1.7640 ca        1 ZZV     -0.166500
      8 CAK         5.1660    6.1160    0.1430 ca        1 ZZV     -0.166500
      9 CAL         5.4510    5.1720   -2.4780 ca        1 ZZV     -0.090000
     10 CAM         4.0470    5.7310   -0.5890 ca        1 ZZV     -0.090000
     11 CAN         2.7550   -2.3430   -1.0480 c1        1 ZZV     -0.035000
     12 CAP         2.2520    2.7000   -1.6710 c3        1 ZZV      0.004000
     13 NAQ         3.0350   -2.2760   -3.8700 n2        1 ZZV     -0.135000
     14 CAR         3.4500    2.6480   -3.7070 c2        1 ZZV      0.358000
     15 CAS         6.4410    6.0280   -0.4470 ca        1 ZZV      0.101000
     16 CAT         4.1810    5.2620   -1.8980 ca        1 ZZV     -0.143000
     17 CAU         3.7040    0.0980   -3.8560 c2        1 ZZV      0.186000
     18 CAV         2.6460    1.2660   -1.9430 c2        1 ZZV     -0.067000
     19 CAW         3.3230    1.2430   -3.2330 c2        1 ZZV     -0.245000
     20 CAX         2.4950    0.1520   -1.1850 c2        1 ZZV      0.057000
     21 CAY         3.1750   -1.1030   -1.6940 c3        1 ZZV     -0.172000
     22 CAZ         3.3140   -1.1720   -3.2140 c2        1 ZZV      0.019000
     23 NBA         1.8700    0.1210    0.0720 n3        1 ZZV     -0.767000
     24 NBB         2.7190    3.4700   -2.8290 n         1 ZZV     -0.305000
     25 SBC         2.7150   -0.2720    1.4350 s6        1 ZZV      2.826000
     26 HAA         0.1680    1.1540   -0.6450 h1        1 ZZV      0.088333
     27 HAAA       -0.1310   -0.5420   -0.0570 h1        1 ZZV      0.088333
     28 HAAB        0.2080    0.8010    1.1440 h1        1 ZZV      0.088333
     29 HAB         2.4950   -2.0880    2.8860 h1        1 ZZV      0.164667
     30 HABA        2.0980   -2.5360    1.1930 h1        1 ZZV      0.164667
     31 HABB        0.9130   -1.6210    2.1910 h1        1 ZZV      0.164667
     32 HOAF        4.4600    0.9220   -5.4010 ho        1 ZZV      0.263000
     33 HAH         1.7260   -4.1600   -1.4420 hc        1 ZZV      0.186500
     34 HAI         3.5130   -4.2160   -1.6520 hc        1 ZZV      0.186500
     35 HAJ         7.5830    5.4840   -2.2150 ha        1 ZZV      0.152500
     36 HAK         5.0670    6.4860    1.1730 ha        1 ZZV      0.152500
     37 HAL         5.5500    4.7920   -3.5090 ha        1 ZZV      0.146000
     38 HAM         3.0500    5.8000   -0.1270 ha        1 ZZV      0.146000
     39 HAN         4.2640   -1.0030   -1.3080 hc        1 ZZV      0.227000
     40 HAO         2.0510    5.3410   -2.2360 h1        1 ZZV      0.112500
     41 HAOA        3.0860    5.2890   -3.7490 h1        1 ZZV      0.112500
     42 HAP         2.7210    3.0710   -0.7180 h1        1 ZZV      0.110500
     43 H18         1.1350    2.8110   -1.5960 h1        1 ZZV      0.110500
     44 OAC         4.0520    3.0190   -4.7290 o         1 ZZV     -0.361000
     45 OAF         4.3480    0.0170   -5.0450 oh        1 ZZV     -0.205000
     46 CAO         2.9690    4.8800   -2.7010 c3        1 ZZV      0.017000
     47 FAG         7.5360    6.4020    0.2560 f         1 ZZV     -0.103000
@<TRIPOS>BOND
     1    1   23 1   
     2    1   26 1   
     3    1   27 1   
     4    1   28 1   
     5    2   25 1   
     6    2   29 1   
     7    2   30 1   
     8    2   31 1   
     9    3   25 1   
    10    4   25 1   
    11    5    6 1   
    12    5   11 1   
    13    5   33 1   
    14    5   34 1   
    15    6   13 1   
    16    7    9 1   
    17    7   15 1   
    18    7   35 1   
    19    8   10 1   
    20    8   15 1   
    21    8   36 1   
    22    9   16 1   
    23    9   37 1   
    24   10   16 1   
    25   10   38 1   
    26   11   21 1   
    27   12   18 1   
    28   12   24 1   
    29   12   42 1   
    30   12   43 1   
    31   13   22 1   
    32   14   19 1   
    33   14   24 1   
    34   14   44 1   
    35   15   47 1   
    36   16   46 1   
    37   17   19 1   
    38   17   22 1   
    39   17   45 1   
    40   18   19 1   
    41   18   20 1   
    42   20   21 1   
    43   20   23 1   
    44   21   22 1   
    45   21   39 1   
    46   23   25 1   
    47   24   46 1   
    48   32   45 1   
    49   40   46 1   
    50   41   46 1   
@<TRIPOS>SUBSTRUCTURE
     1 ZZV         1 TEMP              0 ****  ****    0 ROOT
