@<TRIPOS>MOLECULE
ZZV
   48    51     1     0     0
SMALL
bcc


@<TRIPOS>ATOM
      1 CAA         0.6640    0.9890    0.1930 c3        1 ZZV     -0.193000
      2 CAB         2.3440   -1.5990    2.0520 c3        1 ZZV     -1.043000
      3 OAD         2.5860    0.9200    2.1760 o         1 ZZV     -0.846500
      4 OAE         4.1610   -0.3070    0.8530 o         1 ZZV     -0.846500
      5 CAH         2.6750   -3.6450   -1.8090 c3        1 ZZV     -0.295000
      6 CAI         2.4550   -3.3870   -3.2640 c1        1 ZZV      0.067000
      7 CAJ         6.4380    5.3840   -1.3960 ca        1 ZZV     -0.166000
      8 CAK         4.7880    6.0220    0.2890 ca        1 ZZV     -0.166000
      9 CAL         5.4050    5.0330   -2.2580 ca        1 ZZV     -0.092500
     10 CAM         3.7700    5.6620   -0.5890 ca        1 ZZV     -0.092500
     11 CAN         2.7250   -2.3900   -1.0730 c1        1 ZZV     -0.102000
     12 CAP         2.1820    2.6540   -1.8040 c3        1 ZZV     -0.025000
     13 NAQ         3.1080   -2.3930   -3.8730 n2        1 ZZV     -0.096000
     14 CAR         3.4600    2.5610   -3.7820 c2        1 ZZV      0.358000
     15 CAS         6.1300    5.8800   -0.1130 ca        1 ZZV      0.114000
     16 CAT         4.0700    5.1650   -1.8600 ca        1 ZZV     -0.160000
     17 CAU         3.6990    0.0140   -3.9040 c2        1 ZZV      0.262000
     18 CAV         2.5860    1.2080   -2.0240 c2        1 ZZV      0.076000
     19 CAW         3.3130    1.1660   -3.2790 c2        1 ZZV     -0.313000
     20 CAX         2.4220    0.0840   -1.2780 c2        1 ZZV     -0.209000
     21 CAY         3.1480   -1.1580   -1.7390 c3        1 ZZV     -0.148000
     22 CAZ         3.3190   -1.2580   -3.2540 c2        1 ZZV     -0.003000
     23 NBA         1.6800   -0.0500   -0.0390 n4        1 ZZV     -0.345000
     24 NBB         2.6910    3.4030   -2.9530 n         1 ZZV     -0.294000
     25 SBC         2.9130   -0.1910    1.4250 s6        1 ZZV      2.772000
     26 HAA         0.0180    0.6730    1.0580 hx        1 ZZV      0.142333
     27 HAAA        1.1620    1.9630    0.4540 hx        1 ZZV      0.142333
     28 HAAB        0.0170    1.1290   -0.7150 hx        1 ZZV      0.142333
     29 HAB         2.9870   -1.9800    2.9000 h1        1 ZZV      0.216000
     30 HABA        1.3120   -1.5580    2.4940 h1        1 ZZV      0.216000
     31 HABB        2.3340   -2.4620    1.3180 h1        1 ZZV      0.216000
     32 HOAF        4.4810    0.8300   -5.4480 ho        1 ZZV      0.288000
     33 HAH         1.8330   -4.2940   -1.4210 hc        1 ZZV      0.208500
     34 HAI         3.6190   -4.2410   -1.6040 hc        1 ZZV      0.208500
     35 HAJ         7.4900    5.2900   -1.7050 ha        1 ZZV      0.160500
     36 HAK         4.5580    6.4250    1.2860 ha        1 ZZV      0.160500
     37 HAL         5.6390    4.6550   -3.2670 ha        1 ZZV      0.144000
     38 HAM         2.7210    5.7910   -0.2800 ha        1 ZZV      0.144000
     39 HAN         4.2350   -1.0270   -1.3550 hc        1 ZZV      0.227000
     40 HAO         2.0100    5.3090   -2.4950 h1        1 ZZV      0.126500
     41 HAOA        3.2400    5.1900   -3.8490 h1        1 ZZV      0.126500
     42 HAP         2.6150    3.0490   -0.8410 h1        1 ZZV      0.121000
     43 H18         1.0610    2.7620   -1.7820 h1        1 ZZV      0.121000
     44 OAF         4.3430   -0.0710   -5.0780 oh        1 ZZV     -0.173000
     45 CAO         2.9700    4.8120   -2.8180 c3        1 ZZV      0.009000
     46 HBA1        1.1800   -0.9470   -0.1160 hn        1 ZZV      0.251000
     47 OAC         4.1010    2.8930   -4.7880 o         1 ZZV     -0.323000
     48 FAG         7.1260    6.2210    0.7350 f         1 ZZV     -0.091000
@<TRIPOS>BOND
     1    1   23 1   
     2    1   26 1   
     3    1   27 1   
     4    1   28 1   
     5    2   25 1   
     6    2   29 1   
     7    2   30 1   
     8    2   31 1   
     9    3   25 1   
    10    4   25 1   
    11    5    6 1   
    12    5   11 1   
    13    5   33 1   
    14    5   34 1   
    15    6   13 1   
    16    7    9 1   
    17    7   15 1   
    18    7   35 1   
    19    8   10 1   
    20    8   15 1   
    21    8   36 1   
    22    9   16 1   
    23    9   37 1   
    24   10   16 1   
    25   10   38 1   
    26   11   21 1   
    27   12   18 1   
    28   12   24 1   
    29   12   42 1   
    30   12   43 1   
    31   13   22 1   
    32   14   19 1   
    33   14   24 1   
    34   14   47 1   
    35   15   48 1   
    36   16   45 1   
    37   17   19 1   
    38   17   22 1   
    39   17   44 1   
    40   18   19 1   
    41   18   20 1   
    42   20   21 1   
    43   20   23 1   
    44   21   22 1   
    45   21   39 1   
    46   23   25 1   
    47   23   46 1   
    48   24   45 1   
    49   32   44 1   
    50   40   45 1   
    51   41   45 1   
@<TRIPOS>SUBSTRUCTURE
     1 ZZV         1 TEMP              0 ****  ****    0 ROOT
