@<TRIPOS>MOLECULE
ZZW
   39    42     1     0     0
SMALL
bcc


@<TRIPOS>ATOM
      1 OAA         4.8150    0.3250    1.5350 o         1 ZZW     -0.572100
      2 OAB         6.1000    2.3760    0.4360 oh        1 ZZW     -0.437100
      3 CAD        -0.5160   -4.4210    0.7790 ca        1 ZZW     -0.157000
      4 CAE        -1.6910   -4.1650    0.0640 ca        1 ZZW     -0.095000
      5 CAF        -3.5380    2.9540   -0.1990 ca        1 ZZW     -0.165000
      6 CAG        -4.1480    0.9490    1.0540 ca        1 ZZW     -0.165000
      7 CAH        -2.7570    2.1730   -1.0450 ca        1 ZZW     -0.087500
      8 CAI        -3.3660    0.1880    0.1940 ca        1 ZZW     -0.087500
      9 CAJ         0.5150   -3.4850    0.8270 ca        1 ZZW     -0.066000
     10 CAK        -1.8810   -2.9710   -0.6280 ca        1 ZZW     -0.160000
     11 CAL         1.0470    1.0570   -1.1660 ca        1 ZZW      0.380200
     12 CAM         2.4640   -0.7500    0.4320 ca        1 ZZW     -0.124300
     13 CAN        -1.8590   -0.0440   -1.8100 c3        1 ZZW      0.092600
     14 NAO         2.2650    1.3930   -0.7320 nb        1 ZZW     -0.634000
     15 NAP         5.0990    1.7950   -0.2320 n         1 ZZW     -0.338400
     16 CAQ         4.3180    0.8920    0.5460 c         1 ZZW      0.512600
     17 CAR        -4.2380    2.3410    0.8570 ca        1 ZZW      0.137900
     18 CAS        -2.6690    0.7900   -0.8590 ca        1 ZZW     -0.145300
     19 CAT         2.9570    0.5140    0.0430 ca        1 ZZW      0.308800
     20 CAU         0.3590   -2.2820    0.1510 cp        1 ZZW     -0.080000
     21 CAV         1.2010   -1.1130   -0.0130 cp        1 ZZW     -0.061000
     22 CAW        -0.8560   -2.0200   -0.5900 ca        1 ZZW     -0.005200
     23 CAX         0.4600   -0.1890   -0.8450 ca        1 ZZW     -0.099500
     24 NAY        -0.7570   -0.7660   -1.2370 na        1 ZZW     -0.058300
     25 HOAB        6.7580    1.6710    0.6000 ho        1 ZZW      0.433000
     26 HAD        -0.4050   -5.3780    1.3120 ha        1 ZZW      0.138000
     27 HAE        -2.4870   -4.9260    0.0450 ha        1 ZZW      0.136000
     28 HAF        -3.6110    4.0410   -0.3420 ha        1 ZZW      0.153500
     29 HAG        -4.6940    0.4800    1.8850 ha        1 ZZW      0.153500
     30 HAH        -2.2050    2.6560   -1.8670 ha        1 ZZW      0.141500
     31 HAI        -3.2880   -0.9020    0.3450 ha        1 ZZW      0.141500
     32 HAJ         1.4380   -3.6910    1.3880 ha        1 ZZW      0.144000
     33 HAK        -2.8090   -2.7900   -1.1880 ha        1 ZZW      0.139000
     34 HAL         0.5220    1.8040   -1.7850 h4        1 ZZW      0.028100
     35 HAM         3.0710   -1.4080    1.0730 ha        1 ZZW      0.172000
     36 HAN        -2.5430   -0.8020   -2.2930 h1        1 ZZW      0.070700
     37 HANA       -1.4360    0.6180   -2.6220 h1        1 ZZW      0.070700
     38 HNAP        4.5590    2.5300   -0.6750 hn        1 ZZW      0.319500
     39 FAC        -5.0000    3.0910    1.6870 f         1 ZZW     -0.135900
@<TRIPOS>BOND
     1    1   16 2   
     2    2   15 1   
     3    2   25 1   
     4    3    4 ar  
     5    3    9 ar  
     6    3   26 1   
     7    4   10 ar  
     8    4   27 1   
     9    5    7 ar  
    10    5   17 ar  
    11    5   28 1   
    12    6    8 ar  
    13    6   17 ar  
    14    6   29 1   
    15    7   18 ar  
    16    7   30 1   
    17    8   18 ar  
    18    8   31 1   
    19    9   20 ar  
    20    9   32 1   
    21   10   22 ar  
    22   10   33 1   
    23   11   14 ar  
    24   11   23 ar  
    25   11   34 1   
    26   12   19 ar  
    27   12   21 ar  
    28   12   35 1   
    29   13   18 1   
    30   13   24 1   
    31   13   36 1   
    32   13   37 1   
    33   14   19 ar  
    34   15   16 1   
    35   15   38 1   
    36   16   19 1   
    37   17   39 1   
    38   20   21 1   
    39   20   22 ar  
    40   21   23 ar  
    41   22   24 1   
    42   23   24 1   
@<TRIPOS>SUBSTRUCTURE
     1 ZZW         1 TEMP              0 ****  ****    0 ROOT
