@<TRIPOS>MOLECULE
ZZW
   40    43     1     0     0
SMALL
bcc


@<TRIPOS>ATOM
      1 OAA        -0.1340   -0.0020   -0.0170 o         1 ZZW     -0.385100
      2 OAB         1.0820   -0.2050   -2.2210 oh        1 ZZW     -0.344300
      3 CAD         0.3590    0.2940    7.2440 ca        1 ZZW     -0.128000
      4 CAE         1.5750    0.2630    7.9440 ca        1 ZZW     -0.081000
      5 CAF         7.3510   -3.1290    4.4780 ca        1 ZZW     -0.163000
      6 CAG         5.7850   -3.7210    6.2570 ca        1 ZZW     -0.163000
      7 CAH         6.8180   -1.8450    4.4510 ca        1 ZZW     -0.085500
      8 CAI         5.2710   -2.4300    6.2180 ca        1 ZZW     -0.085500
      9 CAJ         0.3260    0.2330    5.8540 ca        1 ZZW     -0.069000
     10 CAK         2.7960    0.1700    7.2840 ca        1 ZZW     -0.136000
     11 CAL         3.9440   -0.1150    2.4100 ca        1 ZZW      0.405200
     12 CAM         1.1400    0.0430    2.5800 ca        1 ZZW     -0.055300
     13 CAN         5.2510   -0.0850    5.3110 c3        1 ZZW      0.086600
     14 NAO         3.2350   -0.1300    1.2930 nb        1 ZZW     -0.667000
     15 NAP         1.9230   -0.1960   -1.1640 n4        1 ZZW     -0.460300
     16 CAQ         1.0690   -0.0700    0.1400 c         1 ZZW      0.496600
     17 CAR         6.8310   -4.0750    5.3820 ca        1 ZZW      0.155900
     18 CAS         5.7800   -1.4880    5.3180 ca        1 ZZW     -0.160300
     19 CAT         1.8650   -0.0530    1.3670 ca        1 ZZW      0.210800
     20 CAU         1.5290    0.1400    5.1610 cp        1 ZZW     -0.077000
     21 CAV         1.8690    0.0580    3.7570 cp        1 ZZW     -0.081000
     22 CAW         2.7790    0.1110    5.8860 ca        1 ZZW     -0.019200
     23 CAX         3.3220   -0.0210    3.6940 ca        1 ZZW     -0.054500
     24 NAY         3.8560    0.0370    4.9650 na        1 ZZW     -0.019300
     25 HOAB        1.6090   -0.2850   -3.0470 ho        1 ZZW      0.460000
     26 HAD        -0.5840    0.3690    7.8090 ha        1 ZZW      0.156000
     27 HAE         1.5620    0.3120    9.0450 ha        1 ZZW      0.156000
     28 HAF         8.1750   -3.4130    3.8070 ha        1 ZZW      0.162500
     29 HAG         5.3890   -4.4660    6.9640 ha        1 ZZW      0.162500
     30 HAH         7.2310   -1.1050    3.7470 ha        1 ZZW      0.139500
     31 HAI         4.4570   -2.1470    6.9050 ha        1 ZZW      0.139500
     32 HAJ        -0.6310    0.2590    5.3120 ha        1 ZZW      0.149000
     33 HAK         3.7400    0.1460    7.8490 ha        1 ZZW      0.153000
     34 HAL         5.0430   -0.1860    2.3090 h4        1 ZZW      0.050100
     35 HAM         0.0390    0.1010    2.5770 ha        1 ZZW      0.179000
     36 HAN         5.3830    0.3620    6.3400 h1        1 ZZW      0.081700
     37 HANA        5.8400    0.5420    4.5770 h1        1 ZZW      0.081700
     38 HNAP        2.4680   -1.0730   -1.1120 hn        1 ZZW      0.466800
     39 HAP2        2.5710    0.6090   -1.2090 hn        1 ZZW      0.466800
     40 FAC         7.3380   -5.3270    5.4110 f         1 ZZW     -0.121900
@<TRIPOS>BOND
     1    1   16 2   
     2    2   15 1   
     3    2   25 1   
     4    3    4 ar  
     5    3    9 ar  
     6    3   26 1   
     7    4   10 ar  
     8    4   27 1   
     9    5    7 ar  
    10    5   17 ar  
    11    5   28 1   
    12    6    8 ar  
    13    6   17 ar  
    14    6   29 1   
    15    7   18 ar  
    16    7   30 1   
    17    8   18 ar  
    18    8   31 1   
    19    9   20 ar  
    20    9   32 1   
    21   10   22 ar  
    22   10   33 1   
    23   11   14 ar  
    24   11   23 ar  
    25   11   34 1   
    26   12   19 ar  
    27   12   21 ar  
    28   12   35 1   
    29   13   18 1   
    30   13   24 1   
    31   13   36 1   
    32   13   37 1   
    33   14   19 ar  
    34   15   16 1   
    35   15   38 1   
    36   15   39 1   
    37   16   19 1   
    38   17   40 1   
    39   20   21 1   
    40   20   22 ar  
    41   21   23 ar  
    42   22   24 1   
    43   23   24 1   
@<TRIPOS>SUBSTRUCTURE
     1 ZZW         1 TEMP              0 ****  ****    0 ROOT
