@<TRIPOS>MOLECULE
ZZX
   53    51     1     0     0
SMALL
bcc


@<TRIPOS>ATOM
      1 CAA        -1.4970    2.5980   -5.7010 c3        1 ZZX     -0.242000
      2 CAB        -2.4810   -1.5120    2.8910 c3        1 ZZX     -0.075000
      3 CAC        -1.5710    3.2100    0.2740 c3        1 ZZX     -0.231000
      4 OAD        -2.6100    0.8280    0.2750 o         1 ZZX     -0.370000
      5 OAE         0.9450    2.7690   -4.4590 o         1 ZZX     -0.384000
      6 OAF         3.3700   -1.1930   -0.3870 o         1 ZZX     -0.322000
      7 OAG         2.6920    0.0860   -2.4470 oh        1 ZZX     -0.201000
      8 FAH         2.4020   -4.4230    6.5780 f         1 ZZX     -0.090000
      9 CLAI        4.8090   -2.8710    5.0530 cl        1 ZZX      0.018000
     10 CAJ         1.2090   -4.6400    4.5280 c1        1 ZZX     -0.169000
     11 CAK         1.0740   -4.3000    3.1870 c1        1 ZZX     -0.088000
     12 CAL         2.9600   -2.7760    3.3850 c1        1 ZZX     -0.081000
     13 CAM        -1.6020    3.6780   -4.5870 c3        1 ZZX     -0.030000
     14 CAN         1.9450   -3.1690    1.0780 c3        1 ZZX      0.028000
     15 CAO        -1.5570    3.5040   -2.1630 c3        1 ZZX     -0.032000
     16 NAP         0.1610   -1.3790    1.2820 n1        1 ZZX      0.038000
     17 NAQ        -2.8500   -1.1180    1.5290 n         1 ZZX     -0.365000
     18 CAR        -2.0550   -0.0880    0.8120 c2        1 ZZX      0.369000
     19 CAS         0.2460    2.7170   -3.3960 c1        1 ZZX      0.387000
     20 CAT         2.2290   -4.0440    5.3110 c2        1 ZZX      0.107000
     21 CAU         1.9450   -3.3690    2.6070 c1        1 ZZX     -0.118000
     22 CAV         3.0970   -3.1180    4.7360 c2        1 ZZX     -0.106000
     23 CAW         1.7680    0.9980   -1.9310 c2        1 ZZX      0.187000
     24 CAX        -0.5030   -0.2360    0.6940 c2        1 ZZX     -0.138000
     25 CAY         0.6760    1.7680   -2.2010 c1        1 ZZX     -0.253000
     26 CAZ         2.1800   -0.9570   -0.1590 c1        1 ZZX      0.372000
     27 CBA         1.5440    0.3290   -0.6730 c1        1 ZZX     -0.246000
     28 CBB         0.2860    0.7170   -0.1930 c2        1 ZZX      0.068000
     29 CBC        -1.4950    2.4850   -1.1170 c3        1 ZZX      0.007000
     30 NBD        -1.0100    3.1770   -3.3850 n3        1 ZZX     -0.318000
     31 NBE         1.4360   -1.8170    0.7580 n2        1 ZZX     -0.237000
     32 NBF        -0.2700    1.6010   -1.1110 n3        1 ZZX     -0.065000
     33 HAA        -0.5410    2.1760   -5.6890 hc        1 ZZX      0.084000
     34 HAAA       -2.1600    1.9000   -5.5410 hc        1 ZZX      0.084000
     35 HAAB       -1.6600    3.0070   -6.5660 hc        1 ZZX      0.084000
     36 HAB        -1.9820   -2.2900    2.8620 h1        1 ZZX      0.085667
     37 HABA       -1.9190   -0.7620    3.3290 h1        1 ZZX      0.085667
     38 HABB       -3.2880   -1.6620    3.4150 h1        1 ZZX      0.085667
     39 HAC        -0.8790    2.7740    0.9350 hc        1 ZZX      0.093667
     40 HACA       -2.4940    3.1180    0.6510 hc        1 ZZX      0.093667
     41 HACB       -1.3660    4.1300    0.1630 hc        1 ZZX      0.093667
     42 HOAG        3.2220    0.5030   -3.0530 ho        1 ZZX      0.261000
     43 HAJ         0.5910   -5.3000    4.9370 ha        1 ZZX      0.154000
     44 HAK         0.3530   -4.7210    2.6370 ha        1 ZZX      0.144000
     45 HAL         3.5840   -2.1040    2.9700 ha        1 ZZX      0.179000
     46 HAM        -2.5490    3.8880   -4.4210 h1        1 ZZX      0.104500
     47 HAMA       -1.1250    4.5070   -4.8750 h1        1 ZZX      0.104500
     48 HAN         1.3640   -3.8560    0.6520 h1        1 ZZX      0.127000
     49 HANA        2.9170   -3.2660    0.7170 h1        1 ZZX      0.127000
     50 HAO        -1.1020    4.3080   -1.8330 h1        1 ZZX      0.098000
     51 HAOA       -2.5050    3.7260   -2.3070 h1        1 ZZX      0.098000
     52 HNAQ       -3.6470   -1.4380    1.1550 hn        1 ZZX      0.237000
     53 HBC        -2.2900    1.9070   -1.2070 h1        1 ZZX      0.154000
@<TRIPOS>BOND
     1    1   13 1   
     2    1   33 1   
     3    1   34 1   
     4    1   35 1   
     5    2   17 1   
     6    2   36 1   
     7    2   37 1   
     8    2   38 1   
     9    3   29 1   
    10    3   39 1   
    11    3   40 1   
    12    3   41 1   
    13    4   18 1   
    14    5   19 1   
    15    6   26 1   
    16    7   23 1   
    17    7   42 1   
    18    8   20 1   
    19    9   22 1   
    20   10   20 1   
    21   10   43 1   
    22   11   21 1   
    23   11   44 1   
    24   12   22 1   
    25   12   45 1   
    26   13   30 1   
    27   13   46 1   
    28   13   47 1   
    29   14   21 1   
    30   14   31 1   
    31   14   48 1   
    32   14   49 1   
    33   15   29 1   
    34   15   30 1   
    35   15   50 1   
    36   15   51 1   
    37   16   24 1   
    38   17   18 1   
    39   17   52 1   
    40   18   24 1   
    41   19   30 1   
    42   20   22 1   
    43   23   25 1   
    44   23   27 1   
    45   24   28 1   
    46   25   32 1   
    47   26   31 1   
    48   27   28 1   
    49   28   32 1   
    50   29   32 1   
    51   29   53 1   
@<TRIPOS>SUBSTRUCTURE
     1 ZZX         1 TEMP              0 ****  ****    0 ROOT
