@<TRIPOS>MOLECULE
ZZX
   54    55     1     0     0
SMALL
bcc


@<TRIPOS>ATOM
      1 CAA         1.4170   -0.8280   -1.0160 c1        1 ZZX     -0.175000
      2 CAB         3.6300   -2.1630    7.7070 c3        1 ZZX      0.139100
      3 CAC         3.9800    0.6670    4.7340 c3        1 ZZX     -0.194400
      4 OAD         5.8470    1.1050    6.1750 o         1 ZZX     -0.458100
      5 OAF         4.0960    6.8790    4.0450 o         1 ZZX     -0.578500
      6 OAG         2.2280    5.3750    1.6770 oh        1 ZZX     -0.418100
      7 CAJ         4.1730    6.3430    9.7610 ca        1 ZZX     -0.164000
      8 CAK         4.9930    6.0520    8.6780 ca        1 ZZX     -0.075000
      9 CAL         3.6620    7.5020    7.2660 ca        1 ZZX     -0.081000
     10 CAM         2.4530   -1.4170   -0.8930 c1        1 ZZX     -0.175000
     11 CAN         5.6470    6.3510    6.2740 c3        1 ZZX      0.149300
     12 CAO         2.3100    0.3320    2.8310 c3        1 ZZX      0.096800
     13 NAP         5.3750    4.0310    5.7560 nc        1 ZZX     -0.276300
     14 CAR         5.0300    1.5610    5.3810 c         1 ZZX      0.526800
     15 CAS         1.8230    2.3130    1.3020 c         1 ZZX      0.613700
     16 CAT         3.0800    7.2190    9.6060 ca        1 ZZX      0.163900
     17 CAU         4.7420    6.6310    7.4300 ca        1 ZZX     -0.152300
     18 CAV         2.8250    7.8020    8.3430 ca        1 ZZX     -0.032600
     19 CAW         2.8820    4.4380    2.3660 cc        1 ZZX      0.336100
     20 CAX         4.9280    3.0000    5.0270 cd        1 ZZX      0.214900
     21 CAY         2.7480    3.0300    2.1070 cd        1 ZZX     -0.308900
     22 CAZ         4.3150    5.6800    4.2610 c         1 ZZX      0.728100
     23 CBA         3.7980    4.5840    3.4650 cc        1 ZZX     -0.330600
     24 CBB         4.1860    3.2680    3.8290 cd        1 ZZX      0.020800
     25 CBC         3.6740    0.9420    3.2510 c3        1 ZZX      0.041000
     26 NBD         1.8920    0.7760    1.4730 ny        1 ZZX     -0.691800
     27 NBE         5.1430    5.2660    5.3900 n         1 ZZX     -0.170800
     28 NBF         3.6890    2.3530    2.9430 na        1 ZZX     -0.053100
     29 HAA        -0.7990    0.8800    0.1810 ha        1 ZZX      0.002000
     30 HAAA        0.4910   -0.3310   -1.1880 ha        1 ZZX      0.180500
     31 HAAB       -1.1520    1.3830   -0.1070 ha        1 ZZX      0.002000
     32 HAB         4.1170   -2.5590    8.6410 h1        1 ZZX      0.032367
     33 HABA        2.5340   -2.3970    7.7630 h1        1 ZZX      0.032367
     34 HABB        4.0690   -2.7090    6.8310 h1        1 ZZX      0.032367
     35 HAC         1.5070    0.6360    3.5630 hx        1 ZZX      0.118700
     36 HACA        4.3200   -0.4010    4.8260 hc        1 ZZX      0.115700
     37 HACB        3.0470    0.7760    5.3540 hc        1 ZZX      0.115700
     38 HOAG        2.4870    6.2560    2.0240 ho        1 ZZX      0.487000
     39 HAJ         4.3670    5.9000   10.7500 ha        1 ZZX      0.166000
     40 HAK         5.8450    5.3660    8.8090 ha        1 ZZX      0.151000
     41 HAL         3.4740    7.9590    6.2780 ha        1 ZZX      0.166000
     42 HAM         3.3640   -1.9620   -0.8160 ha        1 ZZX      0.180500
     43 HAMA        0.9630    0.3890    1.2480 hn        1 ZZX      0.466300
     44 HAN         6.6730    6.0620    6.6450 h1        1 ZZX      0.102200
     45 HANA        5.7440    7.2670    5.6210 h1        1 ZZX      0.102200
     46 HAO         2.4000   -0.7920    2.8380 hx        1 ZZX      0.118700
     47 HAOA        2.5500    0.4130    0.7670 hn        1 ZZX      0.466300
     48 HNAQ        3.3990   -0.2380    8.2730 hn        1 ZZX      0.355300
     49 HBC         4.4920    0.4640    2.6250 h1        1 ZZX      0.098700
     50 ClAI        1.5250    8.8610    8.1040 cl        1 ZZX     -0.045400
     51 NAQ         3.8000   -0.7500    7.5110 n8        1 ZZX     -0.947800
     52 HAQ2        4.7740   -0.5130    7.4490 hn        1 ZZX      0.355300
     53 OAE         0.9580    2.6800    0.5180 o         1 ZZX     -0.438100
     54 FAH         2.2940    7.4840   10.6710 f         1 ZZX     -0.110900
@<TRIPOS>BOND
     1    1   10 3   
     2    1   30 1   
     3    2   32 1   
     4    2   33 1   
     5    2   34 1   
     6    2   51 1   
     7    3   14 1   
     8    3   25 1   
     9    3   36 1   
    10    3   37 1   
    11    4   14 2   
    12    5   22 2   
    13    6   19 1   
    14    6   38 1   
    15    7    8 ar  
    16    7   16 ar  
    17    7   39 1   
    18    8   17 ar  
    19    8   40 1   
    20    9   17 ar  
    21    9   18 ar  
    22    9   41 1   
    23   10   42 1   
    24   11   17 1   
    25   11   27 1   
    26   11   44 1   
    27   11   45 1   
    28   12   25 1   
    29   12   26 1   
    30   12   35 1   
    31   12   46 1   
    32   13   20 2   
    33   13   27 1   
    34   14   20 1   
    35   15   21 1   
    36   15   26 1   
    37   15   53 2   
    38   16   18 ar  
    39   16   54 1   
    40   18   50 1   
    41   19   21 2   
    42   19   23 1   
    43   20   24 1   
    44   21   28 1   
    45   22   23 1   
    46   22   27 1   
    47   23   24 2   
    48   24   28 1   
    49   25   28 1   
    50   25   49 1   
    51   26   43 1   
    52   26   47 1   
    53   29   31 1   
    54   48   51 1   
    55   51   52 1   
@<TRIPOS>SUBSTRUCTURE
     1 ZZX         1 TEMP              0 ****  ****    0 ROOT
