@<TRIPOS>MOLECULE
ZZX
   54    55     1     0     0
SMALL
bcc


@<TRIPOS>ATOM
      1 CAA         1.3590   -0.8260   -0.9910 c1        1 ZZX     -0.175000
      2 CAB         3.6240   -2.1500    7.7210 c3        1 ZZX      0.139100
      3 CAC         3.9640    0.6720    4.7390 c3        1 ZZX     -0.194400
      4 OAD         5.8430    1.1060    6.1670 o         1 ZZX     -0.458100
      5 OAF         4.1000    6.8810    4.0340 o         1 ZZX     -0.578500
      6 OAG         2.2110    5.3800    1.6820 oh        1 ZZX     -0.418100
      7 CAJ         4.2120    6.3590    9.7510 ca        1 ZZX     -0.164000
      8 CAK         5.0230    6.0620    8.6640 ca        1 ZZX     -0.075000
      9 CAL         3.6900    7.5140    7.2560 ca        1 ZZX     -0.081000
     10 CAM         2.3930   -1.4190   -0.8730 c1        1 ZZX     -0.175000
     11 CAN         5.6640    6.3530    6.2540 c3        1 ZZX      0.149300
     12 CAO         2.2810    0.3390    2.8480 c3        1 ZZX      0.096800
     13 NAP         5.3800    4.0320    5.7440 nc        1 ZZX     -0.276300
     14 CAR         5.0220    1.5630    5.3770 c         1 ZZX      0.526800
     15 CAS         1.7920    2.3180    1.3170 c         1 ZZX      0.613700
     16 CAT         3.1210    7.2400    9.6010 ca        1 ZZX      0.163900
     17 CAU         4.7670    6.6390    7.4150 ca        1 ZZX     -0.152300
     18 CAV         2.8600    7.8200    8.3370 ca        1 ZZX     -0.032600
     19 CAW         2.8660    4.4410    2.3690 cc        1 ZZX      0.336100
     20 CAX         4.9240    3.0020    5.0200 cd        1 ZZX      0.214900
     21 CAY         2.7240    3.0340    2.1140 cd        1 ZZX     -0.308900
     22 CAZ         4.3160    5.6820    4.2510 c         1 ZZX      0.728100
     23 CBA         3.7900    4.5870    3.4620 cc        1 ZZX     -0.330600
     24 CBB         4.1750    3.2700    3.8260 cd        1 ZZX      0.020800
     25 CBC         3.6500    0.9450    3.2570 c3        1 ZZX      0.041000
     26 NBD         1.8560    0.7810    1.4910 n4        1 ZZX     -0.691800
     27 NBE         5.1500    5.2680    5.3760 n         1 ZZX     -0.170800
     28 NBF         3.6680    2.3540    2.9460 na        1 ZZX     -0.053100
     29 HAA        -0.8430    0.8930    0.2170 ha        1 ZZX      0.002000
     30 HAAA        0.4330   -0.3260   -1.1570 ha        1 ZZX      0.180500
     31 HAAB       -1.1960    1.3960   -0.0700 ha        1 ZZX      0.002000
     32 HAB         4.1160   -2.5460    8.6520 h1        1 ZZX      0.032367
     33 HABA        4.0560   -2.7000    6.8430 h1        1 ZZX      0.032367
     34 HABB        2.5280   -2.3810    7.7840 h1        1 ZZX      0.032367
     35 HAC         1.4840    0.6470    3.5850 hx        1 ZZX      0.118700
     36 HACA        4.3010   -0.3970    4.8320 hc        1 ZZX      0.115700
     37 HACB        3.0360    0.7860    5.3650 hc        1 ZZX      0.115700
     38 HOAG        2.4760    6.2600    2.0260 ho        1 ZZX      0.487000
     39 HAJ         4.4100    5.9180   10.7400 ha        1 ZZX      0.166000
     40 HAK         5.8740    5.3740    8.7910 ha        1 ZZX      0.151000
     41 HAL         3.4980    7.9690    6.2680 ha        1 ZZX      0.166000
     42 HAM         3.3030   -1.9680   -0.8010 ha        1 ZZX      0.180500
     43 HAMA        0.9240    0.3970    1.2730 hn        1 ZZX      0.466300
     44 HAN         6.6910    6.0610    6.6190 h1        1 ZZX      0.102200
     45 HANA        5.7590    7.2670    5.5980 h1        1 ZZX      0.102200
     46 HAO         2.3670   -0.7850    2.8580 hx        1 ZZX      0.118700
     47 HAOA        2.5080    0.4130    0.7830 hn        1 ZZX      0.466300
     48 HNAQ        3.4030   -0.2240    8.2840 hn        1 ZZX      0.355300
     49 HBC         4.4620    0.4620    2.6270 h1        1 ZZX      0.098700
     50 CLAI        1.5630    8.8840    8.1040 cl        1 ZZX     -0.045400
     51 NAQ         3.7980   -0.7380    7.5210 n3        1 ZZX     -0.947800
     52 HAQ2        4.7720   -0.5050    7.4520 hn        1 ZZX      0.355300
     53 OAE         0.9230    2.6860    0.5380 o         1 ZZX     -0.438100
     54 FAH         2.3430    7.5100   10.6700 f         1 ZZX     -0.110900
@<TRIPOS>BOND
     1    1   10 3   
     2    1   30 1   
     3    2   32 1   
     4    2   33 1   
     5    2   34 1   
     6    2   51 1   
     7    3   14 1   
     8    3   25 1   
     9    3   36 1   
    10    3   37 1   
    11    4   14 2   
    12    5   22 2   
    13    6   19 1   
    14    6   38 1   
    15    7    8 ar  
    16    7   16 ar  
    17    7   39 1   
    18    8   17 ar  
    19    8   40 1   
    20    9   17 ar  
    21    9   18 ar  
    22    9   41 1   
    23   10   42 1   
    24   11   17 1   
    25   11   27 1   
    26   11   44 1   
    27   11   45 1   
    28   12   25 1   
    29   12   26 1   
    30   12   35 1   
    31   12   46 1   
    32   13   20 2   
    33   13   27 1   
    34   14   20 1   
    35   15   21 1   
    36   15   26 1   
    37   15   53 2   
    38   16   18 ar  
    39   16   54 1   
    40   18   50 1   
    41   19   21 2   
    42   19   23 1   
    43   20   24 1   
    44   21   28 1   
    45   22   23 1   
    46   22   27 1   
    47   23   24 2   
    48   24   28 1   
    49   25   28 1   
    50   25   49 1   
    51   26   43 1   
    52   26   47 1   
    53   29   31 1   
    54   48   51 1   
    55   51   52 1   
@<TRIPOS>SUBSTRUCTURE
     1 ZZX         1 TEMP              0 ****  ****    0 ROOT
