@<TRIPOS>MOLECULE
ZZX
   53    56     1     0     0
SMALL
bcc


@<TRIPOS>ATOM
      1 CAA         6.7340    2.1840   -1.9880 c3        1 ZZX     -0.124100
      2 CAB         0.8430   -5.2270   -0.5870 c3        1 ZZX      0.071300
      3 CAC         3.0020   -1.5060   -1.9830 c3        1 ZZX     -0.114100
      4 OAD         2.3350   -3.2030    0.6600 o         1 ZZX     -0.611100
      5 OAF        -1.3350    1.7760    1.8540 o         1 ZZX     -0.596500
      6 OAG         1.4440    3.1420    1.1990 oh        1 ZZX     -0.447100
      7 CAJ        -5.3210   -1.6770   -0.5390 ca        1 ZZX     -0.168000
      8 CAK        -4.3600   -1.7270    0.4620 ca        1 ZZX     -0.088000
      9 CAL        -3.9750    0.6520    0.2340 ca        1 ZZX     -0.081000
     10 CAM         6.4550    1.6640   -0.5860 c3        1 ZZX      0.086000
     11 CAN        -2.6760   -0.6120    1.9610 c3        1 ZZX      0.150300
     12 CAO         4.8410   -0.1200   -1.0770 c3        1 ZZX      0.085000
     13 NAP        -0.6980   -1.6120    1.0770 nc        1 ZZX     -0.394300
     14 CAR         1.1640   -2.9610    0.3040 c         1 ZZX      0.604800
     15 CAS         4.0990    1.9250    0.0550 c         1 ZZX      0.750100
     16 CAT        -5.6190   -0.4530   -1.1710 ca        1 ZZX      0.141900
     17 CAU        -3.6870   -0.5660    0.8540 ca        1 ZZX     -0.125300
     18 CAV        -4.9360    0.7200   -0.7780 ca        1 ZZX     -0.026600
     19 CAW         1.6420    1.8630    0.8270 cc        1 ZZX      0.232100
     20 CAX         0.5430   -1.6210    0.5940 cd        1 ZZX      0.299900
     21 CAY         2.7980    1.2870    0.2510 cd        1 ZZX     -0.296900
     22 CAZ        -0.6720    0.8040    1.4620 c         1 ZZX      0.736100
     23 CBA         0.6800    0.8120    0.9610 cc        1 ZZX     -0.270600
     24 CBB         1.3050   -0.3910    0.4690 cd        1 ZZX     -0.037200
     25 CBC         3.5430   -0.8950   -0.6870 c3        1 ZZX      0.035000
     26 NBD         5.1390    1.1000   -0.3690 n         1 ZZX     -0.454800
     27 NBE        -1.2830   -0.5110    1.4920 n         1 ZZX     -0.203800
     28 NBF         2.5670   -0.0880    0.0170 na        1 ZZX      0.010900
     29 HAA         7.7690    2.6010   -2.0150 hc        1 ZZX      0.044367
     30 HAAA        6.6600    1.3690   -2.7470 hc        1 ZZX      0.044367
     31 HAAB        6.0170    2.9950   -2.2620 hc        1 ZZX      0.044367
     32 HAB         0.6020   -5.5390   -1.6380 h1        1 ZZX      0.048700
     33 HABA        1.9510   -5.3040   -0.4230 h1        1 ZZX      0.048700
     34 HABB        0.3250   -5.9250    0.1250 h1        1 ZZX      0.048700
     35 HAC         2.6960   -0.7160   -2.7100 hc        1 ZZX      0.054367
     36 HACA        3.8080   -2.1290   -2.4420 hc        1 ZZX      0.054367
     37 HACB        2.1240   -2.1630   -1.7780 hc        1 ZZX      0.054367
     38 HOAG        2.2780    3.6300    1.0440 ho        1 ZZX      0.463000
     39 HAJ        -5.8600   -2.5840   -0.8510 ha        1 ZZX      0.154000
     40 HAK        -4.1320   -2.6880    0.9500 ha        1 ZZX      0.142000
     41 HAL        -3.4350    1.5630    0.5500 ha        1 ZZX      0.178000
     42 HAM         7.2070    0.8610   -0.3350 h1        1 ZZX      0.066200
     43 HAMA        6.5840    2.5120    0.1480 h1        1 ZZX      0.066200
     44 HAN        -2.8430    0.2630    2.6560 h1        1 ZZX      0.088200
     45 HANA       -2.7990   -1.5650    2.5500 h1        1 ZZX      0.088200
     46 HAO         5.6970   -0.8350   -0.9070 h1        1 ZZX      0.052200
     47 HAOA        4.7980    0.1040   -2.1850 h1        1 ZZX      0.052200
     48 HNAQ       -0.5540   -3.6870   -0.5540 hn        1 ZZX      0.323500
     49 HBC         3.8320   -1.7360    0.0190 h1        1 ZZX      0.114700
     50 OAE         4.2690    3.1310    0.3410 o         1 ZZX     -0.661500
     51 FAH        -6.5570   -0.4290   -2.1450 f         1 ZZX     -0.124900
     52 CLAI       -5.2600    2.2150   -1.5090 cl        1 ZZX     -0.059400
     53 NAQ         0.4060   -3.8790   -0.3880 n         1 ZZX     -0.551900
@<TRIPOS>BOND
     1    1   10 1   
     2    1   29 1   
     3    1   30 1   
     4    1   31 1   
     5    2   32 1   
     6    2   33 1   
     7    2   34 1   
     8    2   53 1   
     9    3   25 1   
    10    3   35 1   
    11    3   36 1   
    12    3   37 1   
    13    4   14 2   
    14    5   22 2   
    15    6   19 1   
    16    6   38 1   
    17    7    8 ar  
    18    7   16 ar  
    19    7   39 1   
    20    8   17 ar  
    21    8   40 1   
    22    9   17 ar  
    23    9   18 ar  
    24    9   41 1   
    25   10   26 1   
    26   10   42 1   
    27   10   43 1   
    28   11   17 1   
    29   11   27 1   
    30   11   44 1   
    31   11   45 1   
    32   12   25 1   
    33   12   26 1   
    34   12   46 1   
    35   12   47 1   
    36   13   20 2   
    37   13   27 1   
    38   14   20 1   
    39   14   53 1   
    40   15   21 1   
    41   15   26 1   
    42   15   50 2   
    43   16   18 ar  
    44   16   51 1   
    45   18   52 1   
    46   19   21 2   
    47   19   23 1   
    48   20   24 1   
    49   21   28 1   
    50   22   23 1   
    51   22   27 1   
    52   23   24 2   
    53   24   28 1   
    54   25   28 1   
    55   25   49 1   
    56   48   53 1   
@<TRIPOS>SUBSTRUCTURE
     1 ZZX         1 TEMP              0 ****  ****    0 ROOT
