@<TRIPOS>MOLECULE
ZZY
   35    37     1     0     0
SMALL
bcc


@<TRIPOS>ATOM
      1 O11         0.0390    0.2100    0.3940 o         1 ZZY     -0.431100
      2 C10         1.2300    0.3880    0.1770 c         1 ZZY      0.589700
      3 N12         1.9810    0.9580    1.3770 nz        1 ZZY     -0.763400
      4 C5          2.0060    0.1730   -1.0230 ca        1 ZZY     -0.355900
      5 C3          1.2870    0.0520   -2.2340 ca        1 ZZY      0.010000
      6 C1          2.0300   -0.1420   -3.3920 ca        1 ZZY     -0.169500
      7 C6          3.4280    0.0760   -1.0350 ca        1 ZZY      0.438200
      8 N4          4.1650   -0.0950   -2.1310 nb        1 ZZY     -0.607000
      9 C2          3.4970   -0.1870   -3.3070 ca        1 ZZY      0.504100
     10 C8          3.9730   -0.3120   -4.6650 cc        1 ZZY     -0.297800
     11 C7          2.8500   -0.3390   -5.4850 cd        1 ZZY      0.026900
     12 N9          1.6510   -0.2660   -4.7450 na        1 ZZY     -0.218900
     13 S13         0.0780   -0.1860   -5.3560 sy        1 ZZY      1.498300
     14 O16        -0.6410    0.5940   -4.4340 o         1 ZZY     -0.605800
     15 O15         0.1180    0.2160   -6.6850 o         1 ZZY     -0.605800
     16 C14        -0.5100   -1.7760   -5.2310 ca        1 ZZY     -0.339500
     17 C21        -0.3730   -2.8120   -6.1800 ca        1 ZZY     -0.046200
     18 N22         0.5210   -2.6470   -7.3720 no        1 ZZY      0.310200
     19 O23         0.2580   -3.2350   -8.3780 o         1 ZZY     -0.187500
     20 O24         1.4980   -1.9560   -7.2500 o         1 ZZY     -0.187500
     21 C20        -1.3250   -2.0490   -4.1220 ca        1 ZZY     -0.033000
     22 C18        -1.9830   -3.2690   -3.9640 ca        1 ZZY     -0.118000
     23 C17        -1.8490   -4.2590   -4.9310 ca        1 ZZY     -0.051000
     24 C19        -1.0420   -4.0330   -6.0500 ca        1 ZZY     -0.093000
     25 H121        1.3120    1.2060    2.1160 hn        1 ZZY      0.466467
     26 H122        2.6370    0.2630    1.7410 hn        1 ZZY      0.466467
     27 H3          0.1850    0.1420   -2.2470 ha        1 ZZY      0.191000
     28 H6          4.0210    0.1210   -0.1030 h4        1 ZZY      0.012100
     29 H8          5.0160   -0.3650   -4.9750 ha        1 ZZY      0.202000
     30 H7          2.8130   -0.3920   -6.5860 h4        1 ZZY      0.234000
     31 H20        -1.4810   -1.2600   -3.3600 ha        1 ZZY      0.168000
     32 H19        -0.9420   -4.8140   -6.8270 ha        1 ZZY      0.189000
     33 H18        -2.6190   -3.4380   -3.0790 ha        1 ZZY      0.165000
     34 H17        -2.3790   -5.2220   -4.8280 ha        1 ZZY      0.171000
     35 H123        2.5030    1.7920    1.0940 hn        1 ZZY      0.466467
@<TRIPOS>BOND
     1    1    2 2   
     2    2    3 1   
     3    2    4 1   
     4    3   25 1   
     5    3   26 1   
     6    3   35 1   
     7    4    5 ar  
     8    4    7 ar  
     9    5    6 ar  
    10    5   27 1   
    11    6    9 ar  
    12    6   12 1   
    13    7    8 ar  
    14    7   28 1   
    15    8    9 ar  
    16    9   10 1   
    17   10   11 2   
    18   10   29 1   
    19   11   12 1   
    20   11   30 1   
    21   12   13 1   
    22   13   14 2   
    23   13   15 2   
    24   13   16 1   
    25   16   17 ar  
    26   16   21 ar  
    27   17   18 1   
    28   17   24 ar  
    29   18   19 1   
    30   18   20 1   
    31   21   22 ar  
    32   21   31 1   
    33   22   23 ar  
    34   22   33 1   
    35   23   24 ar  
    36   23   34 1   
    37   24   32 1   
@<TRIPOS>SUBSTRUCTURE
     1 ZZY         1 TEMP              0 ****  ****    0 ROOT
