@<TRIPOS>MOLECULE
ZZY
   34    36     1     0     0
SMALL
bcc


@<TRIPOS>ATOM
      1 O11         0.0750   -0.3830    0.2610 o         1 ZZY     -0.615100
      2 C10         1.1990    0.1520    0.1550 c         1 ZZY      0.678700
      3 N12         1.7400    0.8370    1.2150 n         1 ZZY     -0.667000
      4 C5          1.9840    0.0660   -1.1060 ca        1 ZZY     -0.250900
      5 C3          1.2820    0.0620   -2.3160 ca        1 ZZY     -0.048000
      6 C1          2.0390   -0.0600   -3.4820 ca        1 ZZY     -0.153500
      7 C6          3.3960   -0.0430   -1.1050 ca        1 ZZY      0.411200
      8 N4          4.1520   -0.1390   -2.2110 nb        1 ZZY     -0.629000
      9 C2          3.4910   -0.1430   -3.3850 ca        1 ZZY      0.450100
     10 C8          3.9800   -0.2210   -4.7600 cc        1 ZZY     -0.278800
     11 C7          2.8750   -0.1950   -5.5850 cd        1 ZZY     -0.037100
     12 N9          1.6650   -0.1080   -4.8440 na        1 ZZY     -0.254900
     13 S13         0.1380   -0.0590   -5.4710 sy        1 ZZY      1.499300
     14 O16        -0.6450    0.8080   -4.6900 o         1 ZZY     -0.620300
     15 O15         0.1760    0.1850   -6.8460 o         1 ZZY     -0.620300
     16 C14        -0.4650   -1.6440   -5.1960 ca        1 ZZY     -0.311500
     17 C21        -0.3020   -2.7710   -6.0250 ca        1 ZZY     -0.050200
     18 N22         0.5730   -2.7180   -7.2400 no        1 ZZY      0.309200
     19 O23         0.2920   -3.4080   -8.1780 o         1 ZZY     -0.194500
     20 O24         1.5510   -2.0220   -7.2160 o         1 ZZY     -0.194500
     21 C20        -1.2700   -1.8060   -4.0610 ca        1 ZZY     -0.031000
     22 C18        -1.8900   -3.0200   -3.7590 ca        1 ZZY     -0.113000
     23 C17        -1.7270   -4.1100   -4.6080 ca        1 ZZY     -0.072000
     24 C19        -0.9350   -3.9890   -5.7520 ca        1 ZZY     -0.101000
     25 H121        2.5790    1.3460    1.1190 hn        1 ZZY      0.315500
     26 H122        1.2110    0.9360    2.0460 hn        1 ZZY      0.315500
     27 H3          0.1840    0.1610   -2.3250 ha        1 ZZY      0.172000
     28 H6          3.9610   -0.0680   -0.1550 h4        1 ZZY      0.027100
     29 H8          5.0250   -0.2830   -5.0520 ha        1 ZZY      0.180000
     30 H7          2.8220   -0.2380   -6.6820 h4        1 ZZY      0.210000
     31 H20        -1.4390   -0.9420   -3.3880 ha        1 ZZY      0.180000
     32 H19        -0.8140   -4.8490   -6.4340 ha        1 ZZY      0.176000
     33 H18        -2.5080   -3.1070   -2.8510 ha        1 ZZY      0.162000
     34 H17        -2.2190   -5.0710   -4.3870 ha        1 ZZY      0.157000
@<TRIPOS>BOND
     1    1    2 2   
     2    2    3 1   
     3    2    4 1   
     4    3   25 1   
     5    3   26 1   
     6    4    5 ar  
     7    4    7 ar  
     8    5    6 ar  
     9    5   27 1   
    10    6    9 ar  
    11    6   12 1   
    12    7    8 ar  
    13    7   28 1   
    14    8    9 ar  
    15    9   10 1   
    16   10   11 2   
    17   10   29 1   
    18   11   12 1   
    19   11   30 1   
    20   12   13 1   
    21   13   14 2   
    22   13   15 2   
    23   13   16 1   
    24   16   17 ar  
    25   16   21 ar  
    26   17   18 1   
    27   17   24 ar  
    28   18   19 1   
    29   18   20 1   
    30   21   22 ar  
    31   21   31 1   
    32   22   23 ar  
    33   22   33 1   
    34   23   24 ar  
    35   23   34 1   
    36   24   32 1   
@<TRIPOS>SUBSTRUCTURE
     1 ZZY         1 TEMP              0 ****  ****    0 ROOT
