@<TRIPOS>MOLECULE
ZZY
   34    36     1     0     0
SMALL
bcc


@<TRIPOS>ATOM
      1 O11         3.7160   -2.5040    0.0950 o         1 ZZY     -0.615100
      2 C10         4.1890   -1.3500    0.0180 c         1 ZZY      0.678700
      3 N12         5.5410   -1.1490    0.1410 n         1 ZZY     -0.667000
      4 C5          3.3160   -0.1670   -0.2120 ca        1 ZZY     -0.250900
      5 C3          2.0350   -0.1790    0.3500 ca        1 ZZY     -0.048000
      6 C1          1.2220    0.9250    0.0870 ca        1 ZZY     -0.153500
      7 C6          3.7350    0.9330   -0.9990 ca        1 ZZY      0.411200
      8 N4          2.9840    2.0180   -1.2510 nb        1 ZZY     -0.629000
      9 C2          1.7470    2.0230   -0.7150 ca        1 ZZY      0.450100
     10 C8          0.6820    3.0220   -0.7710 cc        1 ZZY     -0.278800
     11 C7         -0.3840    2.5180   -0.0550 cd        1 ZZY     -0.037100
     12 N9         -0.1010    1.2320    0.4780 na        1 ZZY     -0.254900
     13 S13        -1.1230    0.3050    1.3850 sy        1 ZZY      1.499300
     14 O16        -0.3760   -0.3690    2.3650 o         1 ZZY     -0.620300
     15 O15        -2.2150    1.0580    1.8240 o         1 ZZY     -0.620300
     16 C14        -1.6720   -0.8920    0.2810 ca        1 ZZY     -0.311500
     17 C21        -2.7610   -0.7930   -0.6070 ca        1 ZZY     -0.050200
     18 N22        -3.5130    0.4920   -0.7710 no        1 ZZY      0.309200
     19 O23        -4.6770    0.4440   -1.0500 o         1 ZZY     -0.194500
     20 O24        -2.9140    1.5280   -0.6630 o         1 ZZY     -0.194500
     21 C20        -1.0080   -2.1260    0.3310 ca        1 ZZY     -0.031000
     22 C18        -1.4010   -3.2110   -0.4530 ca        1 ZZY     -0.113000
     23 C17        -2.4930   -3.0890   -1.3060 ca        1 ZZY     -0.072000
     24 C19        -3.1840   -1.8780   -1.3840 ca        1 ZZY     -0.101000
     25 H121        6.1280   -1.9230    0.3340 hn        1 ZZY      0.315500
     26 H122        5.9200   -0.2390    0.1800 hn        1 ZZY      0.315500
     27 H3          1.7070   -1.0250    0.9760 ha        1 ZZY      0.172000
     28 H6          4.7340    0.9430   -1.4710 h4        1 ZZY      0.027100
     29 H8          0.7450    3.9780   -1.2850 ha        1 ZZY      0.180000
     30 H7         -1.3700    2.9650    0.1340 h4        1 ZZY      0.210000
     31 H20        -0.1560   -2.2530    1.0280 ha        1 ZZY      0.180000
     32 H19        -4.0590   -1.7820   -2.0510 ha        1 ZZY      0.176000
     33 H18        -0.8460   -4.1600   -0.3880 ha        1 ZZY      0.162000
     34 H17        -2.8190   -3.9420   -1.9230 ha        1 ZZY      0.157000
@<TRIPOS>BOND
     1    1    2 2   
     2    2    3 1   
     3    2    4 1   
     4    3   25 1   
     5    3   26 1   
     6    4    5 ar  
     7    4    7 ar  
     8    5    6 ar  
     9    5   27 1   
    10    6    9 ar  
    11    6   12 1   
    12    7    8 ar  
    13    7   28 1   
    14    8    9 ar  
    15    9   10 1   
    16   10   11 2   
    17   10   29 1   
    18   11   12 1   
    19   11   30 1   
    20   12   13 1   
    21   13   14 2   
    22   13   15 2   
    23   13   16 1   
    24   16   17 ar  
    25   16   21 ar  
    26   17   18 1   
    27   17   24 ar  
    28   18   19 1   
    29   18   20 1   
    30   21   22 ar  
    31   21   31 1   
    32   22   23 ar  
    33   22   33 1   
    34   23   24 ar  
    35   23   34 1   
    36   24   32 1   
@<TRIPOS>SUBSTRUCTURE
     1 ZZY         1 TEMP              0 ****  ****    0 ROOT
