@<TRIPOS>MOLECULE
ZZZ
   23    24     1     0     0
SMALL
bcc


@<TRIPOS>ATOM
      1 C7          0.0790    0.0480    0.0070 c3        1 ZZZ      0.190800
      2 N8          1.5220   -0.0100   -0.0310 nu        1 ZZZ     -0.714000
      3 C9          2.1640   -0.0590    1.2260 cc        1 ZZZ      0.347600
      4 N1          3.4750   -0.5420    1.2650 nc        1 ZZZ     -0.696300
      5 C2          4.1300   -0.4920    2.4380 cd        1 ZZZ      0.666800
      6 N2          5.4110   -1.0930    2.5390 nv        1 ZZZ     -0.883800
      7 C10         1.5120    0.4430    2.3640 cd        1 ZZZ     -0.147200
      8 C4          2.2600    0.5510    3.6210 c         1 ZZZ      0.716700
      9 N3          3.5860    0.0740    3.6030 ns        1 ZZZ     -0.490400
     10 O4          1.8350    1.0420    4.6840 o         1 ZZZ     -0.631500
     11 N5          0.1300    0.7590    2.3880 nu        1 ZZZ     -0.644000
     12 C6         -0.4440    1.0360    1.0800 c3        1 ZZZ      0.055500
     13 C6A        -0.3000    2.4650    0.5740 c         1 ZZZ      0.541900
     14 O6A        -0.1440    3.4260    1.3240 o         1 ZZZ     -0.513100
     15 H7C1       -0.3760   -0.9650    0.2140 h1        1 ZZZ      0.052200
     16 H7C2       -0.2710    0.3870   -1.0080 h1        1 ZZZ      0.052200
     17 H8          1.8820   -0.6440   -0.7160 hn        1 ZZZ      0.420800
     18 H2N1        5.7870   -1.3950    1.6640 hn        1 ZZZ      0.414300
     19 H2N2        6.0640   -0.5840    3.0950 hn        1 ZZZ      0.414300
     20 H3          4.0940    0.0740    4.4600 hn        1 ZZZ      0.338500
     21 H5         -0.0480    1.5180    3.0290 hn        1 ZZZ      0.410800
     22 H6         -1.5590    0.8560    1.1870 h1        1 ZZZ      0.092700
     23 H6A        -0.3740    2.5830   -0.5300 h4        1 ZZZ      0.004200
@<TRIPOS>BOND
     1    1    2 1   
     2    1   12 1   
     3    1   15 1   
     4    1   16 1   
     5    2    3 1   
     6    2   17 1   
     7    3    4 1   
     8    3    7 2   
     9    4    5 2   
    10    5    6 1   
    11    5    9 1   
    12    6   18 1   
    13    6   19 1   
    14    7    8 1   
    15    7   11 1   
    16    8    9 1   
    17    8   10 2   
    18    9   20 1   
    19   11   12 1   
    20   11   21 1   
    21   12   13 1   
    22   12   22 1   
    23   13   14 2   
    24   13   23 1   
@<TRIPOS>SUBSTRUCTURE
     1 ZZZ         1 TEMP              0 ****  ****    0 ROOT
