@<TRIPOS>MOLECULE
ZZZ
   23    24     1     0     0
SMALL
bcc


@<TRIPOS>ATOM
      1 C7         -2.1160    1.3930   -0.8090 c3        1 ZZZ      0.190800
      2 N8         -0.9140    1.8340   -0.1400 nh        1 ZZZ     -0.714000
      3 C9          0.1740    0.9340   -0.1840 cc        1 ZZZ      0.347600
      4 N1          1.4510    1.4520    0.0470 nc        1 ZZZ     -0.696300
      5 C2          2.4790    0.5870    0.1120 cd        1 ZZZ      0.666800
      6 N2          3.8000    1.0920    0.2140 nh        1 ZZZ     -0.883800
      7 C10        -0.0610   -0.4370   -0.3740 cd        1 ZZZ     -0.147200
      8 C4          1.0580   -1.3750   -0.2360 c         1 ZZZ      0.716700
      9 N3          2.3220   -0.8060    0.0210 n         1 ZZZ     -0.490400
     10 O4          0.9850   -2.6160   -0.3050 o         1 ZZZ     -0.631500
     11 N5         -1.3110   -0.9580   -0.7950 nh        1 ZZZ     -0.644000
     12 C6         -2.4460   -0.0910   -0.5130 c3        1 ZZZ      0.055500
     13 C6A        -3.0540   -0.2140    0.8770 c         1 ZZZ      0.541900
     14 O6A        -2.9490   -1.2280    1.5640 o         1 ZZZ     -0.513100
     15 H7C1       -2.0430    1.5190   -1.9280 h1        1 ZZZ      0.052200
     16 H7C2       -2.9620    2.0390   -0.4400 h1        1 ZZZ      0.052200
     17 H8         -0.6810    2.7900   -0.3170 hn        1 ZZZ      0.420800
     18 H2N1        3.8460    2.0780    0.3680 hn        1 ZZZ      0.414300
     19 H2N2        4.3980    0.5700    0.8170 hn        1 ZZZ      0.414300
     20 H3          3.1110   -1.4150    0.0530 hn        1 ZZZ      0.338500
     21 H5         -1.4570   -1.8800   -0.4120 hn        1 ZZZ      0.410800
     22 H6         -3.2610   -0.4050   -1.2370 h1        1 ZZZ      0.092700
     23 H6A        -3.6300    0.6730    1.2200 h4        1 ZZZ      0.004200
@<TRIPOS>BOND
     1    1    2 1   
     2    1   12 1   
     3    1   15 1   
     4    1   16 1   
     5    2    3 1   
     6    2   17 1   
     7    3    4 1   
     8    3    7 2   
     9    4    5 2   
    10    5    6 1   
    11    5    9 1   
    12    6   18 1   
    13    6   19 1   
    14    7    8 1   
    15    7   11 1   
    16    8    9 1   
    17    8   10 2   
    18    9   20 1   
    19   11   12 1   
    20   11   21 1   
    21   12   13 1   
    22   12   22 1   
    23   13   14 2   
    24   13   23 1   
@<TRIPOS>SUBSTRUCTURE
     1 ZZZ         1 TEMP              0 ****  ****    0 ROOT
