@<TRIPOS>MOLECULE
R
   51    54     1     0     0
SMALL
bcc


@<TRIPOS>ATOM
      1 P           1.5000    1.4420   -5.7430 p5        1 R        1.330900
      2 OP1         2.4020    1.9180   -4.6400 o         1 R       -0.929500
      3 OP2         2.0860    1.2220   -7.1020 o         1 R       -0.929500
      4 OP3         0.0980    2.0140   -5.6780 o         1 R       -0.929500
      5 O5'         1.1190   -0.1730   -5.1890 os        1 R       -0.552200
      6 C5'         0.6360   -0.2100   -3.9130 c3        1 R        0.227400
      7 C4'        -0.9000   -0.3980   -3.9140 c3        1 R        0.051100
      8 O4'        -1.2930   -1.2460   -2.8000 os        1 R       -0.434600
      9 C3'        -1.6900    0.9210   -3.8010 c3        1 R        0.156100
     10 O3'        -2.4290    1.1770   -4.9730 oh        1 R       -0.670800
     11 C2'        -2.6720    0.7070   -2.6390 c3        1 R       -0.130400
     12 C1'        -2.1700   -0.5630   -1.9230 c3        1 R        0.252800
     13 N9         -1.4820   -0.2920   -0.6560 na        1 R       -0.256000
     14 C8         -0.1510    0.1480   -0.4830 cc        1 R        0.466700
     15 N7          0.2270    0.2360    0.8070 nd        1 R       -0.594100
     16 C5         -0.8920   -0.1740    1.5420 ca        1 R       -0.204200
     17 C6         -1.1390   -0.3130    2.9430 ca        1 R        0.698200
     18 N6         -0.1620    0.1180    3.8490 nh        1 R       -0.836900
     19 N1         -2.3470   -0.8010    3.3630 nb        1 R       -0.803000
     20 C2         -3.2740   -1.0850    2.4030 ca        1 R        0.640900
     21 N3         -3.2000   -0.9830    1.0610 nb        1 R       -0.709000
     22 C4         -1.9840   -0.5250    0.6260 ca        1 R        0.430800
     23 CA         -0.1380   -0.3910    5.2040 c3        1 R        0.224800
     24 CB          0.1880   -1.9020    5.3220 c3        1 R        0.099400
     25 OB          1.3590   -2.2870    4.6330 oh        1 R       -0.607800
     26 CJ          0.8220    0.4090    6.0540 ca        1 R       -0.082300
     27 CO          0.3240    1.2480    7.0560 ca        1 R       -0.110500
     28 CO'         2.2030    0.3260    5.8450 ca        1 R       -0.110500
     29 CM          1.2000    1.9870    7.8490 ca        1 R       -0.138000
     30 CM'         3.0760    1.0700    6.6380 ca        1 R       -0.138000
     31 CP          2.5760    1.9010    7.6410 ca        1 R       -0.134000
     32 H5'         0.9050    0.7330   -3.3530 h1        1 R       -0.004800
     33 H5''        1.0730   -1.0980   -3.3630 h1        1 R       -0.004800
     34 H4'        -1.2070   -0.9640   -4.8340 h1        1 R        0.081700
     35 H3'        -0.9960    1.7850   -3.6000 h1        1 R        0.104700
     36 HO3'       -1.7710    1.5280   -5.6190 ho        1 R        0.501000
     37 H2'        -3.7020    0.5170   -3.0310 hc        1 R        0.054700
     38 H2''       -2.7090    1.5990   -1.9730 hc        1 R        0.054700
     39 H1'        -3.0090   -1.2790   -1.6790 h2        1 R        0.073700
     40 H8          0.4800    0.3790   -1.3660 h5        1 R        0.130800
     41 H6          0.7380    0.2720    3.4420 hn        1 R        0.437800
     42 H2         -4.2390   -1.4630    2.7980 h5        1 R        0.030100
     43 HA         -1.1790   -0.2630    5.6340 h1        1 R        0.083700
     44 HB1        -0.6910   -2.4990    4.9600 h1        1 R        0.053200
     45 HB2         0.3970   -2.1500    6.3960 h1        1 R        0.053200
     46 HB          1.1770   -2.2260    3.6860 ho        1 R        0.412000
     47 HO         -0.7620    1.3320    7.2120 ha        1 R        0.144500
     48 HO'         2.5940   -0.3420    5.0600 ha        1 R        0.144500
     49 HM          0.8030    2.6460    8.6340 ha        1 R        0.125000
     50 HM'         4.1600    1.0050    6.4650 ha        1 R        0.125000
     51 HP          3.2650    2.4900    8.2620 ha        1 R        0.120000
@<TRIPOS>BOND
     1    1    2 1   
     2    1    3 1   
     3    1    4 1   
     4    1    5 1   
     5    5    6 1   
     6    6    7 1   
     7    6   32 1   
     8    6   33 1   
     9    7    8 1   
    10    7    9 1   
    11    7   34 1   
    12    8   12 1   
    13    9   10 1   
    14    9   11 1   
    15    9   35 1   
    16   10   36 1   
    17   11   12 1   
    18   11   37 1   
    19   11   38 1   
    20   12   13 1   
    21   12   39 1   
    22   13   14 1   
    23   13   22 1   
    24   14   15 2   
    25   14   40 1   
    26   15   16 1   
    27   16   17 ar  
    28   16   22 ar  
    29   17   18 1   
    30   17   19 ar  
    31   18   23 1   
    32   18   41 1   
    33   19   20 ar  
    34   20   21 ar  
    35   20   42 1   
    36   21   22 ar  
    37   23   24 1   
    38   23   26 1   
    39   23   43 1   
    40   24   25 1   
    41   24   44 1   
    42   24   45 1   
    43   25   46 1   
    44   26   27 ar  
    45   26   28 ar  
    46   27   29 ar  
    47   27   47 1   
    48   28   30 ar  
    49   28   48 1   
    50   29   31 ar  
    51   29   49 1   
    52   30   31 ar  
    53   30   50 1   
    54   31   51 1   
@<TRIPOS>SUBSTRUCTURE
     1 R           1 TEMP              0 ****  ****    0 ROOT
