@<TRIPOS>MOLECULE
R00
   47    48     1     0     0
SMALL
bcc


@<TRIPOS>ATOM
      1 N          -2.3290    1.4430    0.5470 n3        1 R00     -0.900800
      2 C1         -2.2950    0.1400   -0.0940 c3        1 R00      0.142500
      3 C2         -0.9830   -0.1550   -0.8870 c3        1 R00      0.132100
      4 O1         -0.6910    0.9340   -1.7330 oh        1 R00     -0.627800
      5 C3         -3.4770   -0.0620   -1.0600 c3        1 R00     -0.036100
      6 C4         -4.7970   -0.0580   -0.3760 ca        1 R00     -0.047300
      7 C5         -5.4190    1.1480   -0.0290 ca        1 R00     -0.120000
      8 C6         -5.4440   -1.2660   -0.0840 ca        1 R00     -0.120000
      9 C7         -6.6650    1.1440    0.5960 ca        1 R00     -0.139000
     10 C8         -6.6910   -1.2670    0.5390 ca        1 R00     -0.139000
     11 C9         -7.3050   -0.0630    0.8790 ca        1 R00     -0.148000
     12 C10         0.1300   -0.5280    0.1190 c3        1 R00      0.149800
     13 N2          1.4640   -0.3470   -0.4050 n3        1 R00     -0.820200
     14 C11         2.3200    0.5270    0.3860 c3        1 R00      0.063500
     15 C           1.7940    1.9980    0.5260 c         1 R00      0.927600
     16 O           0.5450    2.2090    0.5670 o         1 R00     -0.841300
     17 C13         3.7460    0.5690   -0.1880 c3        1 R00     -0.046100
     18 C14         4.4470   -0.7370   -0.0600 ca        1 R00     -0.052300
     19 C15         4.4290   -1.6650   -1.1110 ca        1 R00     -0.136500
     20 C16         5.1400   -1.0570    1.1150 ca        1 R00     -0.136500
     21 C17         5.0930   -2.8840   -0.9880 ca        1 R00     -0.138000
     22 C18         5.8030   -2.2760    1.2350 ca        1 R00     -0.138000
     23 C19         5.7820   -3.1930    0.1840 ca        1 R00     -0.156000
     24 OXT         2.6570    2.9050    0.6610 o         1 R00     -0.841300
     25 H1         -1.5380    1.5320    1.1650 hn        1 R00      0.365300
     26 H          -2.3790   -0.6350    0.7240 h1        1 R00      0.041700
     27 H3         -1.1550   -1.0220   -1.5870 h1        1 R00      0.031700
     28 H4         -0.1170    1.5500   -1.2430 ho        1 R00      0.459000
     29 H5         -3.4460    0.7430   -1.8440 hc        1 R00      0.048700
     30 H6         -3.3310   -1.0440   -1.5850 hc        1 R00      0.048700
     31 H7         -4.9070    2.1000   -0.2360 ha        1 R00      0.135000
     32 H8         -4.9630   -2.2190   -0.3460 ha        1 R00      0.135000
     33 H9         -7.1410    2.0960    0.8710 ha        1 R00      0.117500
     34 H10        -7.1890   -2.2210    0.7650 ha        1 R00      0.117500
     35 H11        -8.2870   -0.0640    1.3720 ha        1 R00      0.115000
     36 H12        -0.0070    0.0960    1.0490 h1        1 R00      0.034200
     37 H13        -0.0490   -1.6060    0.4070 h1        1 R00      0.034200
     38 H14         1.9150   -1.2330   -0.5380 hn        1 R00      0.341800
     39 H15         2.3980    0.1490    1.4540 h1        1 R00      0.000700
     40 H16         3.7060    0.8860   -1.2630 hc        1 R00      0.075200
     41 H17         4.3020    1.3680    0.3750 hc        1 R00      0.075200
     42 H18         3.8820   -1.4220   -2.0350 ha        1 R00      0.138500
     43 H19         5.1530   -0.3340    1.9450 ha        1 R00      0.138500
     44 H20         5.0720   -3.6040   -1.8190 ha        1 R00      0.116000
     45 H21         6.3430   -2.5170    2.1620 ha        1 R00      0.116000
     46 H22         6.3050   -4.1540    0.2800 ha        1 R00      0.114000
     47 H2         -2.2270    2.1560   -0.1550 hn        1 R00      0.365300
@<TRIPOS>BOND
     1    1    2 1   
     2    1   25 1   
     3    1   47 1   
     4    2    3 1   
     5    2    5 1   
     6    2   26 1   
     7    3    4 1   
     8    3   12 1   
     9    3   27 1   
    10    4   28 1   
    11    5    6 1   
    12    5   29 1   
    13    5   30 1   
    14    6    7 ar  
    15    6    8 ar  
    16    7    9 ar  
    17    7   31 1   
    18    8   10 ar  
    19    8   32 1   
    20    9   11 ar  
    21    9   33 1   
    22   10   11 ar  
    23   10   34 1   
    24   11   35 1   
    25   12   13 1   
    26   12   36 1   
    27   12   37 1   
    28   13   14 1   
    29   13   38 1   
    30   14   15 1   
    31   14   17 1   
    32   14   39 1   
    33   15   16 1   
    34   15   24 1   
    35   17   18 1   
    36   17   40 1   
    37   17   41 1   
    38   18   19 ar  
    39   18   20 ar  
    40   19   21 ar  
    41   19   42 1   
    42   20   22 ar  
    43   20   43 1   
    44   21   23 ar  
    45   21   44 1   
    46   22   23 ar  
    47   22   45 1   
    48   23   46 1   
@<TRIPOS>SUBSTRUCTURE
     1 R00         1 TEMP              0 ****  ****    0 ROOT
