@<TRIPOS>MOLECULE
R01
   49    41     1     0     0
SMALL
bcc


@<TRIPOS>ATOM
      1 C1G        -1.3180    5.5860    2.9380 c1        1 R01     -0.102000
      2 C1         -0.1510    5.0280    2.1750 c1        1 R01      0.307000
      3 O2          0.9190    5.6230    2.1720 o         1 R01     -0.285000
      4 C4A        -0.2690    3.6410    1.4940 c2        1 R01     -0.151000
      5 C3A         0.5370    2.6030    1.9090 c2        1 R01     -0.076000
      6 C2A         0.5270    1.3920    1.2190 c1        1 R01     -0.134000
      7 C1A        -0.2950    1.2280    0.1110 c1        1 R01     -0.027000
      8 C2B        -1.2880   -0.9690   -0.3060 c1        1 R01     -0.126500
      9 C3B        -1.2120   -2.2130   -0.9180 c1        1 R01     -0.105000
     10 C4B        -0.1750   -2.4850   -1.8200 c1        1 R01     -0.102000
     11 C1C        -0.1160   -3.8700   -2.5560 c2        1 R01     -0.034000
     12 C5B         0.7760   -1.5070   -2.1000 c2        1 R01     -0.101500
     13 C6B         0.6960   -0.2660   -1.4870 c1        1 R01     -0.118000
     14 N1D         1.1730   -4.7980   -1.9180 n3        1 R01     -0.253000
     15 C1F         0.5210   -6.1290   -1.0340 c3        1 R01     -0.126000
     16 C1E         2.1400   -5.4020   -3.2170 c3        1 R01     -0.042000
     17 C2E         3.4350   -5.9870   -2.6530 c2        1 R01     -0.166000
     18 C3E         4.5960   -5.7840   -3.2900 c1        1 R01     -0.203000
     19 C6A        -1.1050    2.2660   -0.3100 c1        1 R01     -0.126500
     20 C5A        -1.0970    3.4780    0.3780 c1        1 R01     -0.092000
     21 C2G        -1.6800    5.0290    4.1660 c2        1 R01     -0.101500
     22 C3G        -2.7020    5.5660    4.8800 c1        1 R01     -0.118000
     23 C4G        -3.3940    6.6830    4.3830 c1        1 R01     -0.146000
     24 C1B        -0.3360    0.0050   -0.5890 c1        1 R01     -0.027000
     25 BR27       -4.7030    7.5910    5.3080 br        1 R01      0.059000
     26 C5G        -3.0310    7.2400    3.1550 c1        1 R01     -0.116000
     27 C6G        -2.0120    6.7040    2.4420 c1        1 R01     -0.105000
     28 H6          1.0880    2.7100    2.6510 ha        1 R01      0.153000
     29 H5          1.0950    0.6600    1.5140 ha        1 R01      0.143000
     30 H15        -2.0110   -0.7770    0.3220 ha        1 R01      0.137500
     31 H16        -1.8970   -2.9190   -0.7120 ha        1 R01      0.145000
     32 H201       -0.9610   -4.3470   -2.4230 h4        1 R01      0.079000
     33 H202        0.0310   -3.7260   -3.5140 h4        1 R01      0.079000
     34 H18         1.5140   -1.6980   -2.7430 ha        1 R01      0.150000
     35 H19         1.3480    0.3980   -1.6760 ha        1 R01      0.143500
     36 H271       -0.4070   -5.8900   -0.6990 h1        1 R01      0.074333
     37 H272        1.1050   -6.3280   -0.2690 h1        1 R01      0.074333
     38 H273        0.4660   -6.9100   -1.6120 h1        1 R01      0.074333
     39 H251        2.3510   -4.6810   -3.8230 h1        1 R01      0.074000
     40 H252        1.6390   -6.1100   -3.7030 h1        1 R01      0.074000
     41 H26         3.4160   -6.5240   -1.8040 ha        1 R01      0.121000
     42 H291        4.6170   -5.2520   -4.1320 DU        1 R01      0.114000
     43 H292        5.4170   -6.1540   -2.9290 ha        1 R01      0.113000
     44 H3         -1.6820    2.1490   -1.0900 ha        1 R01      0.137500
     45 H2         -1.6900    4.2370    0.0730 ha        1 R01      0.142000
     46 H13        -1.2030    4.2540    4.5080 ha        1 R01      0.150000
     47 H12        -2.9660    5.1590    5.7810 ha        1 R01      0.143500
     48 H10        -3.5410    8.0610    2.7880 ha        1 R01      0.152000
     49 H9         -1.7690    7.0780    1.6170 ha        1 R01      0.145000
@<TRIPOS>BOND
     1    1   21 1   
     2    1   27 1   
     3    2    3 1   
     4    2    4 1   
     5    4    5 1   
     6    4   20 1   
     7    5    6 1   
     8    5   28 1   
     9    6   29 1   
    10    7   19 1   
    11    8   24 1   
    12    8   30 1   
    13    9   10 1   
    14    9   31 1   
    15   10   12 1   
    16   11   14 1   
    17   11   32 1   
    18   11   33 1   
    19   12   13 1   
    20   12   34 1   
    21   13   35 1   
    22   14   15 1   
    23   14   16 1   
    24   15   36 1   
    25   15   37 1   
    26   15   38 1   
    27   16   17 1   
    28   16   39 1   
    29   16   40 1   
    30   17   18 1   
    31   17   41 1   
    32   18   43 1   
    33   19   44 1   
    34   20   45 1   
    35   21   22 1   
    36   21   46 1   
    37   22   47 1   
    38   23   25 1   
    39   23   26 1   
    40   26   48 1   
    41   27   49 1   
@<TRIPOS>SUBSTRUCTURE
     1 R01         1 TEMP              0 ****  ****    0 ROOT
