@<TRIPOS>MOLECULE
R01
   49    51     1     0     0
SMALL
bcc


@<TRIPOS>ATOM
      1 C1G        -1.3310    0.0760    3.8550 ca        1 R01     -0.154600
      2 C1         -2.4300    0.2170    2.8710 c         1 R01      0.587300
      3 O2         -3.5980    0.3900    3.2440 o         1 R01     -0.524100
      4 C4A        -2.0840    0.1420    1.4350 ca        1 R01     -0.171600
      5 C3A        -3.0350   -0.3490    0.5310 ca        1 R01     -0.084000
      6 C2A        -2.7430   -0.4200   -0.8270 ca        1 R01     -0.135000
      7 C1A        -1.5010    0.0160   -1.3100 cp        1 R01     -0.004000
      8 C2B        -0.4960    0.9860   -3.3680 ca        1 R01     -0.117500
      9 C3B        -0.2080    0.9200   -4.7280 ca        1 R01     -0.119000
     10 C4B        -0.6050   -0.1900   -5.4810 ca        1 R01     -0.077300
     11 C1C        -0.3470   -0.2480   -6.9590 c3        1 R01      0.212100
     12 C5B        -1.2970   -1.2320   -4.8550 ca        1 R01     -0.119000
     13 C6B        -1.5930   -1.1630   -3.4960 ca        1 R01     -0.117500
     14 N1D         1.0320    0.0480   -7.3330 n3        1 R01     -0.731600
     15 C1F         1.9810   -0.8990   -6.7930 c3        1 R01      0.151100
     16 C1E         1.1600    0.2230   -8.7770 c3        1 R01      0.197000
     17 C2E         2.5130    0.6960   -9.2090 c2        1 R01     -0.165200
     18 C3E         3.1040    0.2650  -10.3190 c2        1 R01     -0.224000
     19 C6A        -0.5570    0.5230   -0.4050 ca        1 R01     -0.135000
     20 C5A        -0.8450    0.5820    0.9560 ca        1 R01     -0.084000
     21 C2G        -1.4030    0.7830    5.0620 ca        1 R01     -0.087000
     22 C3G        -0.3920    0.6580    6.0130 ca        1 R01     -0.117000
     23 C4G         0.6940   -0.1880    5.7690 ca        1 R01     -0.005900
     24 C1B        -1.1940   -0.0540   -2.7370 cp        1 R01     -0.050000
     25 BR27        2.0530   -0.3610    7.0450 br        1 R01     -0.080100
     26 C5G         0.7630   -0.9080    4.5720 ca        1 R01     -0.117000
     27 C6G        -0.2450   -0.7730    3.6190 ca        1 R01     -0.087000
     28 H6         -4.0200   -0.6710    0.9080 ha        1 R01      0.148000
     29 H5         -3.4970   -0.8070   -1.5300 ha        1 R01      0.141500
     30 H15        -0.1840    1.8660   -2.7840 ha        1 R01      0.135500
     31 H16         0.3380    1.7430   -5.2150 ha        1 R01      0.141500
     32 H201       -1.0090    0.5270   -7.4470 h1        1 R01      0.040200
     33 H202       -0.6700   -1.2600   -7.3490 h1        1 R01      0.040200
     34 H18        -1.6120   -2.1110   -5.4360 ha        1 R01      0.141500
     35 H19        -2.1360   -1.9900   -3.0130 ha        1 R01      0.135500
     36 H271        1.8710   -0.9220   -5.6770 h1        1 R01      0.035700
     37 H272        1.8410   -1.9430   -7.1890 h1        1 R01      0.035700
     38 H273        3.0180   -0.5560   -7.0510 h1        1 R01      0.035700
     39 H251        0.8970   -0.7280   -9.3320 h1        1 R01      0.037200
     40 H252        0.4120    1.0110   -9.0900 h1        1 R01      0.037200
     41 H26         2.9800    1.4600   -8.5640 ha        1 R01      0.134000
     42 H291        4.0760    0.6530  -10.6510 ha        1 R01      0.113000
     43 H292        2.6630   -0.4970  -10.9750 ha        1 R01      0.113000
     44 H3          0.4200    0.8700   -0.7720 ha        1 R01      0.141500
     45 H2         -0.0960    0.9830    1.6570 ha        1 R01      0.148000
     46 H13        -2.2710    1.4340    5.2560 ha        1 R01      0.153000
     47 H12        -0.4590    1.2250    6.9540 ha        1 R01      0.151500
     48 H10         1.6090   -1.5850    4.3750 ha        1 R01      0.151500
     49 H9         -0.1870   -1.3440    2.6780 ha        1 R01      0.153000
@<TRIPOS>BOND
     1    1    2 1   
     2    1   21 ar  
     3    1   27 ar  
     4    2    3 2   
     5    2    4 1   
     6    4    5 ar  
     7    4   20 ar  
     8    5    6 ar  
     9    5   28 1   
    10    6    7 ar  
    11    6   29 1   
    12    7   19 ar  
    13    7   24 1   
    14    8    9 ar  
    15    8   24 ar  
    16    8   30 1   
    17    9   10 ar  
    18    9   31 1   
    19   10   11 1   
    20   10   12 ar  
    21   11   14 1   
    22   11   32 1   
    23   11   33 1   
    24   12   13 ar  
    25   12   34 1   
    26   13   24 ar  
    27   13   35 1   
    28   14   15 1   
    29   14   16 1   
    30   15   36 1   
    31   15   37 1   
    32   15   38 1   
    33   16   17 1   
    34   16   39 1   
    35   16   40 1   
    36   17   18 2   
    37   17   41 1   
    38   18   42 1   
    39   18   43 1   
    40   19   20 ar  
    41   19   44 1   
    42   20   45 1   
    43   21   22 ar  
    44   21   46 1   
    45   22   23 ar  
    46   22   47 1   
    47   23   25 1   
    48   23   26 ar  
    49   26   27 ar  
    50   26   48 1   
    51   27   49 1   
@<TRIPOS>SUBSTRUCTURE
     1 R01         1 TEMP              0 ****  ****    0 ROOT
