@<TRIPOS>MOLECULE
R02
   55    58     1     0     0
SMALL
bcc


@<TRIPOS>ATOM
      1 C1G        -0.1880    0.7120    0.0120 ca        1 R02     -0.160600
      2 C1         -1.4550    0.8910   -0.7320 c         1 R02      0.588300
      3 O2         -1.6180    1.8460   -1.5030 o         1 R02     -0.515100
      4 C1A        -2.5260   -0.1110   -0.5280 ca        1 R02     -0.188600
      5 C2A        -3.8620    0.2850   -0.7040 ca        1 R02     -0.049000
      6 C3A        -4.8970   -0.6280   -0.5510 ca        1 R02     -0.188500
      7 C4A        -4.5870   -1.9620   -0.2280 ca        1 R02      0.132100
      8 O1B        -5.6890   -2.7880   -0.0730 os        1 R02     -0.340900
      9 C2B        -5.4080   -4.1910   -0.0160 c3        1 R02      0.148400
     10 C3B        -6.7330   -4.8830   -0.1710 cx        1 R02     -0.077700
     11 C5B        -6.9070   -6.2710    0.3670 cx        1 R02     -0.114400
     12 C2F       -10.7010   -7.7260    3.0110 cx        1 R02     -0.101900
     13 C1F        -9.9280   -6.9060    1.9990 cx        1 R02     -0.001500
     14 N1D        -9.8700   -5.4330    2.0530 n4        1 R02     -0.650400
     15 C1C        -9.0620   -4.8890    0.9030 c3        1 R02      0.149800
     16 C1E       -11.2240   -4.7770    2.0900 c3        1 R02      0.150000
     17 C2E       -11.1510   -3.3560    2.5370 c2        1 R02     -0.265200
     18 C3E       -11.5620   -2.3400    1.7790 c2        1 R02     -0.113000
     19 C5A        -3.2610   -2.3740   -0.0580 ca        1 R02     -0.188500
     20 C6A        -2.2360   -1.4400   -0.2100 ca        1 R02     -0.049000
     21 C6G         1.0160    1.0900   -0.5950 ca        1 R02     -0.088500
     22 C5G         2.2220    0.9480    0.0870 ca        1 R02     -0.115000
     23 C4G         2.2320    0.4400    1.3900 ca        1 R02     -0.003900
     24 BR25        3.8490    0.2490    2.3110 br        1 R02     -0.067100
     25 C3G         1.0300    0.0790    2.0070 ca        1 R02     -0.115000
     26 C4B        -7.5880   -5.1170    1.0570 cx        1 R02     -0.192700
     27 C3F       -11.1560   -7.6880    1.5850 cx        1 R02     -0.101900
     28 C2G        -0.1740    0.2120    1.3180 ca        1 R02     -0.088500
     29 H6         -4.0800    1.3310   -0.9770 ha        1 R02      0.158500
     30 H5         -5.9450   -0.3280   -0.6840 ha        1 R02      0.145000
     31 H151       -4.9270   -4.4300    0.9700 h1        1 R02      0.059200
     32 H152       -4.7230   -4.4880   -0.8550 h1        1 R02      0.059200
     33 H16        -7.2440   -4.6040   -1.1160 hc        1 R02      0.108700
     34 H171       -6.0600   -6.7640    0.8810 hc        1 R02      0.092200
     35 H172       -7.5110   -6.9900   -0.2180 hc        1 R02      0.092200
     36 H20        -8.9300   -7.2910    1.6700 hx        1 R02      0.141700
     37 H271       -9.2590   -3.7760    0.8610 hx        1 R02      0.106700
     38 H272       -9.4500   -5.3650   -0.0420 hx        1 R02      0.106700
     39 H251      -11.8660   -5.3570    2.8170 hx        1 R02      0.102200
     40 H252      -11.6750   -4.8650    1.0610 hx        1 R02      0.102200
     41 H26       -10.7960   -3.1980    3.5690 ha        1 R02      0.151000
     42 H291      -11.9380   -2.4630    0.7520 ha        1 R02      0.143000
     43 H292      -11.5600   -1.3040    2.1510 ha        1 R02      0.143000
     44 H3         -3.0120   -3.4140    0.1910 ha        1 R02      0.145000
     45 H2         -1.1880   -1.7600   -0.0840 ha        1 R02      0.158500
     46 H13         1.0010    1.5100   -1.6140 ha        1 R02      0.150500
     47 H12         3.1630    1.2450   -0.4050 ha        1 R02      0.154500
     48 H10         1.0260   -0.3080    3.0380 ha        1 R02      0.154500
     49 H4B        -7.1810   -4.7760    2.0320 hc        1 R02      0.105700
     50 H3F1      -12.0980   -7.1660    1.3330 hc        1 R02      0.107200
     51 H3F2      -10.9980   -8.5710    0.9350 hc        1 R02      0.107200
     52 H9         -1.1190   -0.0680    1.8100 ha        1 R02      0.150500
     53 H191      -10.2090   -8.6360    3.4070 hc        1 R02      0.107200
     54 H1D1       -9.3790   -5.1870    2.9260 hn        1 R02      0.448800
     55 H192      -11.3120   -7.2290    3.7880 hc        1 R02      0.107200
@<TRIPOS>BOND
     1    1    2 1   
     2    1   21 ar  
     3    1   28 ar  
     4    2    3 2   
     5    2    4 1   
     6    4    5 ar  
     7    4   20 ar  
     8    5    6 ar  
     9    5   29 1   
    10    6    7 ar  
    11    6   30 1   
    12    7    8 1   
    13    7   19 ar  
    14    8    9 1   
    15    9   10 1   
    16    9   31 1   
    17    9   32 1   
    18   10   11 1   
    19   10   26 1   
    20   10   33 1   
    21   11   26 1   
    22   11   34 1   
    23   11   35 1   
    24   12   13 1   
    25   12   27 1   
    26   12   53 1   
    27   12   55 1   
    28   13   14 1   
    29   13   27 1   
    30   13   36 1   
    31   14   15 1   
    32   14   16 1   
    33   14   54 1   
    34   15   26 1   
    35   15   37 1   
    36   15   38 1   
    37   16   17 1   
    38   16   39 1   
    39   16   40 1   
    40   17   18 2   
    41   17   41 1   
    42   18   42 1   
    43   18   43 1   
    44   19   20 ar  
    45   19   44 1   
    46   20   45 1   
    47   21   22 ar  
    48   21   46 1   
    49   22   23 ar  
    50   22   47 1   
    51   23   24 1   
    52   23   25 ar  
    53   25   28 ar  
    54   25   48 1   
    55   26   49 1   
    56   27   50 1   
    57   27   51 1   
    58   28   52 1   
@<TRIPOS>SUBSTRUCTURE
     1 R02         1 TEMP              0 ****  ****    0 ROOT
