@<TRIPOS>MOLECULE
R02
   55    53     1     0     0
SMALL
bcc


@<TRIPOS>ATOM
      1 C1G        -0.4050   -0.4050    0.1120 c3        1 R02     -0.030000
      2 C1         -1.8870   -0.2110    0.3650 c2        1 R02      0.263000
      3 O2         -2.3170    0.3970    1.3500 o         1 R02     -0.266000
      4 C1A        -2.8260   -0.7720   -0.6360 c2        1 R02     -0.135000
      5 C2A        -4.0250   -1.4510   -0.0840 c3        1 R02     -0.178000
      6 C3A        -4.9950   -1.9620   -1.0280 c1        1 R02     -0.185000
      7 C4A        -4.7680   -1.7550   -2.4130 c2        1 R02     -0.028000
      8 O1B        -5.6820   -2.2190   -3.3360 oh        1 R02     -0.248000
      9 C2B        -6.7170   -5.2440   -1.9190 c2        1 R02     -0.119000
     10 C3B        -7.5510   -4.9600   -0.9110 c2        1 R02     -0.216000
     11 C5B        -7.4640   -3.7280   -0.1590 c2        1 R02     -0.053000
     12 C2F        -7.9220   -6.5490    3.6610 c3        1 R02     -0.278000
     13 C1F        -8.5020   -5.9900    2.3620 c3        1 R02     -0.170000
     14 N1D        -9.3410   -4.7650    2.5500 nx        1 R02     -0.003000
     15 C1E       -10.6510   -5.0850    3.1640 c3        1 R02     -0.203000
     16 C2E       -12.0950   -1.8260    3.5780 c1        1 R02     -0.225500
     17 C3E       -12.2120   -1.8550    2.3870 c1        1 R02     -0.225500
     18 C5A        -3.6380   -1.1340   -2.8970 c2        1 R02     -0.040000
     19 C6A        -2.6590   -0.6360   -1.9770 c2        1 R02     -0.123000
     20 C6G         0.3960   -0.0390    1.3270 c2        1 R02     -0.081000
     21 C5G         1.2290   -0.8980    1.8450 c1        1 R02     -0.175000
     22 C4G         2.0480   -1.7950    2.3150 c2        1 R02     -0.126000
     23 Br25        1.6180   -2.9950    3.6730 br        1 R02      0.077000
     24 C3G         0.8010   -2.6050    0.1940 c1        1 R02      0.202000
     25 C4B        -8.3070   -3.3290    0.8070 c2        1 R02     -0.300000
     26 C3F        -8.7160   -7.4340    4.4720 c1        1 R02     -0.023000
     27 C2G        -0.0920   -1.7880   -0.3400 c2        1 R02     -0.502000
     28 H6         -3.7060   -2.3090    0.5840 hc        1 R02      0.186000
     29 H5         -4.5610   -0.7240    0.6090 hc        1 R02      0.186000
     30 H151       -6.4760   -2.4820   -2.8420 ho        1 R02      0.228000
     31 H152       -5.9120   -4.5600   -2.2330 ha        1 R02      0.136500
     32 H16        -6.7900   -6.1780   -2.4940 ha        1 R02      0.136500
     33 H171       -8.3480   -5.6730   -0.6380 ha        1 R02      0.107000
     34 H172       -6.5980   -3.0510   -0.4330 ha        1 R02      0.225000
     35 H20        -7.6610   -5.7050    1.6610 hx        1 R02      0.144000
     36 H251      -11.2400   -5.7450    2.4740 hx        1 R02      0.141667
     37 H252      -10.4860   -5.6140    4.1410 hx        1 R02      0.141667
     38 H26       -11.2230   -4.1300    3.3440 hx        1 R02      0.141667
     39 H291      -12.0130   -1.7720    4.6360 ha        1 R02      0.229000
     40 H292      -12.3480   -1.8450    1.3330 ha        1 R02      0.229000
     41 H3         -3.4700   -1.0090   -3.9790 ha        1 R02      0.169000
     42 H2         -1.7770   -0.1240   -2.3980 ha        1 R02      0.155000
     43 H13        -0.1250    0.3160   -0.7170 hc        1 R02      0.136000
     44 H12         0.2360    0.9730    1.7340 ha        1 R02      0.176000
     45 H10         3.0850   -1.8940    1.9560 h4        1 R02      0.184000
     46 H4B        -8.1400   -2.3590    1.3060 ha        1 R02      0.148000
     47 H3F1       -9.1370   -6.7690    1.8540 hx        1 R02      0.144000
     48 H3F2       -9.6630   -7.8180    4.0650 ha        1 R02      0.057000
     49 H9         -0.6450   -2.1330   -1.2360 ha        1 R02      0.185000
     50 C1C        -9.5360   -4.0400    1.2340 c3        1 R02     -0.076000
     51 H191       -7.0140   -7.1840    3.3900 hc        1 R02      0.181500
     52 H271      -10.3700   -3.2920    1.3950 hx        1 R02      0.139000
     53 H272       -9.8780   -4.8020    0.4790 hx        1 R02      0.139000
     54 H1D1       -8.8320   -4.1290    3.1790 hn        1 R02      0.242000
     55 H192       -7.5080   -5.7260    4.3140 hc        1 R02      0.181500
@<TRIPOS>BOND
     1    1    2 1   
     2    1   20 1   
     3    1   27 1   
     4    1   43 1   
     5    2    3 1   
     6    2    4 1   
     7    4    5 1   
     8    4   19 1   
     9    5    6 1   
    10    5   28 1   
    11    5   29 1   
    12    6    7 1   
    13    7    8 1   
    14    7   18 1   
    15    8   30 1   
    16    9   10 1   
    17    9   31 1   
    18    9   32 1   
    19   10   11 1   
    20   10   33 1   
    21   11   25 1   
    22   11   34 1   
    23   12   13 1   
    24   12   26 1   
    25   12   51 1   
    26   12   55 1   
    27   13   14 1   
    28   13   35 1   
    29   13   47 1   
    30   14   15 1   
    31   14   50 1   
    32   14   54 1   
    33   15   36 1   
    34   15   37 1   
    35   15   38 1   
    36   16   17 1   
    37   16   39 1   
    38   17   40 1   
    39   18   19 1   
    40   18   41 1   
    41   19   42 1   
    42   20   21 1   
    43   20   44 1   
    44   21   22 1   
    45   22   23 1   
    46   22   45 1   
    47   24   27 1   
    48   25   46 1   
    49   25   50 1   
    50   26   48 1   
    51   27   49 1   
    52   50   52 1   
    53   50   53 1   
@<TRIPOS>SUBSTRUCTURE
     1 R02         1 TEMP              0 ****  ****    0 ROOT
