@<TRIPOS>MOLECULE
R02
   54    57     1     0     0
SMALL
bcc


@<TRIPOS>ATOM
      1 C1G         1.5040    0.1880    4.5490 ca        1 R02     -0.151600
      2 C1          2.6950    0.0120    3.6840 c         1 R02      0.591300
      3 O2          3.8250   -0.1040    4.1800 o         1 R02     -0.528100
      4 C1A         2.4880   -0.0200    2.2230 ca        1 R02     -0.210600
      5 C2A         3.5480    0.3540    1.3800 ca        1 R02     -0.048000
      6 C3A         3.4010    0.3260    0.0020 ca        1 R02     -0.198500
      7 C4A         2.1760   -0.1000   -0.5520 ca        1 R02      0.159100
      8 O1B         2.1340   -0.0890   -1.9280 os        1 R02     -0.323900
      9 C2B         0.9130   -0.5580   -2.5250 c3        1 R02      0.156400
     10 C3B         1.1150   -0.4680   -4.0080 cx        1 R02     -0.129700
     11 C5B         1.0050   -1.7060   -4.8550 cx        1 R02     -0.127400
     12 C2F        -2.0720   -2.0630   -8.5760 cx        1 R02     -0.152900
     13 C1F        -1.0790   -1.4310   -7.6240 cx        1 R02      0.135500
     14 N1D        -1.2960   -0.1540   -7.0090 n3        1 R02     -0.709600
     15 C1C        -0.2220    0.2350   -6.0990 c3        1 R02      0.200800
     16 C1E        -1.6500    0.9200   -7.9290 c3        1 R02      0.199000
     17 C2E        -2.2330    2.1220   -7.2520 c2        1 R02     -0.166200
     18 C3E        -1.9830    3.3650   -7.6550 c2        1 R02     -0.226000
     19 C5A         1.1170   -0.4910    0.2780 ca        1 R02     -0.198500
     20 C6A         1.2810   -0.4460    1.6600 ca        1 R02     -0.048000
     21 C6G         1.4390   -0.4960    5.7690 ca        1 R02     -0.089500
     22 C5G         0.3380   -0.3350    6.6080 ca        1 R02     -0.116000
     23 C4G        -0.7000    0.5260    6.2400 ca        1 R02     -0.007900
     24 BR25       -2.1790    0.7470    7.3670 br        1 R02     -0.081100
     25 C3G        -0.6310    1.2250    5.0310 ca        1 R02     -0.116000
     26 C4B        -0.0850   -0.6710   -4.9010 cx        1 R02     -0.115700
     27 C3F        -0.7150   -1.6650   -9.0790 cx        1 R02     -0.152900
     28 C2G         0.4650    1.0530    4.1880 ca        1 R02     -0.089500
     29 H6          4.5050    0.6670    1.8310 ha        1 R02      0.149500
     30 H5          4.2220    0.6220   -0.6670 ha        1 R02      0.149000
     31 H151        0.7190   -1.6130   -2.1940 h1        1 R02      0.046200
     32 H152        0.0670    0.1050   -2.1990 h1        1 R02      0.046200
     33 H16         1.8680    0.2960   -4.2910 hc        1 R02      0.103700
     34 H171        1.6830   -1.8150   -5.7200 hc        1 R02      0.074700
     35 H172        0.7980   -2.6760   -4.3680 hc        1 R02      0.074700
     36 H192       -2.9590   -1.5010   -8.9150 hc        1 R02      0.071450
     37 H20        -0.6090   -2.1250   -6.8850 h1        1 R02      0.092700
     38 H271       -0.4660    1.2700   -5.7180 h1        1 R02      0.041200
     39 H272        0.7730    0.2950   -6.6320 h1        1 R02      0.041200
     40 H251       -0.7610    1.2350   -8.5550 h1        1 R02      0.041200
     41 H252       -2.4340    0.5220   -8.6380 h1        1 R02      0.041200
     42 H26        -2.9190    1.9130   -6.4140 ha        1 R02      0.135000
     43 H291       -2.4530    4.2370   -7.1810 ha        1 R02      0.113000
     44 H292       -1.3010    3.6000   -8.4820 ha        1 R02      0.113000
     45 H3          0.1610   -0.8330   -0.1420 ha        1 R02      0.149000
     46 H2          0.4500   -0.7580    2.3130 ha        1 R02      0.149500
     47 H13         2.2700   -1.1570    6.0630 ha        1 R02      0.152000
     48 H12         0.2980   -0.8850    7.5620 ha        1 R02      0.151000
     49 H10        -1.4390    1.9140    4.7370 ha        1 R02      0.151000
     50 H4B        -1.0560   -0.9170   -4.4250 hc        1 R02      0.094700
     51 H3F1       -0.6380   -0.8070   -9.7690 hc        1 R02      0.071450
     52 H3F2        0.0250   -2.4490   -9.3150 hc        1 R02      0.071450
     53 H9          0.5170    1.6070    3.2370 ha        1 R02      0.152000
     54 H191       -2.3020   -3.1350   -8.4370 hc        1 R02      0.071450
@<TRIPOS>BOND
     1    1    2 1   
     2    1   21 ar  
     3    1   28 ar  
     4    2    3 2   
     5    2    4 1   
     6    4    5 ar  
     7    4   20 ar  
     8    5    6 ar  
     9    5   29 1   
    10    6    7 ar  
    11    6   30 1   
    12    7    8 1   
    13    7   19 ar  
    14    8    9 1   
    15    9   10 1   
    16    9   31 1   
    17    9   32 1   
    18   10   11 1   
    19   10   26 1   
    20   10   33 1   
    21   11   26 1   
    22   11   34 1   
    23   11   35 1   
    24   12   13 1   
    25   12   27 1   
    26   12   36 1   
    27   12   54 1   
    28   13   14 1   
    29   13   27 1   
    30   13   37 1   
    31   14   15 1   
    32   14   16 1   
    33   15   26 1   
    34   15   38 1   
    35   15   39 1   
    36   16   17 1   
    37   16   40 1   
    38   16   41 1   
    39   17   18 2   
    40   17   42 1   
    41   18   43 1   
    42   18   44 1   
    43   19   20 ar  
    44   19   45 1   
    45   20   46 1   
    46   21   22 ar  
    47   21   47 1   
    48   22   23 ar  
    49   22   48 1   
    50   23   24 1   
    51   23   25 ar  
    52   25   28 ar  
    53   25   49 1   
    54   26   50 1   
    55   27   51 1   
    56   27   52 1   
    57   28   53 1   
@<TRIPOS>SUBSTRUCTURE
     1 R02         1 TEMP              0 ****  ****    0 ROOT
