@<TRIPOS>MOLECULE
R02
   55    54     1     0     0
SMALL
bcc


@<TRIPOS>ATOM
      1 C1G        -2.3660   -1.9500    1.6540 c3        1 R02     -0.072000
      2 C1         -3.2710   -0.9680    0.9230 c2        1 R02      0.264000
      3 O2         -3.6390    0.0910    1.4370 o         1 R02     -0.256000
      4 C1A        -3.7120   -1.3650   -0.4310 c2        1 R02     -0.168000
      5 C2A        -5.1350   -1.0920   -0.7550 c3        1 R02     -0.178000
      6 C3A        -5.6220   -1.5430   -2.0410 c1        1 R02     -0.153000
      7 C4A        -4.6800   -2.0480   -2.9820 c2        1 R02     -0.015000
      8 O1B        -5.1080   -2.4250   -4.2350 oh        1 R02     -0.247000
      9 C2B        -7.0530   -4.9610   -2.7190 c2        1 R02     -0.117000
     10 C3B        -7.7440   -4.7470   -1.5930 c2        1 R02     -0.218000
     11 C5B        -7.9570   -3.4210   -1.0560 c2        1 R02     -0.027000
     12 C2F        -5.8880   -4.7230    3.0570 c3        1 R02     -0.142000
     13 C1F        -6.9800   -4.9310    2.0140 c3        1 R02     -0.130000
     14 N1D        -8.2670   -4.2260    2.3200 n4        1 R02     -0.005000
     15 C1E        -9.0300   -4.9160    3.3870 c3        1 R02     -0.200000
     16 C2E       -11.8460   -2.7510    3.8240 c1        1 R02     -0.226000
     17 C3E       -12.1710   -2.9750    2.6940 c1        1 R02     -0.226000
     18 C5A        -3.3550   -2.2470   -2.6700 c2        1 R02     -0.070000
     19 C6A        -2.8800   -1.9010   -1.3600 c2        1 R02     -0.098000
     20 C6G        -1.0790   -1.2610    1.9910 c2        1 R02     -0.114000
     21 C5G         0.0920   -1.7450    1.6930 c1        1 R02     -0.128000
     22 C4G         1.2740   -2.2030    1.4140 c2        1 R02     -0.191000
     23 BR25        2.2500   -3.3180    2.5350 br        1 R02      0.083000
     24 C3G        -4.2310   -2.9040    2.9990 c1        1 R02     -0.131000
     25 C4B        -8.5360   -3.1160    0.1170 c2        1 R02     -0.297000
     26 C3F        -5.4570   -3.3080    3.1810 c2        1 R02     -0.169000
     27 C2G        -3.0080   -2.4680    2.9020 c2        1 R02     -0.068000
     28 H6         -5.8110   -1.4950    0.0530 hc        1 R02      0.177500
     29 H5         -5.2940    0.0380   -0.7350 hc        1 R02      0.177500
     30 H151       -5.9980   -2.0540   -4.3570 ho        1 R02      0.240000
     31 H152       -6.5860   -4.1470   -3.2960 ha        1 R02      0.137500
     32 H16        -6.9080   -5.9710   -3.1300 ha        1 R02      0.137500
     33 H171       -8.1950   -5.5960   -1.0520 ha        1 R02      0.115000
     34 H172       -7.5850   -2.5790   -1.6940 ha        1 R02      0.196000
     35 H20        -6.6230   -4.5490    1.0120 hx        1 R02      0.144000
     36 H251       -8.3910   -5.0090    4.3050 hx        1 R02      0.141667
     37 H252       -9.3290   -5.9390    3.0350 hx        1 R02      0.141667
     38 H26        -9.9550   -4.3200    3.6290 hx        1 R02      0.141667
     39 H291      -11.5910   -2.5350    4.8320 ha        1 R02      0.228500
     40 H292      -12.5010   -3.1570    1.7000 ha        1 R02      0.228500
     41 H3         -2.6480   -2.6750   -3.3990 ha        1 R02      0.169000
     42 H2         -1.8110   -2.0710   -1.1500 ha        1 R02      0.154000
     43 H13        -2.1620   -2.8350    0.9830 hc        1 R02      0.127000
     44 H12        -1.1860   -0.2930    2.5170 ha        1 R02      0.174000
     45 H10         1.7980   -1.9550    0.4770 h4        1 R02      0.179000
     46 H4B        -8.6570   -2.0560    0.4010 ha        1 R02      0.148000
     47 H3F1       -7.2060   -6.0310    1.9200 hx        1 R02      0.144000
     48 H3F2       -6.2210   -2.5820    3.5120 ha        1 R02      0.128000
     49 H9         -2.3520   -2.4860    3.7960 ha        1 R02      0.178000
     50 C1C        -9.1160   -4.0860    1.0760 c3        1 R02     -0.076000
     51 H191       -6.2250   -5.0930    4.0640 hc        1 R02      0.124000
     52 H271      -10.1330   -3.7220    1.4160 hx        1 R02      0.139500
     53 H272       -9.2320   -5.1140    0.6330 hx        1 R02      0.139500
     54 H1D1       -8.0320   -3.2780    2.6450 hn        1 R02      0.244000
     55 H192       -5.0230   -5.3730    2.7430 hc        1 R02      0.124000
@<TRIPOS>BOND
     1    1    2 1   
     2    1   20 1   
     3    1   27 1   
     4    1   43 1   
     5    2    3 1   
     6    2    4 1   
     7    4    5 1   
     8    4   19 1   
     9    5    6 1   
    10    5   28 1   
    11    5   29 1   
    12    6    7 1   
    13    7    8 1   
    14    7   18 1   
    15    8   30 1   
    16    9   10 1   
    17    9   31 1   
    18    9   32 1   
    19   10   11 1   
    20   10   33 1   
    21   11   25 1   
    22   11   34 1   
    23   12   13 1   
    24   12   26 1   
    25   12   51 1   
    26   12   55 1   
    27   13   14 1   
    28   13   35 1   
    29   13   47 1   
    30   14   15 1   
    31   14   50 1   
    32   14   54 1   
    33   15   36 1   
    34   15   37 1   
    35   15   38 1   
    36   16   17 1   
    37   16   39 1   
    38   17   40 1   
    39   18   19 1   
    40   18   41 1   
    41   19   42 1   
    42   20   21 1   
    43   20   44 1   
    44   21   22 1   
    45   22   23 1   
    46   22   45 1   
    47   24   26 1   
    48   24   27 1   
    49   25   46 1   
    50   25   50 1   
    51   26   48 1   
    52   27   49 1   
    53   50   52 1   
    54   50   53 1   
@<TRIPOS>SUBSTRUCTURE
     1 R02         1 TEMP              0 ****  ****    0 ROOT
