@<TRIPOS>MOLECULE
R03
   59    52     1     0     0
SMALL
bcc


@<TRIPOS>ATOM
      1 C3A        -8.1310    6.1100   -4.6910 c1        1 R03     -0.153500
      2 C2A        -7.3090    5.0710   -4.3180 c1        1 R03     -0.153500
      3 C1A        -6.0140    5.3550   -3.5580 c2        1 R03     -0.044000
      4 N1         -5.0740    3.8990   -3.4390 n3        1 R03     -0.259000
      5 C1B        -4.0460    4.0230   -2.0920 c3        1 R03     -0.065000
      6 C2B        -3.1100    2.8170   -2.0560 c3        1 R03     -0.160000
      7 C3B        -2.3550    2.7890   -0.7000 c3        1 R03     -0.158000
      8 C4B        -1.3750    1.6450   -0.6910 c3        1 R03     -0.157000
      9 C5B        -0.6560    1.5930    0.6800 c3        1 R03     -0.165000
     10 C6B         0.2640    0.3720    0.7260 c3        1 R03     -0.021000
     11 O           0.8530    0.2670    2.0140 os        1 R03     -0.215000
     12 C6C         1.7550   -0.8680    2.1580 c2        1 R03      0.115000
     13 C7C         1.3490   -2.0780    2.7200 c2        1 R03     -0.182000
     14 C7P         2.2800   -3.1500    2.8510 c1        1 R03      0.029000
     15 N1C         2.1490   -4.4300    3.3380 n1        1 R03     -0.157000
     16 N2C         3.3650   -5.0610    3.2120 n2        1 R03     -0.027000
     17 C3C         4.2420   -4.1810    2.6520 c2        1 R03     -0.063000
     18 C3P         3.5710   -2.9920    2.4270 c1        1 R03     -0.069500
     19 C4C         3.9840   -1.7600    1.8540 c1        1 R03     -0.068000
     20 C5C         3.0700   -0.7070    1.7240 c1        1 R03     -0.227000
     21 C1D         5.5590   -4.6110    2.4690 c1        1 R03     -0.069500
     22 C6D         5.9320   -5.1960    1.2760 c1        1 R03     -0.153500
     23 C5D         7.2460   -5.5750    1.0710 c1        1 R03     -0.153500
     24 C4D         8.1960   -5.3650    2.0700 c1        1 R03     -0.164000
     25 C3D         7.8220   -4.7810    3.2610 c1        1 R03     -0.108000
     26 C2D         6.5010   -4.4020    3.4630 c1        1 R03     -0.068000
     27 BR27        9.9830   -6.0150    1.8440 br        1 R03      0.050000
     28 C1E         1.1280   -5.3600    3.7320 c2        1 R03     -0.050000
     29 C1F        -4.1180    3.7410   -4.8450 c3        1 R03     -0.123000
     30 H3A1       -7.8840    7.0400   -4.4680 DU        1 R03      0.110000
     31 H3A2       -8.9660    5.9270   -5.1820 ha        1 R03      0.134250
     32 H2A        -7.5570    4.1380   -4.5430 ha        1 R03      0.134250
     33 H1A1       -6.2280    5.6770   -2.6620 h4        1 R03      0.076000
     34 H1A2       -5.4830    6.0590   -4.0510 h4        1 R03      0.076000
     35 H1B1       -4.5840    4.0450   -1.2700 h1        1 R03      0.068500
     36 H1B2       -3.5230    4.8360   -2.1580 h1        1 R03      0.068500
     37 H2B1       -3.6390    1.9880   -2.1560 hc        1 R03      0.088000
     38 H2B2       -2.4630    2.8830   -2.7920 hc        1 R03      0.088000
     39 H3B1       -1.8720    3.6330   -0.5770 hc        1 R03      0.082000
     40 H3B2       -2.9840    2.6750    0.0130 hc        1 R03      0.082000
     41 H4B1       -1.8490    0.8120   -0.8390 hc        1 R03      0.082000
     42 H4B2       -0.7240    1.7730   -1.3900 hc        1 R03      0.082000
     43 H5B1       -1.3290    1.5290    1.4040 hc        1 R03      0.097500
     44 H5B2       -0.1300    2.3990    0.7990 hc        1 R03      0.097500
     45 H6B1       -0.2470   -0.4190    0.5420 h1        1 R03      0.080000
     46 H6B2        0.9680    0.4690    0.0530 h1        1 R03      0.080000
     47 H7C         0.4390   -2.1830    3.0420 ha        1 R03      0.155000
     48 H4C         4.9310   -1.6450    1.5440 ha        1 R03      0.146500
     49 H5C         3.3760    0.1640    1.4160 ha        1 R03      0.140000
     50 H6D         5.2730   -5.3420    0.5820 ha        1 R03      0.134250
     51 H5D         7.5040   -5.9810    0.2420 ha        1 R03      0.134250
     52 H3D         8.4960   -4.6310    3.9720 ha        1 R03      0.148000
     53 H2D         6.2360   -3.9900    4.3070 ha        1 R03      0.146500
     54 H1E1        1.4300   -6.2840    3.5390 ha        1 R03      0.096000
     55 H1E2        0.3010   -5.1740    3.2290 ha        1 R03      0.096000
     56 H1E3        0.9520   -5.2660    4.7050 ha        1 R03      0.096000
     57 H1F1       -4.6930    3.8410   -5.6480 h1        1 R03      0.071667
     58 H1F2       -3.4190    4.4410   -4.8500 h1        1 R03      0.071667
     59 H1F3       -3.6930    2.8530   -4.8540 h1        1 R03      0.071667
@<TRIPOS>BOND
     1    1    2 1   
     2    1   31 1   
     3    2   32 1   
     4    3    4 1   
     5    3   33 1   
     6    3   34 1   
     7    4    5 1   
     8    4   29 1   
     9    5    6 1   
    10    5   35 1   
    11    5   36 1   
    12    6    7 1   
    13    6   37 1   
    14    6   38 1   
    15    7    8 1   
    16    7   39 1   
    17    7   40 1   
    18    8    9 1   
    19    8   41 1   
    20    8   42 1   
    21    9   10 1   
    22    9   43 1   
    23    9   44 1   
    24   10   11 1   
    25   10   45 1   
    26   10   46 1   
    27   11   12 1   
    28   12   13 1   
    29   12   20 1   
    30   13   14 1   
    31   13   47 1   
    32   15   16 1   
    33   16   17 1   
    34   17   18 1   
    35   17   21 1   
    36   18   19 1   
    37   19   48 1   
    38   20   49 1   
    39   21   26 1   
    40   22   23 1   
    41   22   50 1   
    42   23   51 1   
    43   24   25 1   
    44   24   27 1   
    45   25   52 1   
    46   26   53 1   
    47   28   54 1   
    48   28   55 1   
    49   28   56 1   
    50   29   57 1   
    51   29   58 1   
    52   29   59 1   
@<TRIPOS>SUBSTRUCTURE
     1 R03         1 TEMP              0 ****  ****    0 ROOT
