@<TRIPOS>MOLECULE
R03
   59    61     1     0     0
SMALL
bcc


@<TRIPOS>ATOM
      1 C3A         2.0660   -1.4510  -12.6290 c2        1 R03     -0.202000
      2 C2A         1.7440   -0.2620  -12.1280 c2        1 R03     -0.171200
      3 C1A         0.7220   -0.0760  -11.0500 c3        1 R03      0.200000
      4 N1          1.2840    0.1960   -9.7300 n3        1 R03     -0.728600
      5 C1B         0.2270    0.3730   -8.7400 c3        1 R03      0.169800
      6 C2B         0.7160    0.3010   -7.2940 c3        1 R03     -0.081400
      7 C3B        -0.4690    0.2480   -6.3530 c3        1 R03     -0.079400
      8 C4B        -0.0140    0.2190   -4.9090 c3        1 R03     -0.078400
      9 C5B        -1.1980    0.1600   -3.9690 c3        1 R03     -0.086400
     10 C6B        -0.7220    0.1300   -2.5270 c3        1 R03      0.129400
     11 O          -1.9110    0.0820   -1.7280 os        1 R03     -0.331900
     12 C6C        -1.7270    0.0430   -0.3600 ca        1 R03      0.160100
     13 C7C        -2.9210   -0.0030    0.3720 ca        1 R03     -0.181000
     14 C7P        -2.8030   -0.0490    1.7640 ca        1 R03     -0.018200
     15 N1C        -3.7660   -0.0500    2.7930 na        1 R03      0.088900
     16 N2C        -3.1810   -0.1150    4.0060 nc        1 R03     -0.496100
     17 C3C        -1.8340   -0.0980    3.8410 cd        1 R03      0.394500
     18 C3P        -1.5120   -0.0550    2.4140 ca        1 R03     -0.231900
     19 C4C        -0.3530    0.0060    1.6470 ca        1 R03     -0.031000
     20 C5C        -0.4590    0.0510    0.2640 ca        1 R03     -0.226000
     21 C1D        -0.8750   -0.1140    4.9340 ca        1 R03     -0.075900
     22 C6D        -1.1310    0.5830    6.1220 ca        1 R03     -0.111500
     23 C5D        -0.2020    0.5680    7.1600 ca        1 R03     -0.107500
     24 C4D         0.9910   -0.1460    7.0230 ca        1 R03     -0.023900
     25 C3D         1.2490   -0.8500    5.8430 ca        1 R03     -0.107500
     26 C2D         0.3210   -0.8340    4.8050 ca        1 R03     -0.111500
     27 BR27        2.2410   -0.1640    8.4180 br        1 R03     -0.090100
     28 C1E        -5.1740   -0.2760    2.5800 c3        1 R03      0.046600
     29 C1F         2.2540    1.2660   -9.7280 c3        1 R03      0.153100
     30 H3A1        2.7910   -1.5650  -13.4450 ha        1 R03      0.113000
     31 H3A2        1.6300   -2.3900  -12.2610 ha        1 R03      0.113000
     32 H2A         2.2030    0.6660  -12.5060 ha        1 R03      0.119000
     33 H1A1        0.1050   -1.0170  -10.9540 h1        1 R03      0.033200
     34 H1A2        0.0240    0.7530  -11.3790 h1        1 R03      0.033200
     35 H1B1       -0.3140    1.3550   -8.8850 h1        1 R03      0.029200
     36 H1B2       -0.5270   -0.4510   -8.8940 h1        1 R03      0.029200
     37 H2B1        1.3580   -0.6070   -7.1480 hc        1 R03      0.049200
     38 H2B2        1.3440    1.1990   -7.0530 hc        1 R03      0.049200
     39 H3B1       -1.1270    1.1410   -6.5220 hc        1 R03      0.042700
     40 H3B2       -1.0850   -0.6640   -6.5700 hc        1 R03      0.042700
     41 H4B1        0.6480   -0.6710   -4.7420 hc        1 R03      0.042700
     42 H4B2        0.5980    1.1340   -4.6890 hc        1 R03      0.042700
     43 H5B1       -1.8620    1.0500   -4.1230 hc        1 R03      0.057700
     44 H5B2       -1.8130   -0.7540   -4.1770 hc        1 R03      0.057700
     45 H6B1       -0.0980   -0.7800   -2.3270 h1        1 R03      0.040700
     46 H6B2       -0.1370    1.0530   -2.2750 h1        1 R03      0.040700
     47 H7C        -3.8910   -0.0010   -0.1400 ha        1 R03      0.155000
     48 H4C         0.6350    0.0250    2.1310 ha        1 R03      0.142000
     49 H5C         0.4560    0.0970   -0.3420 ha        1 R03      0.140000
     50 H6D        -2.0700    1.1470    6.2390 ha        1 R03      0.147500
     51 H5D        -0.4170    1.1230    8.0870 ha        1 R03      0.147000
     52 H3D         2.1820   -1.4220    5.7270 ha        1 R03      0.147000
     53 H2D         0.5230   -1.3990    3.8820 ha        1 R03      0.147500
     54 H1E1       -5.3960   -1.3760    2.5300 h1        1 R03      0.056700
     55 H1E2       -5.7670    0.1800    3.4160 h1        1 R03      0.056700
     56 H1E3       -5.4610    0.2060    1.6080 h1        1 R03      0.056700
     57 H1F1        3.0950    0.9960  -10.4190 h1        1 R03      0.031700
     58 H1F2        1.8270    2.2550  -10.0520 h1        1 R03      0.031700
     59 H1F3        2.6720    1.3810   -8.6940 h1        1 R03      0.031700
@<TRIPOS>BOND
     1    1    2 2   
     2    1   30 1   
     3    1   31 1   
     4    2    3 1   
     5    2   32 1   
     6    3    4 1   
     7    3   33 1   
     8    3   34 1   
     9    4    5 1   
    10    4   29 1   
    11    5    6 1   
    12    5   35 1   
    13    5   36 1   
    14    6    7 1   
    15    6   37 1   
    16    6   38 1   
    17    7    8 1   
    18    7   39 1   
    19    7   40 1   
    20    8    9 1   
    21    8   41 1   
    22    8   42 1   
    23    9   10 1   
    24    9   43 1   
    25    9   44 1   
    26   10   11 1   
    27   10   45 1   
    28   10   46 1   
    29   11   12 1   
    30   12   13 ar  
    31   12   20 ar  
    32   13   14 ar  
    33   13   47 1   
    34   14   15 1   
    35   14   18 ar  
    36   15   16 1   
    37   15   28 1   
    38   16   17 2   
    39   17   18 1   
    40   17   21 1   
    41   18   19 ar  
    42   19   20 ar  
    43   19   48 1   
    44   20   49 1   
    45   21   22 ar  
    46   21   26 ar  
    47   22   23 ar  
    48   22   50 1   
    49   23   24 ar  
    50   23   51 1   
    51   24   25 ar  
    52   24   27 1   
    53   25   26 ar  
    54   25   52 1   
    55   26   53 1   
    56   28   54 1   
    57   28   55 1   
    58   28   56 1   
    59   29   57 1   
    60   29   58 1   
    61   29   59 1   
@<TRIPOS>SUBSTRUCTURE
     1 R03         1 TEMP              0 ****  ****    0 ROOT
