@<TRIPOS>MOLECULE
R04
   51    53     1     0     0
SMALL
bcc


@<TRIPOS>ATOM
      1 C3A         1.4900   -1.0990  -11.8730 c2        1 R04     -0.225000
      2 C2A         1.4940   -1.1940  -10.5460 c2        1 R04     -0.164200
      3 C1A         1.1950   -0.0310   -9.6520 c3        1 R04      0.196000
      4 N1          0.4280   -0.3880   -8.4610 n3        1 R04     -0.727600
      5 C1B         0.3510    0.7380   -7.5350 c3        1 R04      0.202000
      6 C2B        -0.3500    0.4210   -6.2510 c2        1 R04     -0.160200
      7 C3B         0.2860    0.3800   -5.0790 c2        1 R04     -0.161200
      8 C4B        -0.4220    0.0890   -3.8030 c3        1 R04      0.158600
      9 O           0.4600    0.5150   -2.7500 os        1 R04     -0.310900
     10 C6C        -0.0060    0.3390   -1.4680 ca        1 R04      0.135100
     11 C7C        -1.2210   -0.2510   -1.1410 ca        1 R04     -0.208000
     12 C7P        -1.5340   -0.3600    0.2230 ca        1 R04     -0.030200
     13 N1C        -2.6730   -0.8500    0.8900 na        1 R04      0.095900
     14 N2C        -2.5270   -0.7640    2.2270 nc        1 R04     -0.495100
     15 C3C        -1.3330   -0.1780    2.4980 cd        1 R04      0.397500
     16 C3P        -0.6350    0.1130    1.2460 ca        1 R04     -0.211900
     17 C4C         0.5720    0.7130    0.8960 ca        1 R04     -0.077000
     18 C5C         0.8920    0.8250   -0.4570 ca        1 R04      0.078900
     19 C1D        -0.8460    0.1110    3.8370 ca        1 R04     -0.079900
     20 C6D         0.5150   -0.0390    4.1360 ca        1 R04     -0.110000
     21 C5D         0.9910    0.2410    5.4140 ca        1 R04     -0.107500
     22 C4D         0.1090    0.6730    6.4100 ca        1 R04     -0.021900
     23 C3D        -1.2500    0.8190    6.1200 ca        1 R04     -0.107500
     24 C2D        -1.7260    0.5370    4.8410 ca        1 R04     -0.110000
     25 F           2.0580    1.3980   -0.8360 f         1 R04     -0.125900
     26 BR27        0.7500    1.0540    8.1280 br        1 R04     -0.087100
     27 C1E        -3.7290   -1.5940    0.2510 c3        1 R04      0.046600
     28 C1F        -0.8580   -0.9690   -8.7690 c3        1 R04      0.152100
     29 H3A1        1.7570   -1.9460  -12.5180 ha        1 R04      0.112500
     30 H3A2        1.2260   -0.1770  -12.4060 ha        1 R04      0.112500
     31 H2A         1.7580   -2.1340  -10.0340 ha        1 R04      0.135000
     32 H1A1        0.6780    0.7810  -10.2460 h1        1 R04      0.038200
     33 H1A2        2.1850    0.3870   -9.3030 h1        1 R04      0.038200
     34 H1B1        1.4100    1.0610   -7.3160 h1        1 R04      0.038700
     35 H1B2       -0.1820    1.6220   -8.0010 h1        1 R04      0.038700
     36 H2B        -1.4350    0.2470   -6.3290 ha        1 R04      0.121000
     37 H3B         1.3710    0.5520   -4.9860 ha        1 R04      0.153000
     38 H4B1       -1.3920    0.6500   -3.7240 h1        1 R04      0.049700
     39 H4B2       -0.6120   -1.0140   -3.7000 h1        1 R04      0.049700
     40 H7C        -1.9150   -0.6200   -1.9060 ha        1 R04      0.148000
     41 H4C         1.2600    1.1000    1.6620 ha        1 R04      0.161000
     42 H6D         1.2110   -0.3900    3.3580 ha        1 R04      0.147500
     43 H5D         2.0630    0.1170    5.6320 ha        1 R04      0.148000
     44 H3D        -1.9540    1.1550    6.8970 ha        1 R04      0.148000
     45 H2D        -2.7990    0.6520    4.6220 ha        1 R04      0.147500
     46 H1E1       -3.4300   -2.6700    0.1250 h1        1 R04      0.057367
     47 H1E2       -4.6650   -1.5430    0.8670 h1        1 R04      0.057367
     48 H1E3       -3.9170   -1.1390   -0.7570 h1        1 R04      0.057367
     49 H1F1       -1.2820   -1.4190   -7.8330 h1        1 R04      0.032700
     50 H1F2       -1.5980   -0.2250   -9.1750 h1        1 R04      0.032700
     51 H1F3       -0.7220   -1.7840   -9.5270 h1        1 R04      0.032700
@<TRIPOS>BOND
     1    1    2 2   
     2    1   29 1   
     3    1   30 1   
     4    2    3 1   
     5    2   31 1   
     6    3    4 1   
     7    3   32 1   
     8    3   33 1   
     9    4    5 1   
    10    4   28 1   
    11    5    6 1   
    12    5   34 1   
    13    5   35 1   
    14    6    7 2   
    15    6   36 1   
    16    7    8 1   
    17    7   37 1   
    18    8    9 1   
    19    8   38 1   
    20    8   39 1   
    21    9   10 1   
    22   10   11 ar  
    23   10   18 ar  
    24   11   12 ar  
    25   11   40 1   
    26   12   13 1   
    27   12   16 ar  
    28   13   14 1   
    29   13   27 1   
    30   14   15 2   
    31   15   16 1   
    32   15   19 1   
    33   16   17 ar  
    34   17   18 ar  
    35   17   41 1   
    36   18   25 1   
    37   19   20 ar  
    38   19   24 ar  
    39   20   21 ar  
    40   20   42 1   
    41   21   22 ar  
    42   21   43 1   
    43   22   23 ar  
    44   22   26 1   
    45   23   24 ar  
    46   23   44 1   
    47   24   45 1   
    48   27   46 1   
    49   27   47 1   
    50   27   48 1   
    51   28   49 1   
    52   28   50 1   
    53   28   51 1   
@<TRIPOS>SUBSTRUCTURE
     1 R04         1 TEMP              0 ****  ****    0 ROOT
