@<TRIPOS>MOLECULE
R09
   60    64     1     0     0
SMALL
bcc


@<TRIPOS>ATOM
      1 CAB        -0.0200   -0.0240    0.1530 c3        1 R09     -0.059800
      2 CAW         1.4570   -0.0490    0.0470 ca        1 R09     -0.056300
      3 CAQ         2.2280   -0.1000    1.2150 ca        1 R09     -0.027000
      4 CBA         3.6250   -0.1200    1.1770 ca        1 R09     -0.372500
      5 SBI         4.5230   -0.1590    2.5940 sy        1 R09      1.397300
      6 OAE         5.8100    0.3460    2.3620 o         1 R09     -0.654800
      7 OAF         3.7850    0.3940    3.6510 o         1 R09     -0.654800
      8 CAD         4.6270   -1.8350    2.8200 c3        1 R09     -0.357300
      9 CAL         4.2600   -0.0700   -0.0700 ca        1 R09     -0.032000
     10 CAN         3.5180   -0.0210   -1.2430 ca        1 R09     -0.143000
     11 CBB         2.1160   -0.0150   -1.1940 ca        1 R09     -0.059500
     12 CBD         1.3610    0.0560   -2.4490 cc        1 R09      0.437000
     13 NBH         1.6110   -0.7910   -3.5520 na        1 R09     -0.180900
     14 CAC         2.5630   -1.8500   -3.6190 c3        1 R09      0.014600
     15 NAU         0.3690    0.9390   -2.7300 nd        1 R09     -0.631000
     16 CBC        -0.0390    0.6690   -4.0400 cd        1 R09      0.353800
     17 CAY        -1.0710    1.4400   -4.7120 ca        1 R09     -0.068500
     18 CAI        -2.1410    1.9920   -3.9900 ca        1 R09     -0.229800
     19 CAG        -3.1080    2.7360   -4.6870 ca        1 R09      0.386700
     20 NAT        -3.0700    2.9580   -6.0150 nb        1 R09     -0.665000
     21 CAH        -2.0340    2.4280   -6.6940 ca        1 R09      0.386700
     22 CAJ        -1.0150    1.6690   -6.0950 ca        1 R09     -0.229800
     23 CBE         0.7180   -0.4150   -4.5650 cc        1 R09     -0.121600
     24 CAZ         0.6350   -1.0870   -5.8500 ca        1 R09     -0.048000
     25 CAS        -0.5680   -1.5910   -6.3020 ca        1 R09     -0.069000
     26 CBG        -0.6510   -2.2430   -7.5610 ca        1 R09     -0.074000
     27 CAO        -1.8820   -2.7630   -8.0450 ca        1 R09     -0.078000
     28 CAK        -1.9520   -3.3930   -9.2630 ca        1 R09     -0.183000
     29 CAX        -0.7780   -3.5290  -10.0510 ca        1 R09      0.133100
     30 OAV        -0.7500   -4.1500  -11.2850 os        1 R09     -0.325900
     31 CAA        -1.9930   -4.6370  -11.7780 c3        1 R09      0.112700
     32 CAR         0.4400   -3.0320   -9.6100 ca        1 R09     -0.164000
     33 CBF         0.5170   -2.3810   -8.3550 ca        1 R09      0.003000
     34 CAP         1.7460   -1.8550   -7.8670 ca        1 R09     -0.125000
     35 CAM         1.8050   -1.2280   -6.6490 ca        1 R09     -0.114000
     36 HAB1       -0.3980    1.0130   -0.0350 hc        1 R09      0.057700
     37 HAB2       -0.3550   -0.3410    1.1720 hc        1 R09      0.057700
     38 HAB3       -0.4840   -0.7070   -0.6010 hc        1 R09      0.057700
     39 HAQ         1.7190   -0.1060    2.1970 ha        1 R09      0.158000
     40 HAL         5.3640   -0.0490   -0.1140 ha        1 R09      0.159000
     41 HAD1        3.6290   -2.3300    2.8970 h1        1 R09      0.113367
     42 HAD2        5.1710   -2.0790    3.7670 h1        1 R09      0.113367
     43 HAD3        5.1800   -2.3530    2.0000 h1        1 R09      0.113367
     44 HAN         4.0330    0.0330   -2.2140 ha        1 R09      0.144000
     45 HAC1        2.1800   -2.6620   -4.2950 h1        1 R09      0.061367
     46 HAC2        3.5380   -1.4680   -4.0320 h1        1 R09      0.061367
     47 HAC3        2.7410   -2.2650   -2.5910 h1        1 R09      0.061367
     48 HAI        -2.2220    1.8540   -2.9040 ha        1 R09      0.153500
     49 HAJ        -0.1930    1.2630   -6.6990 ha        1 R09      0.153500
     50 HAG        -3.9630    3.1850   -4.1500 h4        1 R09      0.021100
     51 HAH        -2.0200    2.6270   -7.7810 h4        1 R09      0.021100
     52 HAS        -1.4820   -1.4870   -5.6960 ha        1 R09      0.146000
     53 HAM         2.7550   -0.8160   -6.2760 ha        1 R09      0.136000
     54 HAO        -2.7840   -2.6490   -7.4250 ha        1 R09      0.140000
     55 HAK        -2.9110   -3.7900   -9.6270 ha        1 R09      0.142000
     56 HAR         1.3410   -3.1410  -10.2300 ha        1 R09      0.153000
     57 HAA1       -1.7220   -5.0700  -12.7750 h1        1 R09      0.046367
     58 HAA2       -2.4020   -5.4280  -11.1040 h1        1 R09      0.046367
     59 HAA3       -2.7260   -3.8030  -11.8980 h1        1 R09      0.046367
     60 HAP         2.6480   -1.9600   -8.4900 ha        1 R09      0.140000
@<TRIPOS>BOND
     1    1    2 1   
     2    1   36 1   
     3    1   37 1   
     4    1   38 1   
     5    2    3 ar  
     6    2   11 ar  
     7    3    4 ar  
     8    3   39 1   
     9    4    5 1   
    10    4    9 ar  
    11    5    6 2   
    12    5    7 2   
    13    5    8 1   
    14    8   41 1   
    15    8   42 1   
    16    8   43 1   
    17    9   10 ar  
    18    9   40 1   
    19   10   11 ar  
    20   10   44 1   
    21   11   12 1   
    22   12   13 1   
    23   12   15 2   
    24   13   14 1   
    25   13   23 1   
    26   14   45 1   
    27   14   46 1   
    28   14   47 1   
    29   15   16 1   
    30   16   17 1   
    31   16   23 2   
    32   17   18 ar  
    33   17   22 ar  
    34   18   19 ar  
    35   18   48 1   
    36   19   20 ar  
    37   19   50 1   
    38   20   21 ar  
    39   21   22 ar  
    40   21   51 1   
    41   22   49 1   
    42   23   24 1   
    43   24   25 ar  
    44   24   35 ar  
    45   25   26 ar  
    46   25   52 1   
    47   26   27 ar  
    48   26   33 ar  
    49   27   28 ar  
    50   27   54 1   
    51   28   29 ar  
    52   28   55 1   
    53   29   30 1   
    54   29   32 ar  
    55   30   31 1   
    56   31   57 1   
    57   31   58 1   
    58   31   59 1   
    59   32   33 ar  
    60   32   56 1   
    61   33   34 ar  
    62   34   35 ar  
    63   34   60 1   
    64   35   53 1   
@<TRIPOS>SUBSTRUCTURE
     1 R09         1 TEMP              0 ****  ****    0 ROOT
