@<TRIPOS>MOLECULE
R10
   23    22     1     0     0
SMALL
bcc


@<TRIPOS>ATOM
      1 O2          0.3640    0.3570    0.4640 o         1 R10     -0.872800
      2 C5          1.4850   -0.0820    0.0520 c         1 R10      0.881600
      3 O1          2.3870   -0.4910    0.8410 o         1 R10     -0.872800
      4 O3          2.8140   -0.9460   -1.8100 oh        1 R10     -0.606800
      5 C3          1.9020    1.3340   -2.0010 c3        1 R10      0.123100
      6 O4          0.6320    1.9710   -2.0350 oh        1 R10     -0.619800
      7 C2          2.5260    1.3890   -3.4120 c3        1 R10      0.127100
      8 O5          3.9100    1.1110   -3.2280 oh        1 R10     -0.666800
      9 C1          2.3010    2.7470   -4.1320 c3        1 R10      0.197400
     10 C4          1.7270   -0.1070   -1.4720 c3        1 R10      0.002100
     11 O6          3.3920    3.0510   -4.9110 os        1 R10     -0.586200
     12 P1          3.0720    3.6940   -6.4950 p5        1 R10      1.323900
     13 O9          1.8990    2.8780   -6.9720 o         1 R10     -0.939500
     14 O7          2.7700    5.1440   -6.2190 o         1 R10     -0.939500
     15 O8          4.3840    3.4250   -7.1850 o         1 R10     -0.939500
     16 H1C1        2.1610    3.5280   -3.3280 h1        1 R10      0.010200
     17 H1C2        1.3670    2.6810   -4.7540 h1        1 R10      0.010200
     18 H2          2.0990    0.5540   -4.0320 h1        1 R10      0.028700
     19 H5          4.3940    1.6710   -3.8570 ho        1 R10      0.442000
     20 H3          2.5750    1.8970   -1.2930 h1        1 R10      0.025700
     21 H4          0.2100    1.7580   -1.1880 ho        1 R10      0.414000
     22 HA          0.8390   -0.5790   -1.9760 h1        1 R10      0.049700
     23 HB          3.6100   -0.4840   -1.5180 ho        1 R10      0.410000
@<TRIPOS>BOND
     1    1    2 1   
     2    2    3 1   
     3    2   10 1   
     4    4   10 1   
     5    4   23 1   
     6    5    6 1   
     7    5    7 1   
     8    5   10 1   
     9    5   20 1   
    10    6   21 1   
    11    7    8 1   
    12    7    9 1   
    13    7   18 1   
    14    8   19 1   
    15    9   11 1   
    16    9   16 1   
    17    9   17 1   
    18   10   22 1   
    19   11   12 1   
    20   12   13 1   
    21   12   14 1   
    22   12   15 1   
@<TRIPOS>SUBSTRUCTURE
     1 R10         1 TEMP              0 ****  ****    0 ROOT
