@<TRIPOS>MOLECULE
R10
   23    22     1     0     0
SMALL
bcc


@<TRIPOS>ATOM
      1 O2         -3.9060   -1.8610    0.5050 o         1 R10     -0.868300
      2 C5         -3.9540   -0.6150    0.3020 c         1 R10      0.895600
      3 O1         -5.0150   -0.0090   -0.0510 o         1 R10     -0.868300
      4 O3         -3.0680    1.5990    0.7620 oh        1 R10     -0.631800
      5 C3         -1.6740    0.1690   -0.6130 c3        1 R10      0.130100
      6 O4         -1.6210   -1.1360   -1.1650 oh        1 R10     -0.612800
      7 C2         -0.2840    0.6830   -0.1750 c3        1 R10      0.100100
      8 O5          0.2590    1.4090   -1.2660 oh        1 R10     -0.691800
      9 C1          0.6800   -0.4280    0.3000 c3        1 R10      0.201400
     10 C4         -2.6920    0.2440    0.5440 c3        1 R10     -0.005900
     11 O6          1.7420    0.1060    0.9940 os        1 R10     -0.579200
     12 P1          3.2830   -0.0350    0.2360 p5        1 R10      1.325900
     13 O9          3.4360   -1.5170    0.0150 o         1 R10     -0.937500
     14 O7          3.0580    0.7790   -1.0190 o         1 R10     -0.937500
     15 O8          4.2180    0.5720    1.2490 o         1 R10     -0.937500
     16 H1C1        0.0890   -1.1110    0.9800 h1        1 R10     -0.003300
     17 H1C2        1.0340   -1.0190   -0.5900 h1        1 R10     -0.003300
     18 H2         -0.4420    1.4150    0.6690 h1        1 R10      0.021700
     19 H5          1.2370    1.2660   -1.2460 ho        1 R10      0.485000
     20 H3         -2.0360    0.8140   -1.4640 h1        1 R10      0.048700
     21 H4         -1.6580   -1.7560   -0.4260 ho        1 R10      0.409000
     22 HA         -2.1950   -0.0840    1.4970 h1        1 R10      0.059700
     23 HB         -3.8500    1.7520    0.2120 ho        1 R10      0.402000
@<TRIPOS>BOND
     1    1    2 1   
     2    2    3 1   
     3    2   10 1   
     4    4   10 1   
     5    4   23 1   
     6    5    6 1   
     7    5    7 1   
     8    5   10 1   
     9    5   20 1   
    10    6   21 1   
    11    7    8 1   
    12    7    9 1   
    13    7   18 1   
    14    8   19 1   
    15    9   11 1   
    16    9   16 1   
    17    9   17 1   
    18   10   22 1   
    19   11   12 1   
    20   12   13 1   
    21   12   14 1   
    22   12   15 1   
@<TRIPOS>SUBSTRUCTURE
     1 R10         1 TEMP              0 ****  ****    0 ROOT
