@<TRIPOS>MOLECULE
R11
   59    63     1     0     0
SMALL
bcc


@<TRIPOS>ATOM
      1 N1         -0.2360    0.0540    0.3550 n2        1 R11     -0.641100
      2 N2          1.8380    0.6510   -0.8830 n4        1 R11     -0.880600
      3 C1          1.0130    0.2550    0.3350 ce        1 R11      0.599800
      4 C2          1.8610    0.1160    1.5540 ca        1 R11     -0.158900
      5 C3          1.8850   -1.1130    2.2230 ca        1 R11     -0.066000
      6 C4          2.5750   -1.2380    3.4290 ca        1 R11     -0.092500
      7 C5          3.2370   -0.1210    3.9680 ca        1 R11      0.003600
      8 C6          3.2270    1.1100    3.2850 ca        1 R11     -0.092500
      9 C7          2.5330    1.2240    2.0810 ca        1 R11     -0.066000
     10 N           3.9050   -0.2210    5.2660 n4        1 R11     -0.648400
     11 C           5.3570   -0.6280    5.1450 c3        1 R11      0.140500
     12 N3          5.8570    0.5480    7.2920 nc        1 R11     -0.551100
     13 C8          6.0060   -0.5360    6.4860 cd        1 R11      0.261800
     14 N9          6.8000   -1.5520    7.0640 na        1 R11     -0.115300
     15 C3A         7.2140   -1.0460    8.3040 ca        1 R11     -0.044200
     16 C7A         6.5950    0.2630    8.4410 ca        1 R11      0.063400
     17 C10         8.0180   -1.5750    9.3270 ca        1 R11     -0.132000
     18 C11         8.1790   -0.8130   10.4690 ca        1 R11     -0.063000
     19 C12         7.5730    0.4590   10.6220 ca        1 R11     -0.115300
     20 C13         6.7930    1.0100    9.6200 ca        1 R11     -0.043000
     21 C14         7.3010   -2.7170    6.4100 c3        1 R11      0.012600
     22 C9          7.8220    1.2190   11.9040 c3        1 R11      0.091600
     23 N4          6.6760    1.8370   12.4890 na        1 R11     -0.183300
     24 C15         5.7020    1.2020   13.3230 cc        1 R11      0.428800
     25 N16         4.6210    1.9750   13.5300 nd        1 R11     -0.551100
     26 C17         4.8460    3.1620   12.8010 ca        1 R11      0.070400
     27 C18         6.1270    3.0790   12.1250 ca        1 R11     -0.082200
     28 C19         4.0710    4.3210   12.6730 ca        1 R11     -0.064000
     29 C20         4.5620    5.3560   11.8880 ca        1 R11     -0.151000
     30 C21         5.8030    5.2660   11.2370 ca        1 R11     -0.111000
     31 C22         6.6040    4.1350   11.3420 ca        1 R11     -0.148000
     32 C23         5.9410   -0.1380   13.9220 c3        1 R11     -0.119400
     33 HN1        -0.8480    0.1340   -0.4300 hn        1 R11      0.489400
     34 HN21        2.4100   -0.1480   -1.1770 hn        1 R11      0.468133
     35 HN22        2.4610    1.4270   -0.6360 hn        1 R11      0.468133
     36 HC3         1.3390   -1.9870    1.8220 ha        1 R11      0.179500
     37 HC4         2.5670   -2.2130    3.9500 ha        1 R11      0.186500
     38 HC6         3.7410    2.0000    3.6950 ha        1 R11      0.186500
     39 HC7         2.4960    2.2080    1.5850 ha        1 R11      0.179500
     40 HN          3.4140   -0.9040    5.8600 hn        1 R11      0.481800
     41 H1C         5.4010   -1.6730    4.7260 hx        1 R11      0.114200
     42 H2C         5.8500    0.0900    4.4260 hx        1 R11      0.114200
     43 H10C        8.4980   -2.5590    9.2270 ha        1 R11      0.157000
     44 H11C        8.8010   -1.2070   11.2910 ha        1 R11      0.160000
     45 H13C        6.3290    2.0060    9.7320 ha        1 R11      0.178000
     46 H141        7.8740   -3.3390    7.1510 h1        1 R11      0.068033
     47 H142        6.4450   -3.3270    6.0110 h1        1 R11      0.068033
     48 H143        7.9860   -2.4390    5.5630 h1        1 R11      0.068033
     49 HC91        8.2620    0.5160   12.6720 h1        1 R11      0.082200
     50 HC92        8.5840    2.0260   11.6840 h1        1 R11      0.082200
     51 H19C        3.1060    4.4060   13.1950 ha        1 R11      0.157000
     52 H20C        3.9720    6.2790   11.7830 ha        1 R11      0.141000
     53 H21C        6.1560    6.1200   10.6390 ha        1 R11      0.136000
     54 H22C        7.5830    4.0840   10.8490 ha        1 R11      0.133000
     55 H231        6.7960   -0.0830   14.6420 hc        1 R11      0.066033
     56 H232        5.0320   -0.4830   14.4760 hc        1 R11      0.066033
     57 H233        6.1840   -0.8830   13.1250 hc        1 R11      0.066033
     58 H23         1.2500    0.9420   -1.6720 hn        1 R11      0.468133
     59 HN3         3.8560    0.6980    5.7420 hn        1 R11      0.481800
@<TRIPOS>BOND
     1    1    3 2   
     2    1   33 1   
     3    2    3 1   
     4    2   34 1   
     5    2   35 1   
     6    2   58 1   
     7    3    4 1   
     8    4    5 ar  
     9    4    9 ar  
    10    5    6 ar  
    11    5   36 1   
    12    6    7 ar  
    13    6   37 1   
    14    7    8 ar  
    15    7   10 1   
    16    8    9 ar  
    17    8   38 1   
    18    9   39 1   
    19   10   11 1   
    20   10   40 1   
    21   10   59 1   
    22   11   13 1   
    23   11   41 1   
    24   11   42 1   
    25   12   13 2   
    26   12   16 1   
    27   13   14 1   
    28   14   15 1   
    29   14   21 1   
    30   15   16 ar  
    31   15   17 ar  
    32   16   20 ar  
    33   17   18 ar  
    34   17   43 1   
    35   18   19 ar  
    36   18   44 1   
    37   19   20 ar  
    38   19   22 1   
    39   20   45 1   
    40   21   46 1   
    41   21   47 1   
    42   21   48 1   
    43   22   23 1   
    44   22   49 1   
    45   22   50 1   
    46   23   24 1   
    47   23   27 1   
    48   24   25 2   
    49   24   32 1   
    50   25   26 1   
    51   26   27 ar  
    52   26   28 ar  
    53   27   31 ar  
    54   28   29 ar  
    55   28   51 1   
    56   29   30 ar  
    57   29   52 1   
    58   30   31 ar  
    59   30   53 1   
    60   31   54 1   
    61   32   55 1   
    62   32   56 1   
    63   32   57 1   
@<TRIPOS>SUBSTRUCTURE
     1 R11         1 TEMP              0 ****  ****    0 ROOT
