@<TRIPOS>MOLECULE
R11
   57    61     1     0     0
SMALL
bcc


@<TRIPOS>ATOM
      1 N1         -1.0870    1.5070    9.2440 n2        1 R11     -0.828100
      2 N2         -1.6960   -0.8360    9.0320 nh        1 R11     -0.957800
      3 C1         -1.2130    0.4080    8.5630 ce        1 R11      0.655800
      4 C2         -0.7420    0.3870    7.1440 ca        1 R11     -0.180900
      5 C3         -1.1270    1.4070    6.2660 ca        1 R11     -0.064000
      6 C4         -0.6990    1.3970    4.9450 ca        1 R11     -0.192000
      7 C5          0.1510    0.3690    4.4700 ca        1 R11      0.149600
      8 C6          0.5350   -0.6520    5.3680 ca        1 R11     -0.192000
      9 C7          0.0950   -0.6340    6.6880 ca        1 R11     -0.064000
     10 N           0.6540    0.4400    3.1590 nh        1 R11     -0.730600
     11 C           1.1410   -0.7840    2.5600 c3        1 R11      0.172500
     12 N3          0.5530   -1.0940    0.1150 nc        1 R11     -0.551100
     13 C8          1.3700   -0.6220    1.0780 cd        1 R11      0.393800
     14 N9          2.4950    0.0690    0.5590 na        1 R11     -0.152300
     15 C3A         2.3840    0.0010   -0.8340 ca        1 R11     -0.061200
     16 C7A         1.1550   -0.7280   -1.1030 ca        1 R11      0.061400
     17 C10         3.1810    0.4850   -1.8800 ca        1 R11     -0.133000
     18 C11         2.7540    0.2440   -3.1760 ca        1 R11     -0.100000
     19 C12         1.5660   -0.4650   -3.4510 ca        1 R11     -0.148300
     20 C13         0.7580   -0.9490   -2.4290 ca        1 R11     -0.041000
     21 C14         3.5680    0.6360    1.3040 c3        1 R11      0.024600
     22 C9          1.1860   -0.7250   -4.8840 c3        1 R11      0.099600
     23 N4         -0.0060   -0.0720   -5.3350 na        1 R11     -0.172300
     24 C15        -0.1230    1.2870   -5.7490 cc        1 R11      0.427800
     25 N16        -1.4020    1.6540   -5.9660 nd        1 R11     -0.568100
     26 C17        -2.1830    0.5220   -5.6580 ca        1 R11      0.069400
     27 C18        -1.3150   -0.5660   -5.2400 ca        1 R11     -0.069200
     28 C19        -3.5690    0.3210   -5.7020 ca        1 R11     -0.070000
     29 C20        -4.0650   -0.9220   -5.3370 ca        1 R11     -0.154000
     30 C21        -3.2170   -1.9680   -4.9330 ca        1 R11     -0.113000
     31 C22        -1.8390   -1.8120   -4.8780 ca        1 R11     -0.138000
     32 C23         1.0740    2.1490   -5.9450 c3        1 R11     -0.117400
     33 HN1        -1.4150    1.4860   10.1870 hn        1 R11      0.381400
     34 HN21       -2.2960   -0.8110    9.8230 hn        1 R11      0.396800
     35 HN22       -1.9820   -1.4730    8.3260 hn        1 R11      0.396800
     36 HC3        -1.7690    2.2270    6.6240 ha        1 R11      0.146000
     37 HC4        -1.0180    2.2080    4.2720 ha        1 R11      0.135500
     38 HC6         1.1950   -1.4680    5.0410 ha        1 R11      0.135500
     39 HC7         0.4230   -1.4300    7.3740 ha        1 R11      0.146000
     40 HN          0.0710    0.9760    2.5460 hn        1 R11      0.408800
     41 H1C         0.4330   -1.6510    2.7200 h1        1 R11      0.067200
     42 H2C         2.1240   -1.0450    3.0530 h1        1 R11      0.067200
     43 H10C        4.1090    1.0380   -1.6800 ha        1 R11      0.139000
     44 H11C        3.3620    0.6160   -4.0160 ha        1 R11      0.131000
     45 H13C       -0.1770   -1.4880   -2.6510 ha        1 R11      0.158000
     46 H141        4.2790   -0.1690    1.6390 h1        1 R11      0.059367
     47 H142        4.1230    1.3690    0.6620 h1        1 R11      0.059367
     48 H143        3.1660    1.1650    2.2100 h1        1 R11      0.059367
     49 HC91        2.0290   -0.3960   -5.5600 h1        1 R11      0.065200
     50 HC92        1.0390   -1.8370   -5.0180 h1        1 R11      0.065200
     51 H19C       -4.2380    1.1330   -6.0190 ha        1 R11      0.146000
     52 H20C       -5.1500   -1.0990   -5.3620 ha        1 R11      0.131000
     53 H21C       -3.6600   -2.9350   -4.6510 ha        1 R11      0.131000
     54 H22C       -1.1850   -2.6350   -4.5620 ha        1 R11      0.133000
     55 H231        1.6500    1.7960   -6.8370 hc        1 R11      0.062033
     56 H232        0.7640    3.2100   -6.1130 hc        1 R11      0.062033
     57 H233        1.7340    2.1010   -5.0430 hc        1 R11      0.062033
@<TRIPOS>BOND
     1    1    3 2   
     2    1   33 1   
     3    2    3 1   
     4    2   34 1   
     5    2   35 1   
     6    3    4 1   
     7    4    5 ar  
     8    4    9 ar  
     9    5    6 ar  
    10    5   36 1   
    11    6    7 ar  
    12    6   37 1   
    13    7    8 ar  
    14    7   10 1   
    15    8    9 ar  
    16    8   38 1   
    17    9   39 1   
    18   10   11 1   
    19   10   40 1   
    20   11   13 1   
    21   11   41 1   
    22   11   42 1   
    23   12   13 2   
    24   12   16 1   
    25   13   14 1   
    26   14   15 1   
    27   14   21 1   
    28   15   16 ar  
    29   15   17 ar  
    30   16   20 ar  
    31   17   18 ar  
    32   17   43 1   
    33   18   19 ar  
    34   18   44 1   
    35   19   20 ar  
    36   19   22 1   
    37   20   45 1   
    38   21   46 1   
    39   21   47 1   
    40   21   48 1   
    41   22   23 1   
    42   22   49 1   
    43   22   50 1   
    44   23   24 1   
    45   23   27 1   
    46   24   25 2   
    47   24   32 1   
    48   25   26 1   
    49   26   27 ar  
    50   26   28 ar  
    51   27   31 ar  
    52   28   29 ar  
    53   28   51 1   
    54   29   30 ar  
    55   29   52 1   
    56   30   31 ar  
    57   30   53 1   
    58   31   54 1   
    59   32   55 1   
    60   32   56 1   
    61   32   57 1   
@<TRIPOS>SUBSTRUCTURE
     1 R11         1 TEMP              0 ****  ****    0 ROOT
