@<TRIPOS>MOLECULE
R11
   58    62     1     0     0
SMALL
bcc


@<TRIPOS>ATOM
      1 N1          0.3150    1.9300    5.4530 n2        1 R11     -0.678100
      2 N2          2.0830    2.1800    7.1830 nz        1 R11     -0.879600
      3 C1          1.4370    1.5880    5.9330 ce        1 R11      0.631800
      4 C2          2.3210    0.5400    5.3800 ca        1 R11     -0.266900
      5 C3          1.9730   -0.8080    5.5120 ca        1 R11     -0.051000
      6 C4          2.8520   -1.7960    5.0910 ca        1 R11     -0.169000
      7 C5          4.1040   -1.4550    4.5160 ca        1 R11      0.197600
      8 C6          4.3820   -0.0820    4.2830 ca        1 R11     -0.169000
      9 C7          3.5060    0.8970    4.7230 ca        1 R11     -0.051000
     10 N           5.0090   -2.4580    4.1550 nu        1 R11     -0.720600
     11 C           6.4270   -2.2190    4.2780 c3        1 R11      0.179500
     12 N3          6.8580   -0.3620    5.9270 nc        1 R11     -0.559100
     13 C8          6.8210   -1.6770    5.6360 cd        1 R11      0.367800
     14 N9          7.0080   -2.5000    6.7790 na        1 R11     -0.155300
     15 C3A         7.1700   -1.6270    7.8630 ca        1 R11     -0.058200
     16 C7A         7.0600   -0.2860    7.3150 ca        1 R11      0.058400
     17 C10         7.3130   -1.8250    9.2440 ca        1 R11     -0.121000
     18 C11         7.2660   -0.7070   10.0640 ca        1 R11     -0.098000
     19 C12         7.1140    0.5940    9.5420 ca        1 R11     -0.155300
     20 C13         7.0640    0.8210    8.1710 ca        1 R11     -0.059000
     21 C14         7.2500   -3.9050    6.7780 c3        1 R11      0.023600
     22 C9          6.9470    1.7600   10.4790 c3        1 R11      0.084600
     23 N4          5.7610    2.5420   10.2210 na        1 R11     -0.144300
     24 C15         4.4310    2.0530   10.3750 cc        1 R11      0.462800
     25 N16         3.5310    2.7470    9.6430 nd        1 R11     -0.674100
     26 C17         4.2720    3.7240    8.9470 ca        1 R11      0.034400
     27 C18         5.6780    3.5830    9.2750 ca        1 R11     -0.072200
     28 C19         3.8640    4.7490    8.0820 ca        1 R11     -0.139000
     29 C20         4.8340    5.5800    7.5420 ca        1 R11     -0.120000
     30 C21         6.1970    5.4230    7.8490 ca        1 R11     -0.108000
     31 C22         6.6400    4.4350    8.7190 ca        1 R11     -0.105000
     32 C23         4.1150    0.9400   11.3110 c3        1 R11     -0.129400
     33 HN1        -0.2630    2.6290    5.8660 hn        1 R11      0.448400
     34 HN21        2.2630    1.4180    7.8480 hn        1 R11      0.462467
     35 HN22        2.9890    2.6010    6.9360 hn        1 R11      0.462467
     36 HC3         1.0060   -1.0930    5.9570 ha        1 R11      0.145000
     37 HC4         2.5650   -2.8530    5.2120 ha        1 R11      0.163000
     38 HC6         5.3080    0.2190    3.7660 ha        1 R11      0.163000
     39 HC7         3.7480    1.9570    4.5450 ha        1 R11      0.145000
     40 HN          4.7280   -3.3730    4.4480 hn        1 R11      0.411800
     41 H1C         6.9670   -3.1880    4.0790 h1        1 R11      0.093700
     42 H2C         6.7410   -1.4720    3.4910 h1        1 R11      0.093700
     43 H10C        7.4410   -2.8320    9.6660 ha        1 R11      0.150000
     44 H11C        7.3500   -0.8400   11.1550 ha        1 R11      0.143000
     45 H13C        7.0000    1.8410    7.7610 ha        1 R11      0.153000
     46 H141        6.4920   -4.4150    6.1250 h1        1 R11      0.060700
     47 H142        7.1610   -4.3010    7.8250 h1        1 R11      0.060700
     48 H143        8.2800   -4.1340    6.3880 h1        1 R11      0.060700
     49 HC91        7.8380    2.4480   10.3880 h1        1 R11      0.083200
     50 HC92        6.8860    1.3950   11.5450 h1        1 R11      0.083200
     51 H19C        2.7990    4.9290    7.8840 ha        1 R11      0.122000
     52 H20C        4.5340    6.3980    6.8670 ha        1 R11      0.147000
     53 H21C        6.9290    6.1110    7.3970 ha        1 R11      0.154000
     54 H22C        7.7050    4.3350    8.9710 ha        1 R11      0.154000
     55 H231        4.2930    1.2790   12.3640 hc        1 R11      0.074367
     56 H232        3.0460    0.6300   11.2130 hc        1 R11      0.074367
     57 H233        4.7750    0.0600   11.0980 hc        1 R11      0.074367
     58 H23         1.5150    2.8900    7.6500 hn        1 R11      0.462467
@<TRIPOS>BOND
     1    1    3 2   
     2    1   33 1   
     3    2    3 1   
     4    2   34 1   
     5    2   35 1   
     6    2   58 1   
     7    3    4 1   
     8    4    5 ar  
     9    4    9 ar  
    10    5    6 ar  
    11    5   36 1   
    12    6    7 ar  
    13    6   37 1   
    14    7    8 ar  
    15    7   10 1   
    16    8    9 ar  
    17    8   38 1   
    18    9   39 1   
    19   10   11 1   
    20   10   40 1   
    21   11   13 1   
    22   11   41 1   
    23   11   42 1   
    24   12   13 2   
    25   12   16 1   
    26   13   14 1   
    27   14   15 1   
    28   14   21 1   
    29   15   16 ar  
    30   15   17 ar  
    31   16   20 ar  
    32   17   18 ar  
    33   17   43 1   
    34   18   19 ar  
    35   18   44 1   
    36   19   20 ar  
    37   19   22 1   
    38   20   45 1   
    39   21   46 1   
    40   21   47 1   
    41   21   48 1   
    42   22   23 1   
    43   22   49 1   
    44   22   50 1   
    45   23   24 1   
    46   23   27 1   
    47   24   25 2   
    48   24   32 1   
    49   25   26 1   
    50   26   27 ar  
    51   26   28 ar  
    52   27   31 ar  
    53   28   29 ar  
    54   28   51 1   
    55   29   30 ar  
    56   29   52 1   
    57   30   31 ar  
    58   30   53 1   
    59   31   54 1   
    60   32   55 1   
    61   32   56 1   
    62   32   57 1   
@<TRIPOS>SUBSTRUCTURE
     1 R11         1 TEMP              0 ****  ****    0 ROOT
