@<TRIPOS>MOLECULE
R11
   58    62     1     0     0
SMALL
bcc


@<TRIPOS>ATOM
      1 N1          0.2200    1.8170    5.6100 n2        1 R11     -0.678100
      2 N2          2.0320    2.0990    7.2900 n4        1 R11     -0.879600
      3 C1          1.3650    1.5030    6.0520 ce        1 R11      0.631800
      4 C2          2.2620    0.4860    5.4620 ca        1 R11     -0.266900
      5 C3          1.9560   -0.8730    5.5880 ca        1 R11     -0.051000
      6 C4          2.8480   -1.8300    5.1290 ca        1 R11     -0.169000
      7 C5          4.0730   -1.4480    4.5210 ca        1 R11      0.197600
      8 C6          4.3050   -0.0650    4.2960 ca        1 R11     -0.169000
      9 C7          3.4160    0.8840    4.7740 ca        1 R11     -0.051000
     10 N           4.9940   -2.4210    4.1220 nh        1 R11     -0.720600
     11 C           6.4090   -2.1430    4.2060 c3        1 R11      0.179500
     12 N3          6.8370   -0.2920    5.8630 nc        1 R11     -0.559100
     13 C8          6.8280   -1.6050    5.5580 cd        1 R11      0.367800
     14 N9          7.0720   -2.4360    6.6850 na        1 R11     -0.155300
     15 C3A         7.2420   -1.5700    7.7740 ca        1 R11     -0.058200
     16 C7A         7.0770   -0.2260    7.2460 ca        1 R11      0.058400
     17 C10         7.4310   -1.7790    9.1480 ca        1 R11     -0.121000
     18 C11         7.3790   -0.6720    9.9820 ca        1 R11     -0.098000
     19 C12         7.1740    0.6300    9.4800 ca        1 R11     -0.155300
     20 C13         7.0760    0.8700    8.1140 ca        1 R11     -0.059000
     21 C14         7.3530   -3.8330    6.6600 c3        1 R11      0.023600
     22 C9          7.0020    1.7810   10.4350 c3        1 R11      0.084600
     23 N4          5.7870    2.5310   10.2220 na        1 R11     -0.144300
     24 C15         4.4780    2.0030   10.4090 cc        1 R11      0.462800
     25 N16         3.5370    2.6790    9.7130 nd        1 R11     -0.674100
     26 C17         4.2290    3.6840    9.0070 ca        1 R11      0.034400
     27 C18         5.6480    3.5800    9.2910 ca        1 R11     -0.072200
     28 C19         3.7670    4.7070    8.1660 ca        1 R11     -0.139000
     29 C20         4.6970    5.5720    7.6070 ca        1 R11     -0.120000
     30 C21         6.0720    5.4490    7.8730 ca        1 R11     -0.108000
     31 C22         6.5680    4.4650    8.7170 ca        1 R11     -0.105000
     32 C23         4.2210    0.8710   11.3410 c3        1 R11     -0.129400
     33 HN1        -0.3640    2.4960    6.0490 hn        1 R11      0.448400
     34 HN21        2.9180    2.5480    7.0210 hn        1 R11      0.462800
     35 HN22        1.4590    2.7870    7.7820 hn        1 R11      0.462800
     36 HC3         1.0110   -1.1900    6.0580 ha        1 R11      0.145000
     37 HC4         2.5950   -2.8960    5.2460 ha        1 R11      0.163000
     38 HC6         5.2070    0.2680    3.7560 ha        1 R11      0.163000
     39 HC7         3.6230    1.9520    4.6010 ha        1 R11      0.145000
     40 HN          4.7480   -3.3460    4.4120 hn        1 R11      0.411800
     41 H1C         6.6780   -1.3790    3.4180 h1        1 R11      0.093700
     42 H2C         6.9700   -3.0940    3.9800 h1        1 R11      0.093700
     43 H10C        7.6010   -2.7860    9.5530 ha        1 R11      0.150000
     44 H11C        7.4980   -0.8150   11.0680 ha        1 R11      0.143000
     45 H13C        6.9710    1.8930    7.7180 ha        1 R11      0.153000
     46 H141        6.5900   -4.3570    6.0240 h1        1 R11      0.060700
     47 H142        8.3770   -4.0280    6.2370 h1        1 R11      0.060700
     48 H143        7.3070   -4.2420    7.7050 h1        1 R11      0.060700
     49 HC91        6.9830    1.4020   11.4980 h1        1 R11      0.083200
     50 HC92        7.8700    2.4950   10.3260 h1        1 R11      0.083200
     51 H19C        2.6910    4.8590    8.0020 ha        1 R11      0.122000
     52 H20C        4.3540    6.3880    6.9520 ha        1 R11      0.147000
     53 H21C        6.7710    6.1630    7.4070 ha        1 R11      0.154000
     54 H22C        7.6430    4.3920    8.9370 ha        1 R11      0.154000
     55 H231        3.1590    0.5320   11.2710 hc        1 R11      0.074367
     56 H232        4.4200    1.2030   12.3920 hc        1 R11      0.074367
     57 H233        4.8990    0.0130   11.0980 hc        1 R11      0.074367
     58 H23         2.2530    1.3350    7.9400 hn        1 R11      0.462800
@<TRIPOS>BOND
     1    1    3 2   
     2    1   33 1   
     3    2    3 1   
     4    2   34 1   
     5    2   35 1   
     6    2   58 1   
     7    3    4 1   
     8    4    5 ar  
     9    4    9 ar  
    10    5    6 ar  
    11    5   36 1   
    12    6    7 ar  
    13    6   37 1   
    14    7    8 ar  
    15    7   10 1   
    16    8    9 ar  
    17    8   38 1   
    18    9   39 1   
    19   10   11 1   
    20   10   40 1   
    21   11   13 1   
    22   11   41 1   
    23   11   42 1   
    24   12   13 2   
    25   12   16 1   
    26   13   14 1   
    27   14   15 1   
    28   14   21 1   
    29   15   16 ar  
    30   15   17 ar  
    31   16   20 ar  
    32   17   18 ar  
    33   17   43 1   
    34   18   19 ar  
    35   18   44 1   
    36   19   20 ar  
    37   19   22 1   
    38   20   45 1   
    39   21   46 1   
    40   21   47 1   
    41   21   48 1   
    42   22   23 1   
    43   22   49 1   
    44   22   50 1   
    45   23   24 1   
    46   23   27 1   
    47   24   25 2   
    48   24   32 1   
    49   25   26 1   
    50   26   27 ar  
    51   26   28 ar  
    52   27   31 ar  
    53   28   29 ar  
    54   28   51 1   
    55   29   30 ar  
    56   29   52 1   
    57   30   31 ar  
    58   30   53 1   
    59   31   54 1   
    60   32   55 1   
    61   32   56 1   
    62   32   57 1   
@<TRIPOS>SUBSTRUCTURE
     1 R11         1 TEMP              0 ****  ****    0 ROOT
