@<TRIPOS>MOLECULE
R12
   46    45     1     0     0
SMALL
bcc


@<TRIPOS>ATOM
      1 C1          1.2700   -0.9070   -0.2960 c3        1 R12     -0.004000
      2 C2          2.2990   -0.6500    0.7700 c2        1 R12     -0.107000
      3 C3          1.9440    0.0110    1.9040 c2        1 R12     -0.108000
      4 C4          0.6030    0.5310    2.0490 c2        1 R12     -0.007000
      5 C5         -0.3330    0.4060    1.0610 c2        1 R12     -0.201000
      6 C6         -0.0310   -0.2080   -0.1890 c1        1 R12     -0.027000
      7 C7         -0.6550    2.2910    4.9180 c1        1 R12     -0.261000
      8 C8          0.2560    1.9230    5.6010 c1        1 R12     -0.132000
      9 C9          1.3670    1.4850    6.4100 c3        1 R12      0.031000
     10 C10         1.3000    2.0650    7.7920 c2        1 R12     -0.142000
     11 C11         2.3330    2.5890    8.3850 c1        1 R12     -0.194000
     12 C12         3.3720    3.1190    8.9760 c2        1 R12     -0.026000
     13 C13         4.3570    2.3910    9.7650 c2        1 R12     -0.142000
     14 C14         5.4270    3.0360   10.2660 c2        1 R12     -0.120000
     15 C15         6.5210    2.4360   11.1230 c2        1 R12      0.346000
     16 C18         4.1180    0.9420    9.9720 c3        1 R12     -0.171000
     17 C19         1.4170   -0.0350    6.4960 c3        1 R12     -0.204000
     18 C20        -1.6980    0.9630    1.2220 c3        1 R12     -0.154000
     19 C23         2.8910    0.2430    3.0210 c3        1 R12     -0.187000
     20 O1          1.7870   -0.7100   -1.6040 oh        1 R12     -0.272000
     21 O2          7.0700    1.3560   10.7650 o         1 R12     -0.564000
     22 O3          6.8440    3.0870   12.1580 o         1 R12     -0.564000
     23 H2          0.9530   -2.0010   -0.1720 h1        1 R12      0.127000
     24 H3          0.3670    1.0550    2.9960 ha        1 R12      0.153000
     25 H4         -1.4640    2.6220    4.3200 ha        1 R12      0.215000
     26 H5          2.3200    1.8400    5.9090 hc        1 R12      0.110000
     27 H6          0.3200    1.9920    8.2900 ha        1 R12      0.127000
     28 H7          3.5420    4.2100    8.8760 ha        1 R12      0.126000
     29 H8          5.5560    4.1180   10.0920 ha        1 R12      0.098000
     30 H9          5.0410    0.4510   10.3770 hc        1 R12      0.078333
     31 H10         3.2770    0.7880   10.6930 hc        1 R12      0.078333
     32 H11         3.8400    0.4500    9.0060 hc        1 R12      0.078333
     33 H12         2.2790   -0.3400    7.1380 hc        1 R12      0.078667
     34 H13         0.4780   -0.4350    6.9470 hc        1 R12      0.078667
     35 H14         1.5460   -0.4770    5.4790 hc        1 R12      0.078667
     36 H15        -1.8050    1.5140    2.1890 hc        1 R12      0.080333
     37 H16        -2.4510    0.1370    1.1950 hc        1 R12      0.080333
     38 H17        -1.9250    1.6640    0.3790 hc        1 R12      0.080333
     39 H18         2.4390    0.8900    3.8150 hc        1 R12      0.092333
     40 H19         3.8210    0.7430    2.6510 hc        1 R12      0.092333
     41 H20         3.1810   -0.7300    3.4940 hc        1 R12      0.092333
     42 H21         2.5230   -1.3270   -1.7020 ho        1 R12      0.188000
     43 C16         3.6570   -1.1800    0.5310 c3        1 R12     -0.196000
     44 H1          4.2410   -1.2760    1.4790 hc        1 R12      0.091333
     45 H23         3.6080   -2.1880    0.0470 hc        1 R12      0.091333
     46 H24         4.2100   -0.4870   -0.1550 hc        1 R12      0.091333
@<TRIPOS>BOND
     1    1    2 1   
     2    1    6 1   
     3    1   20 1   
     4    1   23 1   
     5    2    3 1   
     6    2   43 1   
     7    3    4 1   
     8    3   19 1   
     9    4    5 1   
    10    4   24 1   
    11    5    6 1   
    12    5   18 1   
    13    7    8 1   
    14    7   25 1   
    15    8    9 1   
    16    9   10 1   
    17    9   17 1   
    18    9   26 1   
    19   10   11 1   
    20   10   27 1   
    21   11   12 1   
    22   12   13 1   
    23   12   28 1   
    24   13   14 1   
    25   13   16 1   
    26   14   15 1   
    27   14   29 1   
    28   15   21 1   
    29   15   22 1   
    30   16   30 1   
    31   16   31 1   
    32   16   32 1   
    33   17   33 1   
    34   17   34 1   
    35   17   35 1   
    36   18   36 1   
    37   18   37 1   
    38   18   38 1   
    39   19   39 1   
    40   19   40 1   
    41   19   41 1   
    42   20   42 1   
    43   43   44 1   
    44   43   45 1   
    45   43   46 1   
@<TRIPOS>SUBSTRUCTURE
     1 R12         1 TEMP              0 ****  ****    0 ROOT
