@<TRIPOS>MOLECULE
R12
   46    55     1     0     0
SMALL
bcc


@<TRIPOS>ATOM
      1 C1          0.0000    0.0000    0.0000 c3        1 R12      0.399000
      2 C2          1.3900    0.0000    0.0000 c2        1 R12     -0.266000
      3 C3          2.0800    0.0000    1.1910 c3        1 R12     -0.075000
      4 C4          1.3790   -0.0010    2.4050 c3        1 R12      0.007000
      5 C5         -0.0210   -0.0000    2.3970 c2        1 R12     -0.230000
      6 C6         -0.7010    0.0050    1.2000 c2        1 R12      0.006000
      7 C7          2.1100   -0.0070    3.6780 c3        1 R12     -0.309000
      8 C8          1.7930    0.8880    4.6460 c2        1 R12     -0.267000
      9 C9          2.4930    0.8820    5.8660 c3        1 R12     -0.190000
     10 C10         2.1730    1.7820    6.8400 c3        1 R12     -0.177000
     11 C11         2.8720    1.7770    8.0570 c3        1 R12      0.026000
     12 C12         2.5520    2.6770    9.0320 c2        1 R12      0.022000
     13 C13         3.2500    2.6720   10.2480 DU        1 R12     -0.226000
     14 C14         2.9310    3.5710   11.2230 c2        1 R12     -0.110000
     15 C15         3.7440    3.6890   12.3670 c2        1 R12      0.350000
     16 C18         4.3520    1.6700   10.4790 c3        1 R12     -0.254000
     17 C19         3.5960   -0.1190    6.0970 c3        1 R12     -0.292000
     18 C20        -0.7830   -0.0020    3.6980 c3        1 R12     -0.213000
     19 C23         3.5870   -0.0000    1.1900 c3        1 R12     -0.313000
     20 O1         -0.6760    0.0020   -1.1780 oh        1 R12     -0.395000
     21 O2          4.7590    3.0240   12.4640 o         1 R12     -0.550500
     22 O3          3.3970    4.5390   13.3570 o         1 R12     -0.550500
     23 H2          0.1030   -0.1230    0.4860 ha        1 R12     -0.116000
     24 H3          1.1960   -0.0040    3.0960 DU        1 R12      0.194000
     25 H4          2.0810    0.7790    3.6080 DU        1 R12      0.120000
     26 H5          2.4750    1.5500    5.8260 DU        1 R12      0.221000
     27 H6          2.0830    1.1420    7.6710 DU        1 R12     -0.027000
     28 H7          2.1630    1.9050    8.3790 DU        1 R12      0.053000
     29 H8          2.6570    2.7780   10.5370 DU        1 R12      0.170000
     30 H9          3.6890    2.1950   11.1560 DU        1 R12      0.217000
     31 H10         4.3790    0.9660    9.6560 hc        1 R12      0.095000
     32 H11         5.3020    2.1870   10.5430 hc        1 R12      0.095000
     33 H12         3.7090    0.1290    7.1460 hc        1 R12      0.132667
     34 H13         3.3980   -0.6710    7.0080 hc        1 R12      0.132667
     35 H14         3.6410   -0.8060    5.2610 hc        1 R12      0.132667
     36 H15         0.1970    0.0730    4.1560 hc        1 R12      0.118333
     37 H16        -0.3440   -0.7270    4.3730 hc        1 R12      0.118333
     38 H17        -0.7350    0.9830    4.1460 hc        1 R12      0.118333
     39 H18         2.5920   -0.0490    1.6160 DU        1 R12      0.222000
     40 H19         3.9480    0.9900    0.9390 hc        1 R12      0.092000
     41 H20         3.9480   -0.7120    0.4570 hc        1 R12      0.092000
     42 H21         0.0870   -0.0440   -0.6250 DU        1 R12      0.327000
     43 C16         2.1430    0.0000   -1.3050 c3        1 R12     -0.106000
     44 H1          3.2250   -0.0580   -1.3280 hc        1 R12      0.069000
     45 H23         2.1800   -1.0810   -1.3710 hc        1 R12      0.069000
     46 H24         1.6190   -0.0580   -2.2520 hc        1 R12      0.069000
@<TRIPOS>BOND
     1    1    2 1   
     2    1    6 1   
     3    1   20 1   
     4    1   42 1   
     5    2    3 1   
     6    2   43 1   
     7    3    4 1   
     8    3   19 1   
     9    3   39 1   
    10    4    5 1   
    11    4    7 1   
    12    4   24 1   
    13    5    6 1   
    14    5   18 1   
    15    6   23 1   
    16    7    8 1   
    17    7   24 1   
    18    7   25 1   
    19    8    9 1   
    20    8   25 1   
    21    9   10 1   
    22    9   17 1   
    23    9   26 1   
    24   10   11 1   
    25   10   26 1   
    26   10   27 1   
    27   11   12 1   
    28   11   27 1   
    29   11   28 1   
    30   12   13 1   
    31   12   28 1   
    32   13   14 1   
    33   13   16 1   
    34   13   29 1   
    35   13   30 1   
    36   14   15 1   
    37   14   29 1   
    38   15   21 1   
    39   15   22 1   
    40   16   30 1   
    41   16   31 1   
    42   16   32 1   
    43   17   33 1   
    44   17   34 1   
    45   17   35 1   
    46   18   36 1   
    47   18   37 1   
    48   18   38 1   
    49   19   39 1   
    50   19   40 1   
    51   19   41 1   
    52   20   42 1   
    53   43   44 1   
    54   43   45 1   
    55   43   46 1   
@<TRIPOS>SUBSTRUCTURE
     1 R12         1 TEMP              0 ****  ****    0 ROOT
