@<TRIPOS>MOLECULE
R12
   46    46     1     0     0
SMALL
bcc


@<TRIPOS>ATOM
      1 C1         -5.9830   -0.8640    0.2570 ca        1 R12      0.115100
      2 C2         -5.6450    0.4700    0.5480 ca        1 R12     -0.161300
      3 C3         -4.3410    0.9080    0.2610 ca        1 R12     -0.034300
      4 C4         -3.4150    0.0480   -0.3620 ca        1 R12     -0.061800
      5 C5         -3.7880   -1.2740   -0.6720 ca        1 R12     -0.038300
      6 C6         -5.0670   -1.7290   -0.3520 ca        1 R12     -0.162000
      7 C7         -2.0950    0.5620   -0.7100 ce        1 R12     -0.163200
      8 C8         -0.9380   -0.0190   -0.3520 cf        1 R12     -0.079000
      9 C9          0.3850    0.4880   -0.6790 cf        1 R12     -0.155200
     10 C10         1.4690   -0.0770   -0.0950 ce        1 R12     -0.051000
     11 C11         2.8420    0.3080   -0.2780 ce        1 R12     -0.234000
     12 C12         3.8580   -0.3420    0.3310 cf        1 R12     -0.028000
     13 C13         5.2630   -0.0120    0.1980 cf        1 R12     -0.165200
     14 C14         6.1910   -0.7640    0.8270 ce        1 R12     -0.121200
     15 C15         7.6940   -0.6020    0.7480 c         1 R12      0.892800
     16 C18         5.6230    1.1580   -0.6400 c3        1 R12     -0.048900
     17 C19         0.4590    1.6130   -1.6410 c3        1 R12     -0.042900
     18 C20        -2.8470   -2.2120   -1.3310 c3        1 R12     -0.058800
     19 C23        -3.9380    2.2900    0.6240 c3        1 R12     -0.057800
     20 O1         -7.2270   -1.4050    0.5160 oh        1 R12     -0.510100
     21 O2          8.2070    0.5390    0.9220 o         1 R12     -0.826300
     22 O3          8.3580   -1.6560    0.5330 o         1 R12     -0.826300
     23 H2         -5.3700   -2.7610   -0.5770 ha        1 R12      0.144000
     24 H3         -2.1060    1.4980   -1.2940 ha        1 R12      0.127000
     25 H4         -0.9560   -0.9470    0.2500 ha        1 R12      0.117000
     26 H5          1.3080   -0.9210    0.6050 ha        1 R12      0.107000
     27 H6          3.0530    1.1660   -0.9360 ha        1 R12      0.130000
     28 H7          3.6340   -1.2030    0.9890 ha        1 R12      0.103000
     29 H8          5.8800   -1.6240    1.4440 ha        1 R12      0.098000
     30 H9          5.0870    2.0720   -0.2830 hc        1 R12      0.039033
     31 H10         6.7260    1.3510   -0.5850 hc        1 R12      0.039033
     32 H11         5.3360    0.9780   -1.7060 hc        1 R12      0.039033
     33 H12         0.1000    2.5570   -1.1570 hc        1 R12      0.034700
     34 H13         1.5000    1.7820   -2.0080 hc        1 R12      0.034700
     35 H14        -0.1900    1.4090   -2.5300 hc        1 R12      0.034700
     36 H15        -2.2560   -2.7650   -0.5570 hc        1 R12      0.048367
     37 H16        -3.4000   -2.9620   -1.9490 hc        1 R12      0.048367
     38 H17        -2.1290   -1.6640   -1.9900 hc        1 R12      0.048367
     39 H18        -4.3740    2.5830    1.6120 hc        1 R12      0.046700
     40 H19        -2.8260    2.3850    0.7030 hc        1 R12      0.046700
     41 H20        -4.3000    3.0110   -0.1510 hc        1 R12      0.046700
     42 H21        -7.6650   -0.8470    1.1740 ho        1 R12      0.414000
     43 C16        -6.6440    1.3870    1.1450 c3        1 R12     -0.049800
     44 H1         -6.4500    2.4460    0.8400 hc        1 R12      0.039700
     45 H23        -7.6800    1.1330    0.8080 hc        1 R12      0.039700
     46 H24        -6.6070    1.3320    2.2620 hc        1 R12      0.039700
@<TRIPOS>BOND
     1    1    2 ar  
     2    1    6 ar  
     3    1   20 1   
     4    2    3 ar  
     5    2   43 1   
     6    3    4 ar  
     7    3   19 1   
     8    4    5 ar  
     9    4    7 1   
    10    5    6 ar  
    11    5   18 1   
    12    6   23 1   
    13    7    8 2   
    14    7   24 1   
    15    8    9 1   
    16    8   25 1   
    17    9   10 2   
    18    9   17 1   
    19   10   11 1   
    20   10   26 1   
    21   11   12 2   
    22   11   27 1   
    23   12   13 1   
    24   12   28 1   
    25   13   14 2   
    26   13   16 1   
    27   14   15 1   
    28   14   29 1   
    29   15   21 1   
    30   15   22 1   
    31   16   30 1   
    32   16   31 1   
    33   16   32 1   
    34   17   33 1   
    35   17   34 1   
    36   17   35 1   
    37   18   36 1   
    38   18   37 1   
    39   18   38 1   
    40   19   39 1   
    41   19   40 1   
    42   19   41 1   
    43   20   42 1   
    44   43   44 1   
    45   43   45 1   
    46   43   46 1   
@<TRIPOS>SUBSTRUCTURE
     1 R12         1 TEMP              0 ****  ****    0 ROOT
