@<TRIPOS>MOLECULE
R12
   46    35     1     0     0
SMALL
bcc


@<TRIPOS>ATOM
      1 C1         -1.0940   -1.8860   -3.5890 c1        1 R12      0.070000
      2 C2          0.2390   -1.5080   -3.5500 c1        1 R12     -0.078500
      3 C3          0.9270   -1.5200   -2.3470 c1        1 R12     -0.078500
      4 C4          0.2820   -1.9100   -1.1830 c1        1 R12     -0.055000
      5 C5         -1.0510   -2.2880   -1.2230 c1        1 R12     -0.041000
      6 C6         -1.7390   -2.2750   -2.4260 c2        1 R12     -0.167000
      7 C7          1.0600   -2.0230    0.1090 c1        1 R12     -0.123750
      8 C8          1.0250   -1.0160    1.0080 c1        1 R12     -0.123750
      9 C9          0.2070    0.2260    0.7230 c1        1 R12     -0.160500
     10 C10        -0.0640    1.1000    1.7170 c1        1 R12     -0.091500
     11 C11         0.4510    0.8370    3.1180 c1        1 R12     -0.123750
     12 C12         0.2110    1.7280    4.1050 c1        1 R12     -0.123750
     13 C13        -0.5740    2.9890    3.8110 c1        1 R12     -0.160500
     14 C14         0.0690    4.1060    3.4070 c1        1 R12     -0.091500
     15 C15         1.5740    4.0970    3.2480 c1        1 R12      0.343000
     16 C18        -2.0760    2.9980    3.9700 c2        1 R12     -0.168333
     17 C19        -0.3070    0.4870   -0.6740 c2        1 R12     -0.168333
     18 C20        -1.7320   -2.7890    0.0340 c2        1 R12     -0.168333
     19 C23         2.3940   -1.1500   -2.3110 c3        1 R12     -0.184500
     20 O1         -1.7800   -1.9130   -4.8150 oh        1 R12     -0.268000
     21 O2          2.0900    4.3190    2.1210 o         1 R12     -0.561000
     22 O3          2.3120    3.9000    4.2500 os        1 R12     -0.570000
     23 H2         -2.6770   -2.5410   -2.4540 ha        1 R12      0.139000
     24 H3          1.5880   -2.8230    0.2930 ha        1 R12      0.131250
     25 H4          1.5270   -1.0890    1.8410 ha        1 R12      0.131250
     26 H5         -0.5920    1.9000    1.5340 ha        1 R12      0.113000
     27 H6          0.9570    0.0250    3.3080 ha        1 R12      0.131250
     28 H7          0.5430    1.5590    5.0070 ha        1 R12      0.131250
     29 H8         -0.4380    4.9200    3.2180 ha        1 R12      0.113000
     30 H9         -2.3240    3.6120    4.6920 ha        1 R12      0.071444
     31 H10        -2.4910    3.2930    3.1330 ha        1 R12      0.071444
     32 H11        -2.3870    2.0950    4.1870 ha        1 R12      0.071444
     33 H12        -0.5750    1.4260   -0.7530 ha        1 R12      0.071444
     34 H13         0.4010    0.2940   -1.3240 ha        1 R12      0.071444
     35 H14        -1.0790   -0.0890   -0.8510 ha        1 R12      0.071444
     36 H15        -1.9680   -3.7350   -0.0770 ha        1 R12      0.071444
     37 H16        -2.5460   -2.2660    0.1950 ha        1 R12      0.071444
     38 H17        -1.1250   -2.6910    0.7960 ha        1 R12      0.071444
     39 H18         2.5300   -0.3090   -2.7950 hc        1 R12      0.088500
     40 H19         2.6800   -1.0420   -1.3800 hc        1 R12      0.088500
     41 H20         2.9200   -1.8600   -2.7350 hc        1 R12      0.088500
     42 H21        -1.7090   -2.7220   -5.1750 ho        1 R12      0.214000
     43 C16         0.9670   -1.1710   -4.8330 c3        1 R12     -0.184500
     44 H1          0.3170   -1.0680   -5.5600 hc        1 R12      0.088500
     45 H23         1.5920   -1.8940   -5.0530 hc        1 R12      0.088500
     46 H24         1.4630   -0.3340   -4.7170 hc        1 R12      0.088500
@<TRIPOS>BOND
     1    1    6 1   
     2    1   20 1   
     3    2    3 1   
     4    2   43 1   
     5    3   19 1   
     6    4    5 1   
     7    5    6 1   
     8    6   23 1   
     9    7    8 1   
    10    7   24 1   
    11    8   25 1   
    12    9   10 1   
    13   10   26 1   
    14   11   12 1   
    15   11   27 1   
    16   12   28 1   
    17   13   14 1   
    18   14   29 1   
    19   15   21 1   
    20   16   30 1   
    21   16   31 1   
    22   16   32 1   
    23   17   33 1   
    24   17   34 1   
    25   17   35 1   
    26   18   36 1   
    27   18   37 1   
    28   18   38 1   
    29   19   39 1   
    30   19   40 1   
    31   19   41 1   
    32   20   42 1   
    33   43   44 1   
    34   43   45 1   
    35   43   46 1   
@<TRIPOS>SUBSTRUCTURE
     1 R12         1 TEMP              0 ****  ****    0 ROOT
