@<TRIPOS>MOLECULE
R13
   54    55     1     0     0
SMALL
bcc


@<TRIPOS>ATOM
      1 C1          1.5810   -0.4920   -4.2420 c3        1 R13     -0.003700
      2 C2          0.9280   -1.0300   -5.5160 c3        1 R13     -0.068400
      3 C3         -0.2450   -0.1930   -5.9560 c3        1 R13     -0.067400
      4 C4         -1.3650   -0.1710   -4.9150 c3        1 R13     -0.001700
      5 C5         -0.8170    0.0260   -3.5270 ca        1 R13     -0.077300
      6 C6         -1.7150    0.3460   -2.4980 ca        1 R13     -0.130000
      7 C7         -1.2810    0.5660   -1.1970 ca        1 R13     -0.132000
      8 C8          0.0840    0.4740   -0.8840 ca        1 R13     -0.018800
      9 C9          0.9780    0.1390   -1.9070 ca        1 R13     -0.131000
     10 C10         0.5470   -0.1050   -3.2180 ca        1 R13     -0.061300
     11 C11         0.5610    0.7150    0.4760 ce        1 R13     -0.130400
     12 C12        -0.1400    0.2680    1.5430 cf        1 R13     -0.066000
     13 C13         0.2500    0.4350    2.9190 cf        1 R13     -0.229000
     14 C14        -0.4970   -0.0260    3.9450 ce        1 R13     -0.034000
     15 C15        -0.1660    0.1080    5.3500 ce        1 R13     -0.162200
     16 C16        -0.9780   -0.4280    6.2850 cf        1 R13     -0.125200
     17 C17        -0.7560   -0.4350    7.7820 c         1 R13      0.892800
     18 C18        -2.1470   -1.4800   -4.9670 c3        1 R13     -0.083100
     19 C19        -2.3080    0.9750   -5.2810 c3        1 R13     -0.083100
     20 C20         2.4410    0.7250   -4.5740 c3        1 R13     -0.083600
     21 C21         2.4870   -1.5940   -3.6920 c3        1 R13     -0.083600
     22 C22         1.8410    1.4510    0.6150 c3        1 R13     -0.042900
     23 C23         1.0750    0.8420    5.7000 c3        1 R13     -0.048900
     24 O1         -0.4400    0.6360    8.3710 o         1 R13     -0.827800
     25 O2         -0.9350   -1.5420    8.3670 o         1 R13     -0.827800
     26 H21         1.6950   -1.0590   -6.3340 hc        1 R13      0.039200
     27 H22         0.5900   -2.0850   -5.3360 hc        1 R13      0.039200
     28 H31         0.0950    0.8590   -6.1500 hc        1 R13      0.038200
     29 H32        -0.6520   -0.5960   -6.9210 hc        1 R13      0.038200
     30 H6         -2.7900    0.4250   -2.7210 ha        1 R13      0.124000
     31 H7         -2.0050    0.8220   -0.4090 ha        1 R13      0.137000
     32 H9          2.0500    0.0580   -1.6640 ha        1 R13      0.133000
     33 H12        -1.0840   -0.2820    1.3740 ha        1 R13      0.112000
     34 H13         1.2010    0.9590    3.1110 ha        1 R13      0.128000
     35 H14        -1.4450   -0.5550    3.7300 ha        1 R13      0.103000
     36 H16        -1.8930   -0.9640    5.9800 ha        1 R13      0.098000
     37 H181       -2.9640   -1.4690   -4.2050 hc        1 R13      0.033867
     38 H182       -2.6020   -1.6150   -5.9780 hc        1 R13      0.033867
     39 H183       -1.4770   -2.3460   -4.7550 hc        1 R13      0.033867
     40 H191       -3.2600    0.9090   -4.7030 hc        1 R13      0.033867
     41 H192       -1.8260    1.9580   -5.0650 hc        1 R13      0.033867
     42 H193       -2.5560    0.9280   -6.3690 hc        1 R13      0.033867
     43 H201        2.9140    1.1240   -3.6450 hc        1 R13      0.035033
     44 H202        3.2450    0.4400   -5.2930 hc        1 R13      0.035033
     45 H203        1.8190    1.5320   -5.0300 hc        1 R13      0.035033
     46 H211        3.1680   -1.1940   -2.9040 hc        1 R13      0.035033
     47 H212        1.8740   -2.4150   -3.2510 hc        1 R13      0.035033
     48 H213        3.1140   -2.0140   -4.5150 hc        1 R13      0.035033
     49 H221        2.6650    0.7480    0.8950 hc        1 R13      0.036033
     50 H222        2.1230    1.9620   -0.3390 hc        1 R13      0.036033
     51 H223        1.7620    2.2290    1.4150 hc        1 R13      0.036033
     52 H231        1.1650    0.9460    6.8130 hc        1 R13      0.038700
     53 H232        1.9720    0.3010    5.3090 hc        1 R13      0.038700
     54 H233        1.0610    1.8660    5.2500 hc        1 R13      0.038700
@<TRIPOS>BOND
     1    1    2 1   
     2    1   10 1   
     3    1   20 1   
     4    1   21 1   
     5    2    3 1   
     6    2   26 1   
     7    2   27 1   
     8    3    4 1   
     9    3   28 1   
    10    3   29 1   
    11    4    5 1   
    12    4   18 1   
    13    4   19 1   
    14    5    6 ar  
    15    5   10 ar  
    16    6    7 ar  
    17    6   30 1   
    18    7    8 ar  
    19    7   31 1   
    20    8    9 ar  
    21    8   11 1   
    22    9   10 ar  
    23    9   32 1   
    24   11   12 2   
    25   11   22 1   
    26   12   13 1   
    27   12   33 1   
    28   13   14 2   
    29   13   34 1   
    30   14   15 1   
    31   14   35 1   
    32   15   16 2   
    33   15   23 1   
    34   16   17 1   
    35   16   36 1   
    36   17   24 1   
    37   17   25 1   
    38   18   37 1   
    39   18   38 1   
    40   18   39 1   
    41   19   40 1   
    42   19   41 1   
    43   19   42 1   
    44   20   43 1   
    45   20   44 1   
    46   20   45 1   
    47   21   46 1   
    48   21   47 1   
    49   21   48 1   
    50   22   49 1   
    51   22   50 1   
    52   22   51 1   
    53   23   52 1   
    54   23   53 1   
    55   23   54 1   
@<TRIPOS>SUBSTRUCTURE
     1 R13         1 TEMP              0 ****  ****    0 ROOT
