@<TRIPOS>MOLECULE
R13
   54    54     1     0     0
SMALL
bcc


@<TRIPOS>ATOM
      1 C1          0.0480   -0.4530    0.3820 c3        1 R13     -0.001700
      2 C2          1.5580   -0.3440    0.6010 c3        1 R13     -0.067400
      3 C3          1.9010    0.3310    1.9040 c3        1 R13     -0.067400
      4 C4          1.3850    1.7690    1.9660 c3        1 R13      0.000300
      5 C5         -0.0240    1.8660    1.4480 ca        1 R13     -0.084300
      6 C6         -0.7410    3.0490    1.6890 ca        1 R13     -0.127000
      7 C7         -2.0520    3.2030    1.2660 ca        1 R13     -0.127000
      8 C8         -2.7040    2.1640    0.5780 ca        1 R13     -0.002800
      9 C9         -1.9820    0.9920    0.3210 ca        1 R13     -0.144000
     10 C10        -0.6500    0.8360    0.7300 ca        1 R13     -0.064300
     11 C11        -4.0870    2.3190    0.1480 ce        1 R13     -0.147500
     12 C12        -4.7700    3.4280    0.3880 c1        1 R13     -0.011900
     13 C13        -5.4290    4.4740    0.6090 c1        1 R13     -0.131900
     14 C14        -6.0850    5.5900    0.8620 ce        1 R13     -0.011100
     15 C15        -7.4580    5.8460    0.4770 ce        1 R13     -0.157200
     16 C16        -8.0860    6.9970    0.7930 cf        1 R13     -0.127200
     17 C17        -7.5480    8.1600    1.5980 c         1 R13      0.889800
     18 C18         2.2900    2.6800    1.1400 c3        1 R13     -0.083100
     19 C19         1.4470    2.2160    3.4260 c3        1 R13     -0.083100
     20 C20        -0.5190   -1.5810    1.2390 c3        1 R13     -0.083100
     21 C21        -0.1740   -0.7990   -1.0900 c3        1 R13     -0.083100
     22 C22        -4.7340    1.1930   -0.5760 c3        1 R13     -0.030900
     23 C23        -8.1520    4.7760   -0.2880 c3        1 R13     -0.048900
     24 O1         -8.4100    8.8880    2.1670 o         1 R13     -0.825300
     25 O2         -6.3010    8.3640    1.6620 o         1 R13     -0.825300
     26 H21         2.0100    0.2320   -0.2500 hc        1 R13      0.037200
     27 H22         2.0040   -1.3730    0.5830 hc        1 R13      0.037200
     28 H31         3.0150    0.3360    2.0420 hc        1 R13      0.037200
     29 H32         1.4620   -0.2530    2.7560 hc        1 R13      0.037200
     30 H6         -0.2540    3.8780    2.2260 ha        1 R13      0.126000
     31 H7         -2.5940    4.1410    1.4690 ha        1 R13      0.151000
     32 H9         -2.4730    0.1660   -0.2160 ha        1 R13      0.126000
     33 H12        -4.3490    7.8500    2.6570 ha        1 R13      0.000000
     34 H13        -3.7720    7.5360    2.8290 ha        1 R13      0.000000
     35 H14        -5.5730    6.4260    1.4000 ha        1 R13      0.211000
     36 H16        -9.1330    7.1450    0.4750 ha        1 R13      0.109000
     37 H181        2.3120    2.3500    0.0750 hc        1 R13      0.033867
     38 H182        1.9120    3.7300    1.1770 hc        1 R13      0.033867
     39 H183        3.3300    2.6580    1.5460 hc        1 R13      0.033867
     40 H191        0.6550    1.7020    4.0220 hc        1 R13      0.033867
     41 H192        1.3000    3.3180    3.5120 hc        1 R13      0.033867
     42 H193        2.4450    1.9610    3.8580 hc        1 R13      0.033867
     43 H201       -0.3260   -1.3870    2.3200 hc        1 R13      0.033367
     44 H202       -0.0460   -2.5520    0.9570 hc        1 R13      0.033367
     45 H203       -1.6230   -1.6610    1.0850 hc        1 R13      0.033367
     46 H211       -1.2260   -1.1270   -1.2690 hc        1 R13      0.033367
     47 H212        0.5070   -1.6320   -1.3910 hc        1 R13      0.033367
     48 H213        0.0360    0.0890   -1.7330 hc        1 R13      0.033367
     49 H221       -4.7420    0.2740    0.0620 hc        1 R13      0.030033
     50 H222       -5.7890    1.4440   -0.8440 hc        1 R13      0.030033
     51 H223       -4.1760    0.9650   -1.5180 hc        1 R13      0.030033
     52 H231       -9.2010    5.0680   -0.5390 hc        1 R13      0.026700
     53 H232       -8.1820    3.8300    0.3080 hc        1 R13      0.026700
     54 H233       -7.6060    4.5660   -1.2420 hc        1 R13      0.026700
@<TRIPOS>BOND
     1    1    2 1   
     2    1   10 1   
     3    1   20 1   
     4    1   21 1   
     5    2    3 1   
     6    2   26 1   
     7    2   27 1   
     8    3    4 1   
     9    3   28 1   
    10    3   29 1   
    11    4    5 1   
    12    4   18 1   
    13    4   19 1   
    14    5    6 ar  
    15    5   10 ar  
    16    6    7 ar  
    17    6   30 1   
    18    7    8 ar  
    19    7   31 1   
    20    8    9 ar  
    21    8   11 1   
    22    9   10 ar  
    23    9   32 1   
    24   11   12 2   
    25   11   22 1   
    26   12   13 2   
    27   13   14 2   
    28   14   15 1   
    29   14   35 1   
    30   15   16 2   
    31   15   23 1   
    32   16   17 1   
    33   16   36 1   
    34   17   24 1   
    35   17   25 1   
    36   18   37 1   
    37   18   38 1   
    38   18   39 1   
    39   19   40 1   
    40   19   41 1   
    41   19   42 1   
    42   20   43 1   
    43   20   44 1   
    44   20   45 1   
    45   21   46 1   
    46   21   47 1   
    47   21   48 1   
    48   22   49 1   
    49   22   50 1   
    50   22   51 1   
    51   23   52 1   
    52   23   53 1   
    53   23   54 1   
    54   33   34 1   
@<TRIPOS>SUBSTRUCTURE
     1 R13         1 TEMP              0 ****  ****    0 ROOT
