@<TRIPOS>MOLECULE
R13
   54    54     1     0     0
SMALL
bcc


@<TRIPOS>ATOM
      1 C1          0.0770   -0.4180    0.3250 c3        1 R13     -0.001700
      2 C2          1.5880   -0.2880    0.5240 c3        1 R13     -0.067400
      3 C3          1.9390    0.3660    1.8360 c3        1 R13     -0.067400
      4 C4          1.3990    1.7930    1.9350 c3        1 R13      0.000300
      5 C5         -0.0190    1.8760    1.4410 ca        1 R13     -0.084300
      6 C6         -0.7520    3.0410    1.7190 ca        1 R13     -0.127000
      7 C7         -2.0730    3.1810    1.3180 ca        1 R13     -0.127000
      8 C8         -2.7170    2.1450    0.6180 ca        1 R13     -0.002800
      9 C9         -1.9790    0.9910    0.3260 ca        1 R13     -0.144000
     10 C10        -0.6380    0.8500    0.7110 ca        1 R13     -0.064300
     11 C11        -4.1090    2.2840    0.2130 ce        1 R13     -0.147500
     12 C12        -4.8000    3.3850    0.4670 c1        1 R13     -0.011900
     13 C13        -5.4670    4.4230    0.7000 c1        1 R13     -0.131900
     14 C14        -6.1310    5.5310    0.9650 ce        1 R13     -0.011100
     15 C15        -7.5150    5.7700    0.6100 ce        1 R13     -0.157200
     16 C16        -8.1310    6.9380    0.8800 cf        1 R13     -0.127200
     17 C17        -7.5400    8.1760    1.5200 c         1 R13      0.889800
     18 C18         2.2760    2.7360    1.1170 c3        1 R13     -0.083100
     19 C19         1.4760    2.2090    3.4040 c3        1 R13     -0.083100
     20 C20        -0.4580   -1.5740    1.1660 c3        1 R13     -0.083100
     21 C21        -0.1620   -0.7370   -1.1510 c3        1 R13     -0.083100
     22 C22        -4.7550    1.1530   -0.5020 c3        1 R13     -0.030900
     23 C23        -8.2350    4.6600   -0.0710 c3        1 R13     -0.048900
     24 O1         -8.1140    9.2690    1.2510 o         1 R13     -0.825300
     25 O2         -6.5370    8.0770    2.2840 o         1 R13     -0.825300
     26 H21         2.0170    0.3140   -0.3210 hc        1 R13      0.037200
     27 H22         2.0510   -1.3090    0.4770 hc        1 R13      0.037200
     28 H31         3.0550    0.3880    1.9570 hc        1 R13      0.036700
     29 H32         1.5230   -0.2430    2.6820 hc        1 R13      0.036700
     30 H6         -0.2720    3.8670    2.2660 ha        1 R13      0.126000
     31 H7         -2.6270    4.1040    1.5500 ha        1 R13      0.151000
     32 H9         -2.4630    0.1690   -0.2220 ha        1 R13      0.126000
     33 H12        -3.6620    7.6950    2.4550 ha        1 R13      0.000000
     34 H13        -4.2970    7.9350    2.4490 ha        1 R13      0.000000
     35 H14        -5.6250    6.3650    1.5130 ha        1 R13      0.211000
     36 H16        -9.1890    7.0710    0.5910 ha        1 R13      0.109000
     37 H181        1.8800    3.7790    1.1810 hc        1 R13      0.033867
     38 H182        2.2870    2.4290    0.0440 hc        1 R13      0.033867
     39 H183        3.3220    2.7240    1.5060 hc        1 R13      0.033867
     40 H191        2.4850    1.9640    3.8160 hc        1 R13      0.033867
     41 H192        1.3110    3.3070    3.5160 hc        1 R13      0.033867
     42 H193        0.7020    1.6700    4.0010 hc        1 R13      0.033867
     43 H201        0.0280   -2.5310    0.8570 hc        1 R13      0.033367
     44 H202       -0.2510   -1.4000    2.2490 hc        1 R13      0.033367
     45 H203       -1.5620   -1.6700    1.0280 hc        1 R13      0.033367
     46 H211        0.5280   -1.5510   -1.4790 hc        1 R13      0.033367
     47 H212       -1.2100   -1.0800   -1.3200 hc        1 R13      0.033367
     48 H213        0.0230    0.1670   -1.7770 hc        1 R13      0.033367
     49 H221       -4.2190    0.9420   -1.4620 hc        1 R13      0.030033
     50 H222       -4.7290    0.2290    0.1270 hc        1 R13      0.030033
     51 H223       -5.8210    1.3860   -0.7400 hc        1 R13      0.030033
     52 H231       -9.2920    4.9390   -0.3000 hc        1 R13      0.026700
     53 H232       -8.2420    3.7480    0.5760 hc        1 R13      0.026700
     54 H233       -7.7230    4.3990   -1.0310 hc        1 R13      0.026700
@<TRIPOS>BOND
     1    1    2 1   
     2    1   10 1   
     3    1   20 1   
     4    1   21 1   
     5    2    3 1   
     6    2   26 1   
     7    2   27 1   
     8    3    4 1   
     9    3   28 1   
    10    3   29 1   
    11    4    5 1   
    12    4   18 1   
    13    4   19 1   
    14    5    6 ar  
    15    5   10 ar  
    16    6    7 ar  
    17    6   30 1   
    18    7    8 ar  
    19    7   31 1   
    20    8    9 ar  
    21    8   11 1   
    22    9   10 ar  
    23    9   32 1   
    24   11   12 2   
    25   11   22 1   
    26   12   13 2   
    27   13   14 2   
    28   14   15 1   
    29   14   35 1   
    30   15   16 2   
    31   15   23 1   
    32   16   17 1   
    33   16   36 1   
    34   17   24 1   
    35   17   25 1   
    36   18   37 1   
    37   18   38 1   
    38   18   39 1   
    39   19   40 1   
    40   19   41 1   
    41   19   42 1   
    42   20   43 1   
    43   20   44 1   
    44   20   45 1   
    45   21   46 1   
    46   21   47 1   
    47   21   48 1   
    48   22   49 1   
    49   22   50 1   
    50   22   51 1   
    51   23   52 1   
    52   23   53 1   
    53   23   54 1   
    54   33   34 1   
@<TRIPOS>SUBSTRUCTURE
     1 R13         1 TEMP              0 ****  ****    0 ROOT
