@<TRIPOS>MOLECULE
R14
  103   109     1     0     0
SMALL
bcc


@<TRIPOS>ATOM
      1 CAA       -11.8700    6.0270    2.6100 c3        1 R14     -0.094600
      2 CAB       -13.6390    6.5850   -1.2340 c3        1 R14     -0.094600
      3 CAC        13.8950    6.3830   -1.6330 c3        1 R14     -0.094600
      4 CAD        11.2490    6.6600    1.7060 c3        1 R14     -0.094600
      5 OAE        -9.4860    2.0370    0.1450 o         1 R14     -0.581100
      6 OAF         9.4560    2.1140   -0.3080 o         1 R14     -0.581100
      7 CAG       -10.4920   -3.0990   -0.1810 ca        1 R14     -0.105000
      8 CAH        10.4980   -3.0050    0.2410 ca        1 R14     -0.105000
      9 CAI       -11.1710   -1.8870   -0.1600 ca        1 R14     -0.180500
     10 CAJ        11.1680   -1.7900    0.1540 ca        1 R14     -0.180500
     11 CAK        -9.1110   -3.1400   -0.3350 ca        1 R14     -0.152000
     12 CAL         9.1170   -3.0460    0.3980 ca        1 R14     -0.152000
     13 CAM        -3.5950   -4.6860   -0.4170 ca        1 R14     -0.138000
     14 CAN         3.6150   -4.6260    0.5930 ca        1 R14     -0.138000
     15 CAO        -2.4400   -5.3810   -0.2330 ca        1 R14     -0.092000
     16 CAP         2.4650   -5.3400    0.4540 ca        1 R14     -0.092000
     17 CAQ        -9.0570   -0.7140   -0.4580 ca        1 R14     -0.120500
     18 CAR         9.0480   -0.6160    0.3910 ca        1 R14     -0.120500
     19 CAS        -2.3890   -2.5570   -0.3090 ca        1 R14     -0.161300
     20 CAT         2.3920   -2.5170    0.3510 ca        1 R14     -0.161300
     21 CAU         0.0130   -5.4040    0.1120 ca        1 R14     -0.053000
     22 CAV        -6.0680   -3.0210   -0.2380 cc        1 R14     -0.205600
     23 CAW         6.0750   -2.9560    0.3070 cc        1 R14     -0.205600
     24 CAX       -11.6390    6.4120    1.1570 c3        1 R14      0.175050
     25 CAY       -12.2910    5.8890   -1.1240 c3        1 R14      0.175050
     26 CAZ        12.5470    5.6800   -1.6850 c3        1 R14      0.175050
     27 CBA        11.3800    6.6910    0.1910 c3        1 R14      0.175050
     28 CBB       -11.7260    2.9240   -0.1010 c3        1 R14     -0.156400
     29 CBC        11.6980    3.0130   -0.1500 c3        1 R14     -0.156400
     30 CBD       -11.0480    4.2680    0.1780 c3        1 R14      0.178800
     31 CBE        10.9990    4.3580   -0.3710 c3        1 R14      0.178800
     32 NBF        -6.1540   -0.9910   -1.2460 nd        1 R14     -0.329000
     33 NBG         6.1450   -0.8670    1.1860 nd        1 R14     -0.329000
     34 NBH        -4.9380   -1.3340   -1.2340 nc        1 R14     -0.144800
     35 NBI         4.9320   -1.2190    1.1970 nc        1 R14     -0.144800
     36 NBJ         0.0020   -2.5710    0.0220 nb        1 R14     -0.644000
     37 NBK       -11.1850    0.5320   -0.2970 n         1 R14     -0.479100
     38 CBM       -10.6900    1.8120   -0.0670 c         1 R14      0.662100
     39 CBN        10.6640    1.9000   -0.1130 c         1 R14      0.662100
     40 CBO       -10.4590   -0.6700   -0.2980 ca        1 R14      0.070100
     41 CBP        10.4490   -0.5730    0.2270 ca        1 R14      0.070100
     42 CBQ        -8.3910   -1.9440   -0.4740 ca        1 R14     -0.083000
     43 CBR         8.3900   -1.8490    0.4740 ca        1 R14     -0.083000
     44 CBS        -3.5750   -3.2440   -0.4510 ca        1 R14      0.028800
     45 CBT         3.5830   -3.1850    0.5360 ca        1 R14      0.028800
     46 CBU        -6.9540   -2.0000   -0.6330 cd        1 R14      0.321800
     47 CBV         6.9530   -1.9060    0.6370 cd        1 R14      0.321800
     48 CBW        -1.1880   -4.7120   -0.0770 ca        1 R14     -0.160300
     49 CBX         1.2080   -4.6920    0.2560 ca        1 R14     -0.160300
     50 CBY        -1.1490   -3.2730   -0.1170 ca        1 R14      0.432600
     51 CBZ         1.1580   -3.2540    0.2050 ca        1 R14      0.432600
     52 NCA       -12.0010    5.3690    0.2060 n3        1 R14     -0.750600
     53 NCB        11.9380    5.4710   -0.3780 n3        1 R14     -0.750600
     54 NCC        -4.8030   -2.5560   -0.6400 na        1 R14      0.105300
     55 NCD         4.8070   -2.4770    0.6800 na        1 R14      0.105300
     56 HAA       -11.6500    6.9140    3.2520 hc        1 R14      0.038283
     57 HAAA      -12.9280    5.7160    2.7800 hc        1 R14      0.038283
     58 HAAB      -11.2020    5.1900    2.9250 hc        1 R14      0.038283
     59 HAB       -13.8210    6.8430   -2.3050 hc        1 R14      0.038283
     60 HABA      -14.4640    5.9220   -0.8800 hc        1 R14      0.038283
     61 HABB      -13.6650    7.5270   -0.6360 hc        1 R14      0.038283
     62 HAC        14.3320    6.3910   -2.6600 hc        1 R14      0.038283
     63 HACA       13.7930    7.4390   -1.2860 hc        1 R14      0.038283
     64 HACB       14.5980    5.8540   -0.9470 hc        1 R14      0.038283
     65 HAD        10.5080    5.8950    2.0390 hc        1 R14      0.038283
     66 HADA       12.2290    6.4360    2.1890 hc        1 R14      0.038283
     67 HADB       10.8990    7.6630    2.0530 hc        1 R14      0.038283
     68 HAG       -11.0590   -4.0370   -0.0750 ha        1 R14      0.132000
     69 HAH        11.0700   -3.9430    0.1840 ha        1 R14      0.132000
     70 HAI       -12.2640   -1.8850   -0.0380 ha        1 R14      0.129000
     71 HAJ        12.2620   -1.7890    0.0310 ha        1 R14      0.129000
     72 HAK        -8.5850   -4.1050   -0.3550 ha        1 R14      0.128000
     73 HAL         8.5980   -4.0120    0.4700 ha        1 R14      0.128000
     74 HAM        -4.5500   -5.2180   -0.5520 ha        1 R14      0.145000
     75 HAN         4.5740   -5.1410    0.7610 ha        1 R14      0.145000
     76 HAO        -2.4460   -6.4830   -0.2070 ha        1 R14      0.142000
     77 HAP         2.4800   -6.4410    0.4980 ha        1 R14      0.142000
     78 HAQ        -8.4790    0.2220   -0.5640 ha        1 R14      0.189000
     79 HAR         8.4640    0.3190    0.4490 ha        1 R14      0.189000
     80 HAS        -2.3480   -1.4530   -0.3420 ha        1 R14      0.183000
     81 HAT         2.3420   -1.4140    0.3140 ha        1 R14      0.183000
     82 HAU         0.0170   -6.5050    0.1470 ha        1 R14      0.143000
     83 HAV        -6.2250   -3.9640    0.2800 h4        1 R14      0.194000
     84 HAW         6.2390   -3.9280   -0.1510 h4        1 R14      0.194000
     85 HAX       -12.2710    7.3190    0.9340 h1        1 R14      0.029825
     86 HAXA      -10.5580    6.7210    1.0340 h1        1 R14      0.029825
     87 HAY       -12.2900    5.0210   -1.8450 h1        1 R14      0.029825
     88 HAYA      -11.4880    6.6060   -1.4680 h1        1 R14      0.029825
     89 HAZ        11.8620    6.2650   -2.3680 h1        1 R14      0.029825
     90 HAZA       12.7030    4.6690   -2.1610 h1        1 R14      0.029825
     91 HBA        10.3670    6.9240   -0.2530 h1        1 R14      0.029825
     92 HBAA       12.0650    7.5440   -0.0800 h1        1 R14      0.029825
     93 HBB       -12.5150    2.7250    0.6710 hc        1 R14      0.071200
     94 HBBA      -12.2210    2.9360   -1.1070 hc        1 R14      0.071200
     95 HBC        12.4280    2.8100   -0.9780 hc        1 R14      0.071200
     96 HBCA       12.2680    3.0330    0.8160 hc        1 R14      0.071200
     97 HBD       -10.5290    4.1910    1.1760 h1        1 R14      0.053700
     98 HBDA      -10.2420    4.4250   -0.5970 h1        1 R14      0.053700
     99 HBE        10.4090    4.2950   -1.3320 h1        1 R14      0.053700
    100 HBEA       10.2520    4.4970    0.4610 h1        1 R14      0.053700
    101 HNBK      -12.1720    0.4360   -0.3750 hn        1 R14      0.314500
    102 HNBL       12.1560    0.5440    0.2360 hn        1 R14      0.314500
    103 NBL        11.1680    0.6310    0.1560 n         1 R14     -0.479100
@<TRIPOS>BOND
     1    1   24 1   
     2    1   56 1   
     3    1   57 1   
     4    1   58 1   
     5    2   25 1   
     6    2   59 1   
     7    2   60 1   
     8    2   61 1   
     9    3   26 1   
    10    3   62 1   
    11    3   63 1   
    12    3   64 1   
    13    4   27 1   
    14    4   65 1   
    15    4   66 1   
    16    4   67 1   
    17    5   38 2   
    18    6   39 2   
    19    7    9 ar  
    20    7   11 ar  
    21    7   68 1   
    22    8   10 ar  
    23    8   12 ar  
    24    8   69 1   
    25    9   40 ar  
    26    9   70 1   
    27   10   41 ar  
    28   10   71 1   
    29   11   42 ar  
    30   11   72 1   
    31   12   43 ar  
    32   12   73 1   
    33   13   15 ar  
    34   13   44 ar  
    35   13   74 1   
    36   14   16 ar  
    37   14   45 ar  
    38   14   75 1   
    39   15   48 ar  
    40   15   76 1   
    41   16   49 ar  
    42   16   77 1   
    43   17   40 ar  
    44   17   42 ar  
    45   17   78 1   
    46   18   41 ar  
    47   18   43 ar  
    48   18   79 1   
    49   19   44 ar  
    50   19   50 ar  
    51   19   80 1   
    52   20   45 ar  
    53   20   51 ar  
    54   20   81 1   
    55   21   48 ar  
    56   21   49 ar  
    57   21   82 1   
    58   22   46 2   
    59   22   54 1   
    60   22   83 1   
    61   23   47 2   
    62   23   55 1   
    63   23   84 1   
    64   24   52 1   
    65   24   85 1   
    66   24   86 1   
    67   25   52 1   
    68   25   87 1   
    69   25   88 1   
    70   26   53 1   
    71   26   89 1   
    72   26   90 1   
    73   27   53 1   
    74   27   91 1   
    75   27   92 1   
    76   28   30 1   
    77   28   38 1   
    78   28   93 1   
    79   28   94 1   
    80   29   31 1   
    81   29   39 1   
    82   29   95 1   
    83   29   96 1   
    84   30   52 1   
    85   30   97 1   
    86   30   98 1   
    87   31   53 1   
    88   31   99 1   
    89   31  100 1   
    90   32   34 2   
    91   32   46 1   
    92   33   35 2   
    93   33   47 1   
    94   34   54 1   
    95   35   55 1   
    96   36   50 ar  
    97   36   51 ar  
    98   37   38 1   
    99   37   40 1   
   100   37  101 1   
   101   39  103 1   
   102   41  103 1   
   103   42   46 1   
   104   43   47 1   
   105   44   54 1   
   106   45   55 1   
   107   48   50 ar  
   108   49   51 ar  
   109  102  103 1   
@<TRIPOS>SUBSTRUCTURE
     1 R14         1 TEMP              0 ****  ****    0 ROOT
