@<TRIPOS>MOLECULE
R14
  107   109     1     0     0
SMALL
bcc


@<TRIPOS>ATOM
      1 CAA        -1.7420   -0.7410    3.9480 c3        1 R14     -0.259500
      2 CAB         0.5160   -3.5940    6.2980 c3        1 R14     -0.259500
      3 CAC         8.5080   26.1480   -9.0610 c3        1 R14     -0.266000
      4 CAD         5.2700   27.5800   -7.9050 c3        1 R14     -0.245000
      5 OAE         3.0730    1.5850    3.5210 o         1 R14     -0.142000
      6 OAF         4.3470   23.7030   -4.8210 o         1 R14     -0.337000
      7 CAG         1.1970    2.8770    7.3910 c1        1 R14      0.320000
      8 CAH         5.9610   23.6150   -0.5840 c1        1 R14      0.386000
      9 CAI         2.4890    3.1430    7.3220 c2        1 R14     -0.508000
     10 CAJ         6.0870   22.5690   -1.3850 c2        1 R14     -0.603000
     11 CAK         2.7590    6.1860    7.2740 c2        1 R14     -0.108000
     12 CAL         2.6610   21.2680   -1.5550 c2        1 R14      0.107000
     13 CAM         0.9020   10.6920    4.3360 c2        1 R14     -0.489000
     14 CAN         0.7580   16.1340   -0.5160 c1        1 R14     -0.074000
     15 CAO         0.2560   10.2770    5.4100 c1        1 R14      0.276000
     16 CAP        -0.1790   15.0850   -0.2120 c3        1 R14     -0.164000
     17 CAQ         3.4630    4.6050    5.5210 c2        1 R14      0.065000
     18 CAR         4.8810   20.8500   -2.4890 c2        1 R14      0.220000
     19 CAS         1.9130   10.4110    2.0950 c2        1 R14     -0.099000
     20 CAT         2.7030   14.6810   -0.0760 c2        1 R14      0.043000
     21 CAU        -0.4430   12.7620    0.6450 c1        1 R14     -0.043000
     22 CAV         2.2630    8.1970    5.0520 c2        1 R14     -0.075000
     23 CAW         2.4570   18.2440   -1.1880 c2        1 R14     -0.015000
     24 CAX        -0.6440   -1.7800    3.9470 c3        1 R14     -0.123500
     25 CAY         1.2240   -2.7400    5.2670 c3        1 R14     -0.123500
     26 CAZ         7.7160   25.2860   -8.1560 c2        1 R14      0.115000
     27 CBA         5.5640   26.3140   -8.6880 c3        1 R14     -0.086000
     28 CBB         2.1980    0.3200    5.4140 c3        1 R14     -0.209000
     29 CBC         6.5030   23.8400   -5.9200 c3        1 R14     -0.204000
     30 CBD         1.3830   -0.4380    4.3600 c3        1 R14     -0.135000
     31 CBE         5.6930   24.4640   -7.0570 c3        1 R14     -0.092000
     32 NBF         2.5720    6.5370    3.5350 n2        1 R14     -0.097000
     33 NBG         4.7260   18.1570   -1.3310 n2        1 R14     -0.076000
     34 NBH         2.2550    7.5700    2.8810 n2        1 R14      0.055000
     35 NBI         4.3400   17.0080   -0.9740 n2        1 R14      0.043000
     36 NBJ         2.2750   12.5820    1.0330 n2        1 R14     -0.090000
     37 NBK         3.9470    2.1970    5.5890 n4        1 R14     -0.047000
     38 CBM         3.0400    1.3600    4.7210 c2        1 R14      0.251000
     39 CBN         5.5460   23.3720   -4.8330 c2        1 R14      0.313000
     40 CBO         3.2700    3.4030    6.1230 c2        1 R14     -0.148000
     41 CBP         5.3020   22.2910   -2.6360 c3        1 R14      0.085000
     42 CBQ         2.9170    5.8760    5.9720 c2        1 R14     -0.041000
     43 CBR         3.7080   20.4180   -1.8500 c2        1 R14     -0.082000
     44 CBS         1.6290    9.9270    3.3320 c2        1 R14      0.140000
     45 CBT         2.1670   15.8800   -0.4770 c2        1 R14     -0.071000
     46 CBU         2.6040    6.8330    4.9290 c2        1 R14     -0.168000
     47 CBV         3.6020   19.0190   -1.4920 c2        1 R14     -0.259000
     48 CBW         0.0030   11.9800    1.6640 c2        1 R14     -0.193000
     49 CBX         0.3660   13.6560   -0.1600 c3        1 R14     -0.132000
     50 CBY         1.4020   11.6920    1.6080 c2        1 R14      0.016000
     51 CBZ         1.8180   13.5830    0.2940 c2        1 R14     -0.061000
     52 NCA         0.4720   -1.4790    4.9220 n4        1 R14     -0.015000
     53 NCB         6.4200   25.3500   -7.9690 n3        1 R14     -0.081000
     54 NCC         2.0490    8.6180    3.7300 na        1 R14     -0.128000
     55 NCD         2.9800   16.9900   -0.8660 na        1 R14     -0.082000
     56 HAA        -2.5430   -1.0930    3.2440 hc        1 R14      0.127000
     57 HAAA       -2.2050   -0.6200    4.9580 hc        1 R14      0.127000
     58 HAAB       -1.3860    0.2550    3.5870 hc        1 R14      0.127000
     59 HAB        -0.4670   -3.9770    5.9290 hc        1 R14      0.127000
     60 HABA        0.3540   -3.0440    7.2580 hc        1 R14      0.127000
     61 HABB        1.1680   -4.4820    6.5120 hc        1 R14      0.127000
     62 HAC         8.3950   25.7920  -10.1230 hc        1 R14      0.159667
     63 HACA        9.5950   26.0840   -8.7890 hc        1 R14      0.159667
     64 HACB        8.1940   27.2240   -9.0200 hc        1 R14      0.159667
     65 HAD         6.2030   28.1460   -7.6680 hc        1 R14      0.118333
     66 HADA        4.6160   28.2310   -8.5410 hc        1 R14      0.118333
     67 HADB        4.7240   27.3610   -6.9540 hc        1 R14      0.118333
     68 HAG         3.0170    5.4950    8.0870 ha        1 R14      0.144500
     69 HAH         2.6450   22.3340   -1.8370 ha        1 R14      0.174000
     70 HAI         3.0390    3.2370    8.2920 ha        1 R14      0.232000
     71 HAJ         6.8900   21.8410   -1.1250 ha        1 R14      0.223000
     72 HAK         2.3850    7.1700    7.5970 ha        1 R14      0.144500
     73 HAL         1.7550   20.8920   -1.0420 ha        1 R14      0.174000
     74 HAM         0.8930   11.7950    4.1530 ha        1 R14      0.228000
     75 HAN        -1.0250   15.1250   -0.9620 hc        1 R14      0.178000
     76 HAO        -0.6570   11.4840    2.3870 ha        1 R14      0.186000
     77 HAP        -0.6480   15.3680    0.7810 hc        1 R14      0.178000
     78 HAQ         4.0760    4.6770    4.5950 ha        1 R14      0.182000
     79 HAR         5.5980   20.0830   -2.8630 ha        1 R14      0.205000
     80 HAS         2.5370    9.8450    1.3770 ha        1 R14      0.181000
     81 HAT         3.7930   14.4930   -0.0220 ha        1 R14      0.193000
     82 HAU         0.3150   13.2310   -1.2170 hc        1 R14      0.181000
     83 HAV         2.1760    8.8560    5.9180 h4        1 R14      0.218000
     84 HAW         1.3790   18.4380   -1.1770 h4        1 R14      0.239000
     85 HAX        -0.1870   -1.8800    2.9210 hx        1 R14      0.148250
     86 HAXA       -1.0770   -2.7820    4.2450 hx        1 R14      0.148250
     87 HAY         1.3730   -3.3220    4.3110 hx        1 R14      0.148250
     88 HAYA        2.2360   -2.4380    5.6610 hx        1 R14      0.148250
     89 HAZ         5.2320   23.6430   -7.6830 h1        1 R14      0.166000
     90 HAZA        8.2880   24.5050   -7.5990 h4        1 R14      0.184000
     91 HBA         4.5970   25.7820   -8.9300 h1        1 R14      0.143500
     92 HBAA        6.0690   26.5760   -9.6630 h1        1 R14      0.143500
     93 HBB         2.8680   -0.3810    5.9860 hc        1 R14      0.159000
     94 HBBA        1.5200    0.8350    6.1550 hc        1 R14      0.159000
     95 HBC         7.2010   24.5880   -5.4570 hc        1 R14      0.134000
     96 HBCA        7.1090   22.9750   -6.3000 hc        1 R14      0.134000
     97 HBD         0.7550    0.3070    3.7840 hx        1 R14      0.167500
     98 HBDA        2.0800   -0.9390    3.6250 hx        1 R14      0.167500
     99 HBE         3.0350   25.7320   -5.2060 ha        1 R14      0.002500
    100 HBEA        3.5380   26.1670   -5.3380 ha        1 R14      0.002500
    101 HNBK        4.7570    2.4940    5.0210 hn        1 R14      0.269000
    102 HNBL        4.3830   22.9630   -2.6630 h1        1 R14      0.159000
    103 HBK2        4.2820    1.6390    6.3840 hn        1 R14      0.269000
    104 HCA1        0.0410   -1.1160    5.7840 hn        1 R14      0.243000
    105 HCB1        4.8440   25.0750   -6.6080 h1        1 R14      0.166000
    106 HBL2        7.0410   22.3880   -3.7970 hn        1 R14      0.249000
    107 NBL         6.0580   22.5350   -3.8450 n         1 R14     -0.376000
@<TRIPOS>BOND
     1    1   24 1   
     2    1   56 1   
     3    1   57 1   
     4    1   58 1   
     5    2   25 1   
     6    2   59 1   
     7    2   60 1   
     8    2   61 1   
     9    3   26 1   
    10    3   62 1   
    11    3   63 1   
    12    3   64 1   
    13    4   27 1   
    14    4   65 1   
    15    4   66 1   
    16    4   67 1   
    17    5   38 1   
    18    6   39 1   
    19    7    9 1   
    20    8   10 1   
    21    9   40 1   
    22    9   70 1   
    23   10   41 1   
    24   10   71 1   
    25   11   42 1   
    26   11   68 1   
    27   11   72 1   
    28   12   43 1   
    29   12   69 1   
    30   12   73 1   
    31   13   15 1   
    32   13   44 1   
    33   13   74 1   
    34   14   16 1   
    35   14   45 1   
    36   16   49 1   
    37   16   75 1   
    38   16   77 1   
    39   17   40 1   
    40   17   42 1   
    41   17   78 1   
    42   18   41 1   
    43   18   43 1   
    44   18   79 1   
    45   19   44 1   
    46   19   50 1   
    47   19   80 1   
    48   20   45 1   
    49   20   51 1   
    50   20   81 1   
    51   21   48 1   
    52   21   49 1   
    53   22   46 1   
    54   22   54 1   
    55   22   83 1   
    56   23   47 1   
    57   23   55 1   
    58   23   84 1   
    59   24   52 1   
    60   24   85 1   
    61   24   86 1   
    62   25   52 1   
    63   25   87 1   
    64   25   88 1   
    65   26   53 1   
    66   26   90 1   
    67   27   53 1   
    68   27   91 1   
    69   27   92 1   
    70   28   30 1   
    71   28   38 1   
    72   28   93 1   
    73   28   94 1   
    74   29   31 1   
    75   29   39 1   
    76   29   95 1   
    77   29   96 1   
    78   30   52 1   
    79   30   97 1   
    80   30   98 1   
    81   31   53 1   
    82   31   89 1   
    83   31  105 1   
    84   32   34 1   
    85   32   46 1   
    86   33   35 1   
    87   33   47 1   
    88   34   54 1   
    89   35   55 1   
    90   36   50 1   
    91   36   51 1   
    92   37   38 1   
    93   37   40 1   
    94   37  101 1   
    95   37  103 1   
    96   39  107 1   
    97   41  102 1   
    98   41  107 1   
    99   42   46 1   
   100   43   47 1   
   101   44   54 1   
   102   45   55 1   
   103   48   50 1   
   104   48   76 1   
   105   49   51 1   
   106   49   82 1   
   107   52  104 1   
   108   99  100 1   
   109  106  107 1   
@<TRIPOS>SUBSTRUCTURE
     1 R14         1 TEMP              0 ****  ****    0 ROOT
