@<TRIPOS>MOLECULE
R15
   61    62     1     0     0
SMALL
bcc


@<TRIPOS>ATOM
      1 S1         -0.2970   -0.4580   -0.8130 sy        1 R15      1.523900
      2 S2         11.7470    6.9300    4.8190 sy        1 R15      1.523900
      3 N3         10.5140    6.6390    3.7520 n         1 R15     -0.676300
      4 N5          1.2280   -0.1640   -0.2400 n         1 R15     -0.676300
      5 C7          1.6170   -0.0470    1.1110 c         1 R15      0.782100
      6 C8          9.1300    6.7000    4.0200 c         1 R15      0.782100
      7 C9         -0.5970   -2.0540   -0.3930 ca        1 R15     -0.389500
      8 C10        11.6820    8.5840    5.0850 ca        1 R15     -0.389500
      9 O11        -1.2330    0.3910   -0.2140 o         1 R15     -0.639300
     10 O12        11.5520    6.2320    6.0150 o         1 R15     -0.639300
     11 O13        12.9260    6.6290    4.0990 o         1 R15     -0.639300
     12 O14        -0.1770   -0.3710   -2.2190 o         1 R15     -0.639300
     13 C15        -1.0380   -2.3900    0.8930 ca        1 R15      0.012000
     14 C17        10.7820    9.1300    6.0080 ca        1 R15      0.012000
     15 O19         0.7840   -0.3280    2.0050 o         1 R15     -0.625100
     16 O20         8.7490    7.1570    5.1230 o         1 R15     -0.625100
     17 N21         2.9410    0.3020    1.4210 n         1 R15     -0.531900
     18 N22         8.2170    6.3240    3.0230 n         1 R15     -0.531900
     19 C23        -1.3350   -3.7180    1.2090 ca        1 R15     -0.015600
     20 C24        10.7780   10.5050    6.2570 ca        1 R15     -0.015600
     21 CL25       -1.8730   -4.1130    2.7700 cl        1 R15     -0.075400
     22 CL26        9.6850   11.1560    7.3820 cl        1 R15     -0.075400
     23 C27        -0.4550   -3.0710   -1.3480 ca        1 R15     -0.018000
     24 C29        12.5700    9.4390    4.4180 ca        1 R15     -0.018000
     25 C31        -0.7490   -4.3930   -1.0310 ca        1 R15     -0.154000
     26 C33        12.5650   10.8080    4.6650 ca        1 R15     -0.154000
     27 C41        -1.1900   -4.7250    0.2500 ca        1 R15     -0.056500
     28 C43        11.6680   11.3500    5.5860 ca        1 R15     -0.056500
     29 C35         6.8290    6.1540    3.3770 c3        1 R15      0.077000
     30 C38         3.2680    0.6630    2.7790 c3        1 R15      0.077000
     31 C45         6.4420    4.7470    3.8380 c3        1 R15     -0.115400
     32 C48         3.1520    2.1480    3.1220 c3        1 R15     -0.115400
     33 C51         4.9520    4.6530    4.0940 c3        1 R15     -0.078400
     34 C54         4.1390    3.0010    2.3560 c3        1 R15     -0.078400
     35 C57         4.1380    4.4400    2.8330 c3        1 R15     -0.080400
     36 H5          1.9570   -0.0620   -0.9120 hn        1 R15      0.333500
     37 H3         10.7660    6.3990    2.8170 hn        1 R15      0.333500
     38 H21         3.4650    0.7780    0.7210 hn        1 R15      0.296500
     39 H22         8.5470    5.7240    2.3000 hn        1 R15      0.296500
     40 H15        -1.1420   -1.5950    1.6580 ha        1 R15      0.189000
     41 H27        -0.1210   -2.8100   -2.3690 ha        1 R15      0.161000
     42 H17        10.0680    8.4640    6.5330 ha        1 R15      0.189000
     43 H29        13.2920    9.0120    3.6980 ha        1 R15      0.161000
     44 H381        2.5980    0.0810    3.4750 h1        1 R15      0.072450
     45 H382        4.3330    0.3290    2.9470 h1        1 R15      0.072450
     46 H351        6.2310    6.4200    2.4570 h1        1 R15      0.072450
     47 H352        6.5730    6.8910    4.1920 h1        1 R15      0.072450
     48 H41        -1.4240   -5.7720    0.5010 ha        1 R15      0.152000
     49 H43        11.6640   12.4340    5.7830 ha        1 R15      0.152000
     50 H31        -0.6360   -5.1810   -1.7920 ha        1 R15      0.147000
     51 H33        13.2700   11.4670    4.1350 ha        1 R15      0.147000
     52 H451        6.7450    3.9890    3.0700 hc        1 R15      0.053950
     53 H452        6.9940    4.5070    4.7850 hc        1 R15      0.053950
     54 H481        2.1070    2.5070    2.9270 hc        1 R15      0.053950
     55 H482        3.3390    2.2520    4.2240 hc        1 R15      0.053950
     56 H511        4.6030    5.5920    4.6010 hc        1 R15      0.041950
     57 H512        4.7610    3.8060    4.8060 hc        1 R15      0.041950
     58 H541        3.8780    2.9860    1.2640 hc        1 R15      0.041950
     59 H542        5.1700    2.5680    2.4570 hc        1 R15      0.041950
     60 H571        4.5400    5.0950    2.0160 hc        1 R15      0.043700
     61 H572        3.0790    4.7620    3.0240 hc        1 R15      0.043700
@<TRIPOS>BOND
     1    1    4 1   
     2    1    7 1   
     3    1    9 2   
     4    1   12 2   
     5    2    3 1   
     6    2    8 1   
     7    2   10 2   
     8    2   11 2   
     9    3    6 1   
    10    3   37 1   
    11    4    5 1   
    12    4   36 1   
    13    5   15 2   
    14    5   17 1   
    15    6   16 2   
    16    6   18 1   
    17    7   13 ar  
    18    7   23 ar  
    19    8   14 ar  
    20    8   24 ar  
    21   13   19 ar  
    22   13   40 1   
    23   14   20 ar  
    24   14   42 1   
    25   17   30 1   
    26   17   38 1   
    27   18   29 1   
    28   18   39 1   
    29   19   21 1   
    30   19   27 ar  
    31   20   22 1   
    32   20   28 ar  
    33   23   25 ar  
    34   23   41 1   
    35   24   26 ar  
    36   24   43 1   
    37   25   27 ar  
    38   25   50 1   
    39   26   28 ar  
    40   26   51 1   
    41   27   48 1   
    42   28   49 1   
    43   29   31 1   
    44   29   46 1   
    45   29   47 1   
    46   30   32 1   
    47   30   44 1   
    48   30   45 1   
    49   31   33 1   
    50   31   52 1   
    51   31   53 1   
    52   32   34 1   
    53   32   54 1   
    54   32   55 1   
    55   33   35 1   
    56   33   56 1   
    57   33   57 1   
    58   34   35 1   
    59   34   58 1   
    60   34   59 1   
    61   35   60 1   
    62   35   61 1   
@<TRIPOS>SUBSTRUCTURE
     1 R15         1 TEMP              0 ****  ****    0 ROOT
