@<TRIPOS>MOLECULE
R15
   61    62     1     0     0
SMALL
bcc


@<TRIPOS>ATOM
      1 S1          8.0890   60.5800   30.8170 sy        1 R15      1.523900
      2 S2         17.4050   59.3420   18.8570 sy        1 R15      1.523900
      3 N3         16.7850   60.0390   20.2250 n         1 R15     -0.676300
      4 N5          8.6140   60.4150   29.2550 n         1 R15     -0.676300
      5 C7          9.0760   59.2340   28.6370 c         1 R15      0.782100
      6 C8         16.8140   59.5100   21.5320 c         1 R15      0.782100
      7 C9          6.6240   59.7650   30.8500 ca        1 R15     -0.389500
      8 C10        19.0670   59.4400   19.0600 ca        1 R15     -0.389500
      9 O11         8.9920   60.0030   31.7150 o         1 R15     -0.639300
     10 O12        17.0020   58.0080   18.7450 o         1 R15     -0.639300
     11 O13        17.0210   60.2060   17.8060 o         1 R15     -0.639300
     12 O14         7.8460   61.9640   30.9710 o         1 R15     -0.639300
     13 C15         6.5770   58.3740   31.0030 ca        1 R15      0.012000
     14 C17        19.7550   58.4930   19.8280 ca        1 R15      0.012000
     15 O19         8.9610   58.1480   29.2510 o         1 R15     -0.625100
     16 O20        17.4950   58.4810   21.7520 o         1 R15     -0.625100
     17 N21         9.5780   59.2910   27.3280 n         1 R15     -0.531900
     18 N22        16.1500   60.1880   22.5660 n         1 R15     -0.531900
     19 C23         5.3460   57.7180   31.0830 ca        1 R15     -0.015600
     20 C24        21.1470   58.5590   19.9430 ca        1 R15     -0.015600
     21 CL25        5.3000   56.0310   31.2730 cl        1 R15     -0.075400
     22 CL26       21.9720   57.4030   20.8740 cl        1 R15     -0.075400
     23 C27         5.4200   60.4800   30.7740 ca        1 R15     -0.018000
     24 C29        19.7960   60.4490   18.4140 ca        1 R15     -0.018000
     25 C31         4.1950   59.8250   30.8510 ca        1 R15     -0.154000
     26 C33        21.1810   60.5140   18.5300 ca        1 R15     -0.154000
     27 C41         4.1500   58.4400   31.0060 ca        1 R15     -0.056500
     28 C43        21.8650   59.5690   19.2950 ca        1 R15     -0.056500
     29 C35        15.9760   59.5260   23.8360 c3        1 R15      0.077000
     30 C38        10.2740   58.1450   26.7960 c3        1 R15      0.077000
     31 C45        14.6980   58.6950   23.9680 c3        1 R15     -0.115400
     32 C48        11.7860   58.1210   27.0150 c3        1 R15     -0.115400
     33 C51        14.5660   58.1210   25.3630 c3        1 R15     -0.078400
     34 C54        12.4960   59.2440   26.2910 c3        1 R15     -0.078400
     35 C57        14.0040   59.1070   26.3670 c3        1 R15     -0.080400
     36 H5          8.6010   61.2300   28.6800 hn        1 R15      0.333500
     37 H3         16.3460   60.9290   20.1250 hn        1 R15      0.333500
     38 H21         9.9060   60.1720   27.0000 hn        1 R15      0.296500
     39 H22        15.4190   60.8130   22.3110 hn        1 R15      0.296500
     40 H15         7.5230   57.8000   31.0530 ha        1 R15      0.189000
     41 H27         5.4510   61.5800   30.6670 ha        1 R15      0.161000
     42 H17        19.1870   57.6990   20.3510 ha        1 R15      0.189000
     43 H29        19.2590   61.1900   17.7950 ha        1 R15      0.161000
     44 H381        9.8310   57.2130   27.2550 h1        1 R15      0.072450
     45 H382       10.0620   58.1320   25.6880 h1        1 R15      0.072450
     46 H351       16.8670   58.8580   24.0180 h1        1 R15      0.072450
     47 H352       15.9740   60.3370   24.6200 h1        1 R15      0.072450
     48 H41         3.1810   57.9200   31.0690 ha        1 R15      0.152000
     49 H43        22.9620   59.6200   19.3870 ha        1 R15      0.152000
     50 H31         3.2580   60.4000   30.7930 ha        1 R15      0.147000
     51 H33        21.7400   61.3100   18.0160 ha        1 R15      0.147000
     52 H451       13.8000   59.3230   23.7280 hc        1 R15      0.053950
     53 H452       14.7290   57.8530   23.2250 hc        1 R15      0.053950
     54 H481       12.0160   58.1690   28.1110 hc        1 R15      0.053950
     55 H482       12.1620   57.1330   26.6390 hc        1 R15      0.053950
     56 H511       13.9030   57.2160   25.3200 hc        1 R15      0.041950
     57 H512       15.5740   57.7730   25.7160 hc        1 R15      0.041950
     58 H541       12.1700   59.2660   25.2170 hc        1 R15      0.041950
     59 H542       12.2030   60.2270   26.7470 hc        1 R15      0.041950
     60 H571       14.2900   58.7770   27.4020 hc        1 R15      0.043700
     61 H572       14.4700   60.1140   26.2020 hc        1 R15      0.043700
@<TRIPOS>BOND
     1    1    4 1   
     2    1    7 1   
     3    1    9 2   
     4    1   12 2   
     5    2    3 1   
     6    2    8 1   
     7    2   10 2   
     8    2   11 2   
     9    3    6 1   
    10    3   37 1   
    11    4    5 1   
    12    4   36 1   
    13    5   15 2   
    14    5   17 1   
    15    6   16 2   
    16    6   18 1   
    17    7   13 ar  
    18    7   23 ar  
    19    8   14 ar  
    20    8   24 ar  
    21   13   19 ar  
    22   13   40 1   
    23   14   20 ar  
    24   14   42 1   
    25   17   30 1   
    26   17   38 1   
    27   18   29 1   
    28   18   39 1   
    29   19   21 1   
    30   19   27 ar  
    31   20   22 1   
    32   20   28 ar  
    33   23   25 ar  
    34   23   41 1   
    35   24   26 ar  
    36   24   43 1   
    37   25   27 ar  
    38   25   50 1   
    39   26   28 ar  
    40   26   51 1   
    41   27   48 1   
    42   28   49 1   
    43   29   31 1   
    44   29   46 1   
    45   29   47 1   
    46   30   32 1   
    47   30   44 1   
    48   30   45 1   
    49   31   33 1   
    50   31   52 1   
    51   31   53 1   
    52   32   34 1   
    53   32   54 1   
    54   32   55 1   
    55   33   35 1   
    56   33   56 1   
    57   33   57 1   
    58   34   35 1   
    59   34   58 1   
    60   34   59 1   
    61   35   60 1   
    62   35   61 1   
@<TRIPOS>SUBSTRUCTURE
     1 R15         1 TEMP              0 ****  ****    0 ROOT
