@<TRIPOS>MOLECULE
R15
   65    68     1     0     0
SMALL
bcc


@<TRIPOS>ATOM
      1 S1      -1345.3220 -622.5430  399.4320 s4        1 R15      2.089800
      2 S2        556.0440  707.1540    0.7360 s4        1 R15      2.873000
      3 N3        304.8360  -21.1450 -636.7760 n         1 R15     -0.369000
      4 N5        313.6720  -28.6100 -638.5550 n         1 R15     -0.369000
      5 C7        312.5430  -28.4070 -637.8320 c2        1 R15      0.342500
      6 C8        304.9880  -22.3990 -636.2850 c2        1 R15      0.342500
      7 C9      -1344.4090 -622.0220  398.3030 ca        1 R15     -1.058000
      8 C10       554.6960  707.1020    0.9870 DU        1 R15     -1.058000
      9 O11     -1344.7920 -622.7250  400.6590 o         1 R15     -0.385900
     10 O12       556.1790  708.0180    0.7630 o         1 R15     -0.777000
     11 O13       557.0340  706.3310    0.3310 o         1 R15     -0.778000
     12 O14     -1346.6160 -622.7960  399.1440 o         1 R15     -0.385900
     13 C15     -1343.0350 -621.7350  398.5390 ca        1 R15      0.030000
     14 C17       553.6100  707.9440    0.3630 DU        1 R15      0.030000
     15 O19       312.3200  -27.5080 -637.0140 o         1 R15     -0.246000
     16 O20       305.4360  -22.7350 -635.1850 o         1 R15     -0.246000
     17 N21       311.3580  -29.3650 -638.0390 n4        1 R15     -0.103000
     18 N22       304.5920  -23.5910 -637.1780 n4        1 R15     -0.103000
     19 C23     -1342.2130 -621.2650  397.5230 ca        1 R15     -0.098000
     20 C24       552.3970  707.8970    0.6900 cu        1 R15     -0.098000
     21 CL25    -1340.5910 -620.9340  397.8360 cl        1 R15      0.095000
     22 CL26      551.1320  708.9070    0.1600 cl        1 R15      0.095000
     23 C27     -1344.9040 -621.8090  396.9850 ca        1 R15      0.041000
     24 C29       554.4850  706.2130    0.8950 cx        1 R15      0.041000
     25 C31     -1344.0820 -621.3410  395.9750 ca        1 R15     -0.143000
     26 C33       553.2740  706.1700    0.2270 DU        1 R15     -0.143000
     27 C41     -1342.7350 -621.0650  396.2300 ca        1 R15      0.050000
     28 C43       552.2220  707.0060    0.6130 cx        1 R15      0.050000
     29 C35       305.8170  -24.3270 -637.6190 c3        1 R15     -0.127500
     30 C38       310.4580  -28.8920 -639.1360 c3        1 R15     -0.127500
     31 C45       305.4940  -25.6430 -638.3160 c3        1 R15     -0.190000
     32 C48       309.5900  -27.7010 -638.7490 c3        1 R15     -0.190000
     33 C51       306.7650  -26.3710 -638.7130 c3        1 R15     -0.163000
     34 C54       308.4120  -28.0980 -637.8850 c3        1 R15     -0.163000
     35 C57       307.5310  -26.9170 -637.5250 c3        1 R15     -0.164000
     36 H5        314.4420  -27.9940 -638.3770 hn        1 R15      0.287000
     37 H3        304.4240  -20.9380 -637.6550 hn        1 R15      0.287000
     38 H21       310.8340  -29.3690 -637.1520 hn        1 R15      0.259250
     39 H22       304.0390  -23.3130 -637.9930 hn        1 R15      0.259250
     40 H15     -1342.6190 -621.8910  399.5560 ha        1 R15      0.191000
     41 H27     -1345.9700 -622.0230  396.7690 ha        1 R15      0.183000
     42 H17       553.7430  708.6480    0.2110 ha        1 R15      0.191000
     43 H29       555.3110  705.5450    0.5780 h1        1 R15      0.183000
     44 H381      311.1080  -28.6200 -640.0180 hx        1 R15      0.152250
     45 H382      309.8000  -29.7630 -639.4290 hx        1 R15      0.152250
     46 H351      306.3940  -23.6490 -638.3110 hx        1 R15      0.152250
     47 H352      306.4420  -24.5230 -636.6970 hx        1 R15      0.152250
     48 H41     -1342.0800 -620.6910  395.4190 ha        1 R15      0.197000
     49 H43       551.2540  706.9680    0.0750 hc        1 R15      0.197000
     50 H31     -1344.4900 -621.1830  394.9600 ha        1 R15      0.194000
     51 H33       553.1350  705.4710    0.3810 ha        1 R15      0.194000
     52 H451      304.8890  -25.4480 -639.2430 hc        1 R15      0.121250
     53 H452      304.8830  -26.3020 -637.6420 hc        1 R15      0.121250
     54 H481      309.2120  -27.2500 -639.7090 hc        1 R15      0.121250
     55 H482      310.2040  -26.9140 -638.2310 hc        1 R15      0.121250
     56 H511      307.4230  -25.6860 -639.3110 hc        1 R15      0.099000
     57 H512      306.4670  -27.2180 -639.3900 hc        1 R15      0.099000
     58 H541      307.7980  -28.8750 -638.4140 hc        1 R15      0.099000
     59 H542      308.7800  -28.5580 -636.9280 hc        1 R15      0.099000
     60 H571      308.1600  -26.1060 -637.0710 hc        1 R15      0.098000
     61 H572      306.8070  -27.2580 -636.7350 hc        1 R15      0.098000
     62 H32       305.0680  -20.3870 -636.1630 hn        1 R15      0.287000
     63 H52       313.8100  -29.3820 -639.1630 hn        1 R15      0.287000
     64 H212      311.6750  -30.3180 -638.2390 hn        1 R15      0.259250
     65 H222      304.0190  -24.2170 -636.5950 hn        1 R15      0.259250
@<TRIPOS>BOND
     1    1    7 1   
     2    1    9 1   
     3    1   12 1   
     4    2    8 1   
     5    2   11 1   
     6    2   24 1   
     7    3    6 1   
     8    3   37 1   
     9    3   62 1   
    10    4    5 1   
    11    4   36 1   
    12    4   63 1   
    13    5   15 1   
    14    5   17 1   
    15    6   16 1   
    16    6   18 1   
    17    7   13 1   
    18    7   23 1   
    19    8   10 1   
    20    8   14 1   
    21    8   24 1   
    22    8   26 1   
    23   13   19 1   
    24   13   40 1   
    25   14   20 1   
    26   14   26 1   
    27   14   28 1   
    28   14   42 1   
    29   17   30 1   
    30   17   38 1   
    31   17   64 1   
    32   18   29 1   
    33   18   39 1   
    34   18   65 1   
    35   19   21 1   
    36   19   27 1   
    37   20   22 1   
    38   20   28 1   
    39   23   25 1   
    40   23   41 1   
    41   24   26 1   
    42   24   43 1   
    43   25   27 1   
    44   25   50 1   
    45   26   28 1   
    46   26   51 1   
    47   27   48 1   
    48   28   49 1   
    49   29   31 1   
    50   29   46 1   
    51   29   47 1   
    52   30   32 1   
    53   30   44 1   
    54   30   45 1   
    55   31   33 1   
    56   31   52 1   
    57   31   53 1   
    58   32   34 1   
    59   32   54 1   
    60   32   55 1   
    61   33   35 1   
    62   33   56 1   
    63   33   57 1   
    64   34   35 1   
    65   34   58 1   
    66   34   59 1   
    67   35   60 1   
    68   35   61 1   
@<TRIPOS>SUBSTRUCTURE
     1 R15         1 TEMP              0 ****  ****    0 ROOT
