@<TRIPOS>MOLECULE
R16
   50    49     1     0     0
SMALL
bcc


@<TRIPOS>ATOM
      1 C27         9.3740   -0.3400    0.0010 c3        1 R16     -0.092100
      2 C28         8.1200    0.4950   -0.0020 c3        1 R16     -0.080400
      3 C29         6.8760   -0.3680    0.0010 c3        1 R16     -0.079400
      4 C30         5.6190    0.4750   -0.0020 c3        1 R16     -0.079400
      5 C31         4.3770   -0.3900    0.0010 c3        1 R16     -0.079400
      6 C32         3.1200    0.4540   -0.0020 c3        1 R16     -0.079400
      7 C33         1.8780   -0.4110    0.0010 c3        1 R16     -0.079400
      8 C34         0.6210    0.4320   -0.0010 c3        1 R16     -0.079400
      9 C35        -0.6210   -0.4320    0.0010 c3        1 R16     -0.079400
     10 C36        -1.8780    0.4110   -0.0010 c3        1 R16     -0.079400
     11 C37        -3.1200   -0.4540    0.0020 c3        1 R16     -0.079400
     12 C38        -4.3770    0.3900   -0.0010 c3        1 R16     -0.079400
     13 C39        -5.6190   -0.4750    0.0020 c3        1 R16     -0.079400
     14 C40        -6.8760    0.3680   -0.0010 c3        1 R16     -0.079400
     15 C41        -8.1200   -0.4950    0.0020 c3        1 R16     -0.080400
     16 C42        -9.3740    0.3400   -0.0010 c3        1 R16     -0.092100
     17 H271        9.4120   -0.9910    0.9080 hc        1 R16      0.032700
     18 H272        9.4120   -0.9970   -0.9020 hc        1 R16      0.032700
     19 H273       10.2770    0.3160   -0.0010 hc        1 R16      0.032700
     20 H281        8.1110    1.1650    0.8980 hc        1 R16      0.038700
     21 H282        8.1110    1.1590   -0.9060 hc        1 R16      0.038700
     22 H291        6.8820   -1.0380   -0.8990 hc        1 R16      0.039700
     23 H292        6.8820   -1.0320    0.9060 hc        1 R16      0.039700
     24 H301        5.6140    1.1440    0.8980 hc        1 R16      0.039700
     25 H302        5.6140    1.1380   -0.9070 hc        1 R16      0.039700
     26 H311        4.3830   -1.0590   -0.8990 hc        1 R16      0.039700
     27 H312        4.3830   -1.0530    0.9060 hc        1 R16      0.039700
     28 H321        3.1150    1.1230    0.8990 hc        1 R16      0.039700
     29 H322        3.1150    1.1170   -0.9060 hc        1 R16      0.039700
     30 H331        1.8840   -1.0800   -0.8990 hc        1 R16      0.039700
     31 H332        1.8840   -1.0750    0.9060 hc        1 R16      0.039700
     32 H341        0.6160    1.1020    0.8990 hc        1 R16      0.039700
     33 H342        0.6150    1.0960   -0.9060 hc        1 R16      0.039700
     34 H351       -0.6160   -1.1020   -0.8990 hc        1 R16      0.039700
     35 H352       -0.6150   -1.0960    0.9060 hc        1 R16      0.039700
     36 H361       -1.8840    1.0800    0.8990 hc        1 R16      0.039700
     37 H362       -1.8840    1.0750   -0.9060 hc        1 R16      0.039700
     38 H371       -3.1150   -1.1230   -0.8990 hc        1 R16      0.039700
     39 H372       -3.1150   -1.1170    0.9060 hc        1 R16      0.039700
     40 H381       -4.3830    1.0590    0.8990 hc        1 R16      0.039700
     41 H382       -4.3830    1.0530   -0.9060 hc        1 R16      0.039700
     42 H391       -5.6140   -1.1440   -0.8980 hc        1 R16      0.039700
     43 H392       -5.6140   -1.1380    0.9070 hc        1 R16      0.039700
     44 H401       -6.8820    1.0380    0.8990 hc        1 R16      0.039700
     45 H402       -6.8820    1.0320   -0.9060 hc        1 R16      0.039700
     46 H411       -8.1110   -1.1650   -0.8980 hc        1 R16      0.038700
     47 H412       -8.1110   -1.1590    0.9060 hc        1 R16      0.038700
     48 H421       -9.4120    0.9970    0.9020 hc        1 R16      0.032700
     49 H422       -9.4120    0.9910   -0.9080 hc        1 R16      0.032700
     50 H423      -10.2770   -0.3160    0.0010 hc        1 R16      0.032700
@<TRIPOS>BOND
     1    1    2 1   
     2    1   17 1   
     3    1   18 1   
     4    1   19 1   
     5    2    3 1   
     6    2   20 1   
     7    2   21 1   
     8    3    4 1   
     9    3   22 1   
    10    3   23 1   
    11    4    5 1   
    12    4   24 1   
    13    4   25 1   
    14    5    6 1   
    15    5   26 1   
    16    5   27 1   
    17    6    7 1   
    18    6   28 1   
    19    6   29 1   
    20    7    8 1   
    21    7   30 1   
    22    7   31 1   
    23    8    9 1   
    24    8   32 1   
    25    8   33 1   
    26    9   10 1   
    27    9   34 1   
    28    9   35 1   
    29   10   11 1   
    30   10   36 1   
    31   10   37 1   
    32   11   12 1   
    33   11   38 1   
    34   11   39 1   
    35   12   13 1   
    36   12   40 1   
    37   12   41 1   
    38   13   14 1   
    39   13   42 1   
    40   13   43 1   
    41   14   15 1   
    42   14   44 1   
    43   14   45 1   
    44   15   16 1   
    45   15   46 1   
    46   15   47 1   
    47   16   48 1   
    48   16   49 1   
    49   16   50 1   
@<TRIPOS>SUBSTRUCTURE
     1 R16         1 TEMP              0 ****  ****    0 ROOT
