@<TRIPOS>MOLECULE
R17
   48    50     1     0     0
SMALL
bcc


@<TRIPOS>ATOM
      1 C3A         1.6020    1.0860  -11.6700 c2        1 R17     -0.226000
      2 C2A         1.1270    1.2060  -10.4330 c2        1 R17     -0.164200
      3 C1A         0.7860    0.0250   -9.5800 c3        1 R17      0.196000
      4 N1          1.1120    0.2060   -8.1670 n3        1 R17     -0.727600
      5 C1B         0.5630   -0.8810   -7.3630 c3        1 R17      0.203000
      6 C2B         0.8170   -0.7410   -5.8960 c2        1 R17     -0.163200
      7 C3B        -0.1550   -0.4790   -5.0200 c2        1 R17     -0.159200
      8 C4B         0.1040   -0.3680   -3.5580 c3        1 R17      0.158600
      9 O5B        -1.1790   -0.4460   -2.9170 os        1 R17     -0.325900
     10 C6C        -1.1750   -0.3560   -1.5400 ca        1 R17      0.149100
     11 C7C        -2.4540   -0.4630   -0.9600 ca        1 R17     -0.153000
     12 C7P        -2.4950   -0.3720    0.4210 ca        1 R17      0.091100
     13 O1C        -3.6410   -0.4600    1.2160 os        1 R17     -0.196200
     14 C2C        -3.1980   -0.3240    2.5400 cc        1 R17     -0.000900
     15 C3C        -1.8320   -0.1480    2.6140 cd        1 R17     -0.071400
     16 C3P        -1.3380   -0.1780    1.2410 ca        1 R17     -0.126800
     17 C4C        -0.0940   -0.0880    0.6270 ca        1 R17     -0.049000
     18 C5C        -0.0160   -0.1750   -0.7610 ca        1 R17     -0.219000
     19 C1D        -1.0510    0.0310    3.8140 ca        1 R17     -0.003800
     20 C2D        -1.4050   -0.6420    4.9940 ca        1 R17     -0.123000
     21 C3D        -0.6610   -0.4700    6.1580 ca        1 R17     -0.101500
     22 C4D         0.4480    0.3800    6.1610 ca        1 R17     -0.027900
     23 C5D         0.8070    1.0580    4.9920 ca        1 R17     -0.101500
     24 C6D         0.0630    0.8840    3.8280 ca        1 R17     -0.123000
     25 BR25        1.4500    0.6120    7.7260 br        1 R17     -0.087100
     26 C1E         2.5180    0.4410   -7.9360 c3        1 R17      0.152100
     27 H3A1        1.8050    1.9590  -12.3040 ha        1 R17      0.112000
     28 H3A2        1.8160    0.1160  -12.1370 ha        1 R17      0.112000
     29 H2A         0.9250    2.1930   -9.9850 ha        1 R17      0.136000
     30 H1A1        1.2800   -0.9020  -10.0000 h1        1 R17      0.037200
     31 H1A2       -0.3320   -0.1290   -9.6510 h1        1 R17      0.037200
     32 H1B1       -0.5500   -0.9030   -7.5530 h1        1 R17      0.037700
     33 H1B2        0.9800   -1.8850   -7.6840 h1        1 R17      0.037700
     34 H2B         1.8610   -0.8930   -5.5760 ha        1 R17      0.121000
     35 H3B        -1.2020   -0.3230   -5.3270 ha        1 R17      0.150000
     36 H4B1        0.7560   -1.2030   -3.1870 h1        1 R17      0.050200
     37 H4B2        0.5790    0.6220   -3.3170 h1        1 R17      0.050200
     38 H7C        -3.3500   -0.6090   -1.5750 ha        1 R17      0.169000
     39 H2C        -3.9990   -0.3690    3.2740 h4        1 R17      0.194000
     40 H4C         0.8200    0.0440    1.2260 ha        1 R17      0.143000
     41 H5C         0.9700   -0.1010   -1.2410 ha        1 R17      0.140000
     42 H2D        -2.2750   -1.3160    4.9960 ha        1 R17      0.140500
     43 H3D        -0.9540   -1.0090    7.0730 ha        1 R17      0.147000
     44 H5D         1.6760    1.7340    4.9830 ha        1 R17      0.147000
     45 H6D         0.3430    1.4280    2.9130 ha        1 R17      0.140500
     46 H1E1        2.6540    0.7910   -6.8790 h1        1 R17      0.033033
     47 H1E2        3.1550   -0.4720   -8.0960 h1        1 R17      0.033033
     48 H1E3        2.8740    1.2490   -8.6290 h1        1 R17      0.033033
@<TRIPOS>BOND
     1    1    2 2   
     2    1   27 1   
     3    1   28 1   
     4    2    3 1   
     5    2   29 1   
     6    3    4 1   
     7    3   30 1   
     8    3   31 1   
     9    4    5 1   
    10    4   26 1   
    11    5    6 1   
    12    5   32 1   
    13    5   33 1   
    14    6    7 2   
    15    6   34 1   
    16    7    8 1   
    17    7   35 1   
    18    8    9 1   
    19    8   36 1   
    20    8   37 1   
    21    9   10 1   
    22   10   11 ar  
    23   10   18 ar  
    24   11   12 ar  
    25   11   38 1   
    26   12   13 1   
    27   12   16 ar  
    28   13   14 1   
    29   14   15 2   
    30   14   39 1   
    31   15   16 1   
    32   15   19 1   
    33   16   17 ar  
    34   17   18 ar  
    35   17   40 1   
    36   18   41 1   
    37   19   20 ar  
    38   19   24 ar  
    39   20   21 ar  
    40   20   42 1   
    41   21   22 ar  
    42   21   43 1   
    43   22   23 ar  
    44   22   25 1   
    45   23   24 ar  
    46   23   44 1   
    47   24   45 1   
    48   26   46 1   
    49   26   47 1   
    50   26   48 1   
@<TRIPOS>SUBSTRUCTURE
     1 R17         1 TEMP              0 ****  ****    0 ROOT
