@<TRIPOS>MOLECULE
R17
   48    40     1     0     0
SMALL
bcc


@<TRIPOS>ATOM
      1 C3A        -4.5020    7.4850   -1.0910 c1        1 R17     -0.151750
      2 C2A        -4.8100    6.1960   -1.1190 c1        1 R17     -0.151750
      3 C1A        -4.1230    5.2440   -0.1980 c2        1 R17     -0.043000
      4 N1         -4.6930    3.6600   -0.5170 n3        1 R17     -0.257000
      5 C1B        -3.3470    2.5360   -0.4630 c3        1 R17     -0.044000
      6 C2B        -3.8220    1.1290   -0.9270 c2        1 R17     -0.152000
      7 C3B        -2.9550    0.0470   -0.8630 c1        1 R17     -0.181000
      8 C4B        -1.5130    0.2360   -0.3310 c2        1 R17      0.005000
      9 O5B        -0.6180   -0.5720   -1.0790 os        1 R17     -0.208000
     10 C6C         0.4740   -1.1570   -0.2640 c2        1 R17      0.107000
     11 C7C         1.5940   -0.6260   -0.8800 c2        1 R17     -0.205000
     12 C7P         2.8580   -1.2280   -0.6900 c1        1 R17      0.048000
     13 O1C         4.1250   -0.9150   -1.1750 o         1 R17     -0.108000
     14 C2C         5.0170   -1.8360   -0.6760 c1        1 R17     -0.051000
     15 C3C         4.3150   -2.7170    0.1140 c2        1 R17     -0.091000
     16 C3P         2.9750   -2.3370    0.1040 c1        1 R17     -0.055000
     17 C4C         1.8290   -2.8790    0.7330 c1        1 R17     -0.088500
     18 C5C         0.5950   -2.2940    0.5490 c1        1 R17     -0.172000
     19 C1D         4.9430   -3.7910    0.6710 c1        1 R17     -0.055000
     20 C2D         5.0790   -4.9970   -0.0770 c1        1 R17     -0.151750
     21 C3D         5.7130   -6.0790    0.4740 c1        1 R17     -0.151750
     22 C4D         6.2190   -6.0050    1.7480 c1        1 R17     -0.168000
     23 C5D         6.0890   -4.8290    2.4830 c1        1 R17     -0.101000
     24 C6D         5.4370   -3.7150    1.9170 c1        1 R17     -0.088500
     25 BR25        7.0990   -7.5600    2.5370 br        1 R17      0.053000
     26 C1E        -5.8390    3.2160    0.6810 c3        1 R17     -0.124000
     27 H3A1       -3.8130    7.8210   -0.4540 DU        1 R17      0.152500
     28 H3A2       -4.9560    8.1060   -1.6960 ha        1 R17      0.135500
     29 H2A        -5.5210    5.8510   -1.7740 ha        1 R17      0.135500
     30 H1A1       -4.3310    5.5050    0.7870 h4        1 R17      0.076000
     31 H1A2       -3.0700    5.2780   -0.3610 h4        1 R17      0.076000
     32 H1B1       -2.6090    2.8630   -1.0770 h1        1 R17      0.077000
     33 H1B2       -3.0270    2.4810    0.4050 h1        1 R17      0.077000
     34 H2B        -4.7050    1.0110   -1.2520 ha        1 R17      0.145000
     35 H3B        -3.2630   -0.8600   -1.1620 ha        1 R17      0.149000
     36 H4B1       -1.2410    1.2120   -0.4190 h4        1 R17      0.089000
     37 H4B2       -1.4760   -0.0380    0.6390 h4        1 R17      0.089000
     38 H7C         1.5180    0.1980   -1.4000 ha        1 R17      0.156000
     39 H2C         6.0080   -1.8270   -0.8090 DU        1 R17      0.152500
     40 H4C         1.9090   -3.6280    1.2670 ha        1 R17      0.141500
     41 H5C        -0.1830   -2.6960    0.9220 ha        1 R17      0.154000
     42 H2D         4.7120   -5.0530   -1.0010 ha        1 R17      0.135500
     43 H3D         5.8010   -6.8790   -0.0260 ha        1 R17      0.135500
     44 H5D         6.4550   -4.7770    3.4040 ha        1 R17      0.147000
     45 H6D         5.3470   -2.9150    2.4150 ha        1 R17      0.141500
     46 H1E1       -5.3960    3.2050    1.5870 h1        1 R17      0.074000
     47 H1E2       -6.1890    2.3210    0.4750 h1        1 R17      0.074000
     48 H1E3       -6.5660    3.8530    0.6870 h1        1 R17      0.074000
@<TRIPOS>BOND
     1    1    2 1   
     2    1   28 1   
     3    2   29 1   
     4    3    4 1   
     5    3   30 1   
     6    3   31 1   
     7    4    5 1   
     8    4   26 1   
     9    5    6 1   
    10    5   32 1   
    11    5   33 1   
    12    6    7 1   
    13    6   34 1   
    14    7   35 1   
    15    8    9 1   
    16    8   36 1   
    17    8   37 1   
    18    9   10 1   
    19   10   11 1   
    20   10   18 1   
    21   11   12 1   
    22   11   38 1   
    23   13   14 1   
    24   14   15 1   
    25   15   16 1   
    26   15   19 1   
    27   16   17 1   
    28   17   40 1   
    29   18   41 1   
    30   19   24 1   
    31   20   21 1   
    32   20   42 1   
    33   21   43 1   
    34   22   23 1   
    35   22   25 1   
    36   23   44 1   
    37   24   45 1   
    38   26   46 1   
    39   26   47 1   
    40   26   48 1   
@<TRIPOS>SUBSTRUCTURE
     1 R17         1 TEMP              0 ****  ****    0 ROOT
