@<TRIPOS>MOLECULE
R18
   45    46     1     0     0
SMALL
bcc


@<TRIPOS>ATOM
      1 C1          1.0180   -3.5230   -0.2550 c3        1 R18     -0.114000
      2 C2          2.5780   -3.5230   -0.2550 c3        1 R18     -0.208000
      3 C3          3.1840   -3.5230    1.1640 c2        1 R18      0.262000
      4 C4          2.5200   -2.6580    2.2550 c2        1 R18     -0.239000
      5 C5          1.1850   -2.0150    1.9440 c1        1 R18      0.007000
      6 C6          0.7730   -0.6240    2.6510 c2        1 R18     -0.134000
      7 C7         -0.4930   -0.1950    2.2690 c3        1 R18     -0.151000
      8 C8         -0.7750   -0.0540    0.7490 c3        1 R18     -0.069000
      9 C9         -0.4560   -1.3210   -0.1330 c2        1 R18     -0.040000
     10 C10         0.4460   -2.4190    0.5550 c2        1 R18     -0.090000
     11 C11        -0.2570   -1.0460   -1.8530 c2        1 R18     -0.154000
     12 C12        -0.1450    0.5600   -2.3630 c1        1 R18     -0.120000
     13 C13        -0.4000    1.6460   -1.2810 c2        1 R18     -0.011000
     14 C14        -0.1340    1.2050    0.3040 c3        1 R18     -0.092000
     15 C15        -0.7170    2.1700    1.0430 c3        1 R18     -0.153000
     16 C16        -1.9140    2.7200    0.1230 c3        1 R18     -0.190000
     17 C17        -1.6420    2.1210   -1.3380 c3        1 R18      0.084000
     18 C18         0.5350    2.7980   -1.5840 c3        1 R18     -0.192000
     19 C27        -2.6420    0.9810   -1.6470 c3        1 R18     -0.237000
     20 O83         4.2850   -4.0000    1.3540 o         1 R18     -0.295000
     21 O97        -1.7360    3.1350   -2.3100 oh        1 R18     -0.321000
     22 H12A        0.6300   -3.5590   -1.1500 hc        1 R18      0.095500
     23 H11A        0.7100   -4.3770    0.1030 hc        1 R18      0.095500
     24 H22         2.8730   -2.7690   -0.8000 hc        1 R18      0.110500
     25 H21         2.9470   -4.2730   -0.7600 hc        1 R18      0.110500
     26 H4          3.0410   -2.3530    3.0210 ha        1 R18      0.151000
     27 H62         1.4420    0.0870    2.6460 ha        1 R18      0.096500
     28 H61         0.7420   -0.8140    3.6080 ha        1 R18      0.096500
     29 H72        -0.6500    0.6750    2.6830 hc        1 R18      0.088000
     30 H71        -1.1430   -0.8240    2.6350 hc        1 R18      0.088000
     31 H8         -1.7370    0.0890    0.6660 hc        1 R18      0.102000
     32 H11        -0.4970   -1.7450   -2.4900 ha        1 R18      0.135000
     33 H12         0.3630    0.7820   -3.1670 ha        1 R18      0.137000
     34 H14         0.8240    1.1760    0.4890 hc        1 R18      0.100000
     35 H152       -0.0790    2.8830    1.2340 hc        1 R18      0.084500
     36 H151       -1.0700    1.7970    1.8730 hc        1 R18      0.084500
     37 H162       -1.8980    3.6960    0.0960 hc        1 R18      0.091500
     38 H161       -2.7730    2.4050    0.4630 hc        1 R18      0.091500
     39 H183        0.4660    3.0330   -2.5290 hc        1 R18      0.082667
     40 H182        1.4530    2.5340   -1.3810 hc        1 R18      0.082667
     41 H181        0.2900    3.5690   -1.0380 hc        1 R18      0.082667
     42 H273       -3.5280    1.2270   -1.3210 hc        1 R18      0.084000
     43 H272       -2.3480    0.1620   -1.2050 hc        1 R18      0.084000
     44 H271       -2.6800    0.8340   -2.6120 hc        1 R18      0.084000
     45 H97        -2.5900    3.3310   -2.4520 ho        1 R18      0.199000
@<TRIPOS>BOND
     1    1    2 1   
     2    1   10 1   
     3    1   22 1   
     4    1   23 1   
     5    2    3 1   
     6    2   24 1   
     7    2   25 1   
     8    3    4 1   
     9    3   20 1   
    10    4    5 1   
    11    4   26 1   
    12    5   10 1   
    13    6    7 1   
    14    6   27 1   
    15    6   28 1   
    16    7    8 1   
    17    7   29 1   
    18    7   30 1   
    19    8    9 1   
    20    8   14 1   
    21    8   31 1   
    22    9   10 1   
    23    9   11 1   
    24   11   12 1   
    25   11   32 1   
    26   12   33 1   
    27   13   14 1   
    28   13   17 1   
    29   13   18 1   
    30   14   15 1   
    31   14   34 1   
    32   15   16 1   
    33   15   35 1   
    34   15   36 1   
    35   16   17 1   
    36   16   37 1   
    37   16   38 1   
    38   17   19 1   
    39   17   21 1   
    40   18   39 1   
    41   18   40 1   
    42   18   41 1   
    43   19   42 1   
    44   19   43 1   
    45   19   44 1   
    46   21   45 1   
@<TRIPOS>SUBSTRUCTURE
     1 R18         1 TEMP              0 ****  ****    0 ROOT
