@<TRIPOS>MOLECULE
R18
   45    48     1     0     0
SMALL
bcc


@<TRIPOS>ATOM
      1 C1          0.1820    0.0840   -0.0520 c3        1 R18     -0.033200
      2 C2          1.6830   -0.0600    0.0880 c3        1 R18     -0.180400
      3 C3          2.1250   -0.1420    1.5200 c         1 R18      0.570300
      4 C4          1.4470    0.7910    2.4230 ce        1 R18     -0.263200
      5 C5          0.2690    1.3730    2.1120 cf        1 R18      0.005800
      6 C6         -0.3410    2.3390    3.0720 c3        1 R18     -0.055200
      7 C7         -1.2660    3.3170    2.3840 c3        1 R18     -0.072400
      8 C8         -2.3160    2.5570    1.5930 c3        1 R18     -0.021500
      9 C9         -1.6710    1.6080    0.6120 ce        1 R18     -0.036200
     10 C10        -0.4510    1.0670    0.8770 cf        1 R18     -0.096200
     11 C11        -2.4190    1.3100   -0.6050 ce        1 R18     -0.152000
     12 C12        -3.6270    1.8250   -0.8960 c2        1 R18     -0.118200
     13 C13        -4.3250    2.7030    0.0830 c3        1 R18     -0.017800
     14 C14        -3.2320    3.4990    0.8390 c3        1 R18     -0.065700
     15 C15        -4.0030    4.5750    1.5880 c3        1 R18     -0.067400
     16 C16        -5.1630    4.9310    0.6560 c3        1 R18     -0.109400
     17 C17        -5.2180    3.8540   -0.4610 c3        1 R18      0.157800
     18 C18        -5.1640    1.8150    0.9980 c3        1 R18     -0.074100
     19 C27        -4.7200    4.4080   -1.7870 c3        1 R18     -0.119100
     20 O83         3.0240   -0.9060    1.8920 o         1 R18     -0.536100
     21 O97        -6.5440    3.3600   -0.6170 oh        1 R18     -0.592800
     22 H12A       -0.3020   -0.9170    0.1210 hc        1 R18      0.055200
     23 H11A       -0.0210    0.3740   -1.1190 hc        1 R18      0.055200
     24 H22         2.0240   -0.9700   -0.4720 hc        1 R18      0.071700
     25 H21         2.1970    0.8300   -0.3680 hc        1 R18      0.071700
     26 H4          1.9580    0.9990    3.3770 ha        1 R18      0.149000
     27 H62         0.4660    2.9020    3.6140 hc        1 R18      0.058700
     28 H61        -0.9150    1.7560    3.8440 hc        1 R18      0.058700
     29 H72        -0.6800    3.9850    1.7010 hc        1 R18      0.050200
     30 H71        -1.7700    3.9680    3.1450 hc        1 R18      0.050200
     31 H8         -2.9240    1.9440    2.3200 hc        1 R18      0.069700
     32 H11        -1.9500    0.6140   -1.3200 ha        1 R18      0.129000
     33 H12        -4.1610    1.5800   -1.8250 ha        1 R18      0.138000
     34 H14        -2.5960    4.0250    0.0670 hc        1 R18      0.055700
     35 H152       -3.3590    5.4640    1.7970 hc        1 R18      0.046700
     36 H151       -4.3810    4.1900    2.5680 hc        1 R18      0.046700
     37 H162       -6.1310    4.9330    1.2180 hc        1 R18      0.051200
     38 H161       -5.0160    5.9440    0.2100 hc        1 R18      0.051200
     39 H183       -4.5450    0.9950    1.4330 hc        1 R18      0.045033
     40 H182       -5.6060    2.4240    1.8220 hc        1 R18      0.045033
     41 H181       -5.9970    1.3570    0.4100 hc        1 R18      0.045033
     42 H273       -3.6510    4.7120   -1.7050 hc        1 R18      0.045033
     43 H272       -5.3250    5.2980   -2.0840 hc        1 R18      0.045033
     44 H271       -4.8170    3.6320   -2.5840 hc        1 R18      0.045033
     45 H97        -7.0710    4.0910   -0.9600 ho        1 R18      0.400000
@<TRIPOS>BOND
     1    1    2 1   
     2    1   10 1   
     3    1   22 1   
     4    1   23 1   
     5    2    3 1   
     6    2   24 1   
     7    2   25 1   
     8    3    4 1   
     9    3   20 2   
    10    4    5 2   
    11    4   26 1   
    12    5    6 1   
    13    5   10 1   
    14    6    7 1   
    15    6   27 1   
    16    6   28 1   
    17    7    8 1   
    18    7   29 1   
    19    7   30 1   
    20    8    9 1   
    21    8   14 1   
    22    8   31 1   
    23    9   10 2   
    24    9   11 1   
    25   11   12 2   
    26   11   32 1   
    27   12   13 1   
    28   12   33 1   
    29   13   14 1   
    30   13   17 1   
    31   13   18 1   
    32   14   15 1   
    33   14   34 1   
    34   15   16 1   
    35   15   35 1   
    36   15   36 1   
    37   16   17 1   
    38   16   37 1   
    39   16   38 1   
    40   17   19 1   
    41   17   21 1   
    42   18   39 1   
    43   18   40 1   
    44   18   41 1   
    45   19   42 1   
    46   19   43 1   
    47   19   44 1   
    48   21   45 1   
@<TRIPOS>SUBSTRUCTURE
     1 R18         1 TEMP              0 ****  ****    0 ROOT
