@<TRIPOS>MOLECULE
R18
   45    48     1     0     0
SMALL
bcc


@<TRIPOS>ATOM
      1 C1          1.6160    0.0060   -2.6930 c3        1 R18     -0.033200
      2 C2          1.4780   -0.5710   -4.0860 c3        1 R18     -0.180400
      3 C3          0.2700   -0.0540   -4.8100 c         1 R18      0.570300
      4 C4         -0.9410    0.0340   -3.9910 ce        1 R18     -0.263200
      5 C5         -0.9030    0.0520   -2.6420 cf        1 R18      0.005800
      6 C6         -2.1840    0.1100   -1.8790 c3        1 R18     -0.055200
      7 C7         -2.0430   -0.4650   -0.4870 c3        1 R18     -0.072400
      8 C8         -0.9110    0.2360    0.2430 c3        1 R18     -0.021500
      9 C9          0.3770    0.1380   -0.5380 ce        1 R18     -0.036200
     10 C10         0.3540    0.0490   -1.8950 cf        1 R18     -0.096200
     11 C11         1.6170    0.1530    0.2310 ce        1 R18     -0.152000
     12 C12         1.6740    0.2430    1.5720 c2        1 R18     -0.118200
     13 C13         0.4270    0.4160    2.3670 c3        1 R18     -0.017800
     14 C14        -0.6960   -0.3480    1.6240 c3        1 R18     -0.065700
     15 C15        -1.8440   -0.3910    2.6210 c3        1 R18     -0.067400
     16 C16        -1.1590   -0.5120    3.9850 c3        1 R18     -0.109400
     17 C17         0.3550   -0.2310    3.7790 c3        1 R18      0.157800
     18 C18         0.1540    1.9130    2.4940 c3        1 R18     -0.074100
     19 C27         1.1720   -1.5090    3.8820 c3        1 R18     -0.119100
     20 O83         0.2900    0.2280   -6.0140 o         1 R18     -0.536100
     21 O97         0.8230    0.7150    4.7340 oh        1 R18     -0.592800
     22 H12A        2.3920   -0.6070   -2.1590 hc        1 R18      0.055200
     23 H11A        2.0140    1.0570   -2.7680 hc        1 R18      0.055200
     24 H22         1.3790   -1.6890   -4.0280 hc        1 R18      0.071700
     25 H21         2.4050   -0.3460   -4.6770 hc        1 R18      0.071700
     26 H4         -1.8950    0.0800   -4.5400 ha        1 R18      0.149000
     27 H62        -2.9870   -0.4450   -2.4350 hc        1 R18      0.058700
     28 H61        -2.5090    1.1850   -1.8110 hc        1 R18      0.058700
     29 H72        -1.8400   -1.5660   -0.5440 hc        1 R18      0.050200
     30 H71        -2.9980   -0.3260    0.0830 hc        1 R18      0.050200
     31 H8         -1.1790    1.3290    0.3350 hc        1 R18      0.069700
     32 H11         2.5580    0.0850   -0.3400 ha        1 R18      0.129000
     33 H12         2.6270    0.2470    2.1200 ha        1 R18      0.138000
     34 H14        -0.3460   -1.4130    1.4770 hc        1 R18      0.055700
     35 H152       -2.5190   -1.2580    2.4250 hc        1 R18      0.046700
     36 H151       -2.4590    0.5410    2.5650 hc        1 R18      0.046700
     37 H162       -1.3090   -1.5320    4.4130 hc        1 R18      0.051200
     38 H161       -1.5810    0.2340    4.7030 hc        1 R18      0.051200
     39 H183        0.1670    2.4050    1.4940 hc        1 R18      0.045033
     40 H182       -0.8370    2.0810    2.9780 hc        1 R18      0.045033
     41 H181        0.9440    2.3830    3.1310 hc        1 R18      0.045033
     42 H273        1.0040   -1.9950    4.8740 hc        1 R18      0.045033
     43 H272        0.8790   -2.2250    3.0790 hc        1 R18      0.045033
     44 H271        2.2590   -1.2760    3.7820 hc        1 R18      0.045033
     45 H97         0.7720    0.2830    5.5950 ho        1 R18      0.400000
@<TRIPOS>BOND
     1    1    2 1   
     2    1   10 1   
     3    1   22 1   
     4    1   23 1   
     5    2    3 1   
     6    2   24 1   
     7    2   25 1   
     8    3    4 1   
     9    3   20 2   
    10    4    5 2   
    11    4   26 1   
    12    5    6 1   
    13    5   10 1   
    14    6    7 1   
    15    6   27 1   
    16    6   28 1   
    17    7    8 1   
    18    7   29 1   
    19    7   30 1   
    20    8    9 1   
    21    8   14 1   
    22    8   31 1   
    23    9   10 2   
    24    9   11 1   
    25   11   12 2   
    26   11   32 1   
    27   12   13 1   
    28   12   33 1   
    29   13   14 1   
    30   13   17 1   
    31   13   18 1   
    32   14   15 1   
    33   14   34 1   
    34   15   16 1   
    35   15   35 1   
    36   15   36 1   
    37   16   17 1   
    38   16   37 1   
    39   16   38 1   
    40   17   19 1   
    41   17   21 1   
    42   18   39 1   
    43   18   40 1   
    44   18   41 1   
    45   19   42 1   
    46   19   43 1   
    47   19   44 1   
    48   21   45 1   
@<TRIPOS>SUBSTRUCTURE
     1 R18         1 TEMP              0 ****  ****    0 ROOT
