@<TRIPOS>MOLECULE
R19
   56    49     1     0     0
SMALL
bcc


@<TRIPOS>ATOM
      1 C2A        -7.6700    0.4980   -5.9550 c1        1 R19     -0.153000
      2 C1A        -6.1590    0.1410   -6.0070 c2        1 R19     -0.044000
      3 N1         -5.5530   -0.0510   -4.3920 n3        1 R19     -0.259000
      4 C1E        -5.9870   -1.6250   -3.8210 c3        1 R19     -0.123000
      5 C1B        -3.8430    0.0810   -4.4170 c3        1 R19     -0.065000
      6 C2B        -3.2800   -0.1100   -2.9670 c3        1 R19     -0.160000
      7 C3B        -1.7180    0.0400   -2.9920 c3        1 R19     -0.158000
      8 C4B        -1.1950    0.2240   -1.5560 c3        1 R19     -0.157000
      9 C5B         0.3110    0.2830   -1.5730 c3        1 R19     -0.165000
     10 C6B         0.8270    0.3050   -0.1570 c3        1 R19     -0.023000
     11 O7B         2.2670    0.4370   -0.1680 os        1 R19     -0.211000
     12 C6C         2.8670    0.4950    1.1690 c2        1 R19      0.107000
     13 C5C         3.6200   -0.6230    1.5740 c2        1 R19     -0.173000
     14 C4C         4.2510   -0.6220    2.8090 c1        1 R19     -0.053000
     15 C3P         4.1380    0.5040    3.6640 c1        1 R19     -0.118000
     16 C3C         4.6100    0.7480    4.9740 c1        1 R19     -0.092000
     17 C1D         5.3660   -0.0530    5.8140 c1        1 R19      0.008000
     18 C6D         6.7540    0.0730    5.8310 c1        1 R19     -0.153000
     19 C5D         7.5170   -0.7240    6.6830 c1        1 R19     -0.153000
     20 C4D         6.8930   -1.6480    7.5190 c1        1 R19     -0.168000
     21 BR27        7.9450   -2.8900    8.5030 br        1 R19      0.053000
     22 C3D         5.5030   -1.7740    7.5020 c1        1 R19     -0.102000
     23 C2D         4.7400   -0.9750    6.6490 c1        1 R19     -0.120000
     24 C2C         4.1530    1.9990    5.3700 c1        1 R19     -0.052000
     25 O1C         3.4110    2.5300    4.3330 os        1 R19     -0.108000
     26 C7P         3.4050    1.5920    3.2710 c1        1 R19      0.048000
     27 C7C         2.7560    1.5930    2.0030 c1        1 R19     -0.204000
     28 C3A        -8.3640    0.6260   -7.0890 c1        1 R19     -0.153000
     29 H2A        -8.1260    0.6320   -5.0680 ha        1 R19      0.133250
     30 H1A1       -6.0370   -0.7170   -6.5120 h4        1 R19      0.076000
     31 H1A2       -5.6410    0.8980   -6.4850 h4        1 R19      0.076000
     32 H1E1       -6.8470   -1.8970   -4.2280 h1        1 R19      0.071667
     33 H1E2       -5.2830   -2.2750   -4.0750 h1        1 R19      0.071667
     34 H1E3       -6.0770   -1.6060   -2.8570 h1        1 R19      0.071667
     35 H1B1       -3.5870    0.9700   -4.7510 h1        1 R19      0.068500
     36 H1B2       -3.4600   -0.6300   -5.0220 h1        1 R19      0.068500
     37 H2B1       -3.5180   -0.9980   -2.6400 hc        1 R19      0.088000
     38 H2B2       -3.6700    0.5820   -2.3650 hc        1 R19      0.088000
     39 H3B1       -1.4770    0.8200   -3.5280 hc        1 R19      0.082000
     40 H3B2       -1.3090   -0.7820   -3.3960 hc        1 R19      0.082000
     41 H4B1       -1.4820   -0.5210   -1.0110 hc        1 R19      0.082000
     42 H4B2       -1.5430    1.0400   -1.1910 hc        1 R19      0.082000
     43 H5B1        0.5970    1.0880   -2.0350 hc        1 R19      0.097500
     44 H5B2        0.6600   -0.4940   -2.0320 hc        1 R19      0.097500
     45 H6B1        0.4400    1.0520    0.3140 h1        1 R19      0.081500
     46 H6B2        0.5790   -0.5310    0.2940 h1        1 R19      0.081500
     47 H5C         3.7980   -1.3730    0.9200 ha        1 R19      0.153000
     48 H4C         4.7670   -1.3870    3.0860 ha        1 R19      0.145000
     49 H6D         7.1920    0.7200    5.2450 ha        1 R19      0.133250
     50 H5D         8.5300   -0.6320    6.6940 ha        1 R19      0.133250
     51 H3D         5.0620   -2.4240    8.0910 ha        1 R19      0.147000
     52 H2D         3.7880   -1.0620    6.6370 ha        1 R19      0.144000
     53 H2C         4.2940    2.4250    6.2810 DU        1 R19      0.151500
     54 H7C         2.2870    2.4240    1.6790 ha        1 R19      0.158000
     55 H3A1       -7.9180    0.4950   -7.9570 DU        1 R19      0.151500
     56 H3A2       -9.3160    0.8510   -7.0560 ha        1 R19      0.133250
@<TRIPOS>BOND
     1    1   28 1   
     2    1   29 1   
     3    2    3 1   
     4    2   30 1   
     5    2   31 1   
     6    3    4 1   
     7    3    5 1   
     8    4   32 1   
     9    4   33 1   
    10    4   34 1   
    11    5    6 1   
    12    5   35 1   
    13    5   36 1   
    14    6    7 1   
    15    6   37 1   
    16    6   38 1   
    17    7    8 1   
    18    7   39 1   
    19    7   40 1   
    20    8    9 1   
    21    8   41 1   
    22    8   42 1   
    23    9   10 1   
    24    9   43 1   
    25    9   44 1   
    26   10   11 1   
    27   10   45 1   
    28   10   46 1   
    29   11   12 1   
    30   12   13 1   
    31   12   27 1   
    32   13   14 1   
    33   13   47 1   
    34   14   48 1   
    35   15   26 1   
    36   16   17 1   
    37   16   24 1   
    38   17   23 1   
    39   18   19 1   
    40   18   49 1   
    41   19   50 1   
    42   20   21 1   
    43   20   22 1   
    44   22   51 1   
    45   23   52 1   
    46   24   25 1   
    47   25   26 1   
    48   27   54 1   
    49   28   56 1   
@<TRIPOS>SUBSTRUCTURE
     1 R19         1 TEMP              0 ****  ****    0 ROOT
