@<TRIPOS>MOLECULE
R19
   56    58     1     0     0
SMALL
bcc


@<TRIPOS>ATOM
      1 C2A         1.8160   -0.2630  -12.0550 c2        1 R19     -0.171200
      2 C1A         0.7680   -0.1420  -10.9930 c3        1 R19      0.200000
      3 N1          1.2880    0.1960   -9.6710 n3        1 R19     -0.729600
      4 C1E         2.1770    1.3340   -9.6770 c3        1 R19      0.153100
      5 C1B         0.2070    0.3140   -8.6990 c3        1 R19      0.169800
      6 C2B         0.6780    0.2840   -7.2460 c3        1 R19     -0.080400
      7 C3B        -0.5160    0.1720   -6.3210 c3        1 R19     -0.079400
      8 C4B        -0.0810    0.1810   -4.8700 c3        1 R19     -0.077400
      9 C5B        -1.2740    0.0650   -3.9470 c3        1 R19     -0.086400
     10 C6B        -0.8180    0.0710   -2.4980 c3        1 R19      0.129400
     11 O7B        -2.0160   -0.0300   -1.7160 os        1 R19     -0.328900
     12 C6C        -1.8490   -0.0520   -0.3460 ca        1 R19      0.150100
     13 C5C        -0.6010    0.0320    0.3000 ca        1 R19     -0.219000
     14 C4C        -0.5130    0.0070    1.6910 ca        1 R19     -0.049000
     15 C3P        -1.6790   -0.0970    2.4400 ca        1 R19     -0.127800
     16 C3C        -2.0080   -0.1650    3.8600 cc        1 R19     -0.071400
     17 C1D        -1.0860   -0.1070    4.9690 ca        1 R19     -0.003800
     18 C6D        -1.3270   -0.8610    6.1270 ca        1 R19     -0.123500
     19 C5D        -0.4470   -0.8060    7.2050 ca        1 R19     -0.101500
     20 C4D         0.6880    0.0080    7.1410 ca        1 R19     -0.027900
     21 BR27        1.8730    0.0830    8.5880 br        1 R19     -0.087100
     22 C3D         0.9340    0.7660    5.9920 ca        1 R19     -0.101500
     23 C2D         0.0540    0.7090    4.9150 ca        1 R19     -0.123500
     24 C2C        -3.3800   -0.2940    3.9360 cd        1 R19     -0.001900
     25 O1C        -3.9790   -0.3090    2.6680 os        1 R19     -0.197200
     26 C7P        -2.9310   -0.1900    1.7520 ca        1 R19      0.091100
     27 C7C        -3.0550   -0.1690    0.3720 ca        1 R19     -0.155000
     28 C3A         2.2300   -1.4310  -12.5380 c2        1 R19     -0.203000
     29 H2A         2.2110    0.6920  -12.4380 ha        1 R19      0.119000
     30 H1A1        0.2260   -1.1260  -10.8880 h1        1 R19      0.033200
     31 H1A2        0.0110    0.6240  -11.3450 h1        1 R19      0.033200
     32 H1E1        3.0500    1.1090  -10.3450 h1        1 R19      0.031367
     33 H1E2        1.6860    2.2810  -10.0350 h1        1 R19      0.031367
     34 H1E3        2.5630    1.5050   -8.6380 h1        1 R19      0.031367
     35 H1B1       -0.3930    1.2580   -8.8610 h1        1 R19      0.029200
     36 H1B2       -0.4920   -0.5570   -8.8560 h1        1 R19      0.029200
     37 H2B1        1.3680   -0.5840   -7.0810 hc        1 R19      0.048700
     38 H2B2        1.2490    1.2180   -7.0050 hc        1 R19      0.048700
     39 H3B1       -1.2210    1.0250   -6.5070 hc        1 R19      0.042700
     40 H3B2       -1.0770   -0.7750   -6.5380 hc        1 R19      0.042700
     41 H4B1        0.6250   -0.6710   -4.6850 hc        1 R19      0.042700
     42 H4B2        0.4770    1.1290   -4.6500 hc        1 R19      0.042700
     43 H5B1       -1.9830    0.9170   -4.1180 hc        1 R19      0.058700
     44 H5B2       -1.8370   -0.8820   -4.1560 hc        1 R19      0.058700
     45 H6B1       -0.1520   -0.8040   -2.2800 h1        1 R19      0.041200
     46 H6B2       -0.2860    1.0260   -2.2460 h1        1 R19      0.041200
     47 H5C         0.3240    0.1150   -0.2880 ha        1 R19      0.141000
     48 H4C         0.4690    0.0620    2.1840 ha        1 R19      0.143000
     49 H6D        -2.2160   -1.5070    6.1810 ha        1 R19      0.140500
     50 H5D        -0.6520   -1.4080    8.1040 ha        1 R19      0.147000
     51 H3D         1.8230    1.4140    5.9320 ha        1 R19      0.147000
     52 H2D         0.2470    1.3160    4.0170 ha        1 R19      0.140500
     53 H2C        -4.0900   -0.3760    4.7550 h4        1 R19      0.194000
     54 H7C        -4.0220   -0.2390   -0.1400 ha        1 R19      0.168000
     55 H3A1        2.9730   -1.5000  -13.3430 ha        1 R19      0.113000
     56 H3A2        1.8590   -2.3950  -12.1650 ha        1 R19      0.113000
@<TRIPOS>BOND
     1    1    2 1   
     2    1   28 2   
     3    1   29 1   
     4    2    3 1   
     5    2   30 1   
     6    2   31 1   
     7    3    4 1   
     8    3    5 1   
     9    4   32 1   
    10    4   33 1   
    11    4   34 1   
    12    5    6 1   
    13    5   35 1   
    14    5   36 1   
    15    6    7 1   
    16    6   37 1   
    17    6   38 1   
    18    7    8 1   
    19    7   39 1   
    20    7   40 1   
    21    8    9 1   
    22    8   41 1   
    23    8   42 1   
    24    9   10 1   
    25    9   43 1   
    26    9   44 1   
    27   10   11 1   
    28   10   45 1   
    29   10   46 1   
    30   11   12 1   
    31   12   13 ar  
    32   12   27 ar  
    33   13   14 ar  
    34   13   47 1   
    35   14   15 ar  
    36   14   48 1   
    37   15   16 1   
    38   15   26 ar  
    39   16   17 1   
    40   16   24 2   
    41   17   18 ar  
    42   17   23 ar  
    43   18   19 ar  
    44   18   49 1   
    45   19   20 ar  
    46   19   50 1   
    47   20   21 1   
    48   20   22 ar  
    49   22   23 ar  
    50   22   51 1   
    51   23   52 1   
    52   24   25 1   
    53   24   53 1   
    54   25   26 1   
    55   26   27 ar  
    56   27   54 1   
    57   28   55 1   
    58   28   56 1   
@<TRIPOS>SUBSTRUCTURE
     1 R19         1 TEMP              0 ****  ****    0 ROOT
