@<TRIPOS>MOLECULE
R1P
   23    23     1     0     0
SMALL
bcc


@<TRIPOS>ATOM
      1 C5'         1.4570   -0.6580    3.3010 c3        1 R1P      0.137400
      2 O5'         2.8550   -0.4880    3.1530 oh        1 R1P     -0.644800
      3 C4'         0.6680    0.0180    2.1820 c3        1 R1P      0.085100
      4 O4'         1.1600   -0.4900    0.9480 os        1 R1P     -0.482600
      5 C1'         0.0710   -0.5950   -0.0130 c3        1 R1P      0.373900
      6 C2'        -1.1960   -0.8770    0.8650 c3        1 R1P      0.080100
      7 O2'        -2.3720   -0.2830    0.3940 oh        1 R1P     -0.674800
      8 C3'        -0.8430   -0.2970    2.2590 c3        1 R1P      0.111100
      9 O3'        -1.5780    0.8650    2.5820 oh        1 R1P     -0.633800
     10 O1'         0.0050    0.5990   -0.6360 os        1 R1P     -0.551200
     11 P          -0.2600    0.5090   -2.3740 p5        1 R1P      1.318900
     12 O1P         0.4900   -0.7420   -2.7310 o         1 R1P     -0.911833
     13 O2P        -1.7590    0.3450   -2.2770 o         1 R1P     -0.911833
     14 O3P         0.2570    1.8100   -2.8980 o         1 R1P     -0.911833
     15 H5'1        1.2330   -1.7590    3.3270 h1        1 R1P      0.017700
     16 H5'2        1.2000   -0.2010    4.2930 h1        1 R1P      0.017700
     17 HO5'        3.0380   -0.4900    2.2030 ho        1 R1P      0.432000
     18 H4'         0.8350    1.1280    2.2060 h1        1 R1P      0.057700
     19 H1'         0.3480   -1.4450   -0.6980 h2        1 R1P      0.106700
     20 H2'        -1.3680   -1.9820    0.9530 h1        1 R1P      0.009700
     21 HO2'       -2.1860    0.0860   -0.5190 ho        1 R1P      0.509000
     22 H3'        -1.0660   -1.0260    3.0820 h1        1 R1P      0.024700
     23 HO3'       -1.8270    1.2800    1.7400 ho        1 R1P      0.439000
@<TRIPOS>BOND
     1    1    2 1   
     2    1    3 1   
     3    1   15 1   
     4    1   16 1   
     5    2   17 1   
     6    3    4 1   
     7    3    8 1   
     8    3   18 1   
     9    4    5 1   
    10    5    6 1   
    11    5   10 1   
    12    5   19 1   
    13    6    7 1   
    14    6    8 1   
    15    6   20 1   
    16    7   21 1   
    17    8    9 1   
    18    8   22 1   
    19    9   23 1   
    20   10   11 1   
    21   11   12 1   
    22   11   13 1   
    23   11   14 1   
@<TRIPOS>SUBSTRUCTURE
     1 R1P         1 TEMP              0 ****  ****    0 ROOT
