@<TRIPOS>MOLECULE
R1S
   32    35     1     0     0
SMALL
bcc


@<TRIPOS>ATOM
      1 CL1         0.0430    0.9540   -0.2090 cl        1 R1S     -0.086400
      2 C02         1.6740    0.5110   -0.0240 ca        1 R1S      0.021400
      3 C03         2.4400    1.1160    0.9650 ca        1 R1S     -0.082000
      4 C04         3.7790    0.7420    1.1000 ca        1 R1S     -0.105100
      5 C05         4.3430   -0.2560    0.2380 ca        1 R1S      0.097400
      6 C06         3.5420   -0.8510   -0.7600 ca        1 R1S     -0.071000
      7 C07         2.2200   -0.4650   -0.8830 ca        1 R1S     -0.124000
      8 N08         5.6830   -0.5620    0.4870 nc        1 R1S     -0.556100
      9 C09         6.1360    0.1850    1.5020 cd        1 R1S      0.586100
     10 N10         7.4380    0.1640    1.9830 nh        1 R1S     -0.809100
     11 S11         7.9550   -0.0020    3.5460 sy        1 R1S      1.532800
     12 O12         9.3610    0.0540    3.4860 o         1 R1S     -0.642800
     13 O13         7.3120    0.9440    4.3650 o         1 R1S     -0.642800
     14 C14         7.4340   -1.5130    3.9740 cc        1 R1S     -0.427300
     15 C15         6.2700   -1.7560    4.6830 cd        1 R1S     -0.038400
     16 S16         5.9920   -3.3560    4.9770 ss        1 R1S      0.159500
     17 C17         7.3940   -3.8710    4.1940 ca        1 R1S     -0.119100
     18 C18         7.8820   -5.1710    4.0140 ca        1 R1S     -0.080000
     19 C19         9.0800   -5.3530    3.3450 ca        1 R1S     -0.127000
     20 C20         9.8060   -4.2490    2.8580 ca        1 R1S     -0.105000
     21 C21         9.3380   -2.9580    3.0260 ca        1 R1S     -0.112000
     22 C22         8.1160   -2.7550    3.6890 ca        1 R1S      0.013200
     23 S23         4.9420    1.2990    2.1810 ss        1 R1S      0.006900
     24 H1          2.0070    1.8790    1.6290 ha        1 R1S      0.156000
     25 H2          3.9720   -1.6120   -1.4280 ha        1 R1S      0.157000
     26 H3          1.5840   -0.9210   -1.6580 ha        1 R1S      0.152000
     27 H4          8.1230    0.0770    1.2570 hn        1 R1S      0.465800
     28 H5          5.5980   -0.9630    5.0330 h4        1 R1S      0.197000
     29 H6          7.3180   -6.0320    4.4020 ha        1 R1S      0.139000
     30 H7          9.4770   -6.3680    3.1940 ha        1 R1S      0.139000
     31 H8         10.7620   -4.4220    2.3410 ha        1 R1S      0.140000
     32 H9          9.9210   -2.0920    2.6700 ha        1 R1S      0.164000
@<TRIPOS>BOND
     1    1    2 1   
     2    2    3 ar  
     3    2    7 ar  
     4    3    4 ar  
     5    3   24 1   
     6    4    5 ar  
     7    4   23 1   
     8    5    6 ar  
     9    5    8 1   
    10    6    7 ar  
    11    6   25 1   
    12    7   26 1   
    13    8    9 2   
    14    9   10 1   
    15    9   23 1   
    16   10   11 1   
    17   10   27 1   
    18   11   12 2   
    19   11   13 2   
    20   11   14 1   
    21   14   15 2   
    22   14   22 1   
    23   15   16 1   
    24   15   28 1   
    25   16   17 1   
    26   17   18 ar  
    27   17   22 ar  
    28   18   19 ar  
    29   18   29 1   
    30   19   20 ar  
    31   19   30 1   
    32   20   21 ar  
    33   20   31 1   
    34   21   22 ar  
    35   21   32 1   
@<TRIPOS>SUBSTRUCTURE
     1 R1S         1 TEMP              0 ****  ****    0 ROOT
