@<TRIPOS>MOLECULE
R1X
   19    19     1     0     0
SMALL
bcc


@<TRIPOS>ATOM
      1 O2'         2.6570    0.2840   -0.1010 oh        1 R1X     -0.590800
      2 C2'         1.4330    0.4140    0.5870 c3        1 R1X      0.081100
      3 C3'         0.5580   -0.8510    0.4040 c3        1 R1X      0.086100
      4 O3'         1.1920   -1.7870   -0.4470 oh        1 R1X     -0.591800
      5 C1'         0.5740    1.5700    0.0580 c3        1 R1X      0.093400
      6 O4'        -0.5620    1.0240   -0.6150 os        1 R1X     -0.427600
      7 C4'        -0.7190   -0.3690   -0.3040 c3        1 R1X      0.091100
      8 C5'        -1.9570   -0.5370    0.5770 c3        1 R1X      0.121400
      9 O5'        -3.1190   -0.0790   -0.0790 oh        1 R1X     -0.593800
     10 HO2'        2.4530    0.1410   -1.0360 ho        1 R1X      0.419000
     11 H2'         1.7270    0.5700    1.6580 h1        1 R1X      0.092700
     12 H3'         0.3280   -1.3300    1.3920 h1        1 R1X      0.058700
     13 HO3'        2.0570   -1.9770   -0.0590 ho        1 R1X      0.419000
     14 H1'         0.2040    2.2170    0.8940 h1        1 R1X      0.062200
     15 H1'A        1.1200    2.1900   -0.6980 h1        1 R1X      0.062200
     16 H4'        -0.8650   -0.8870   -1.2920 h1        1 R1X      0.103700
     17 H5'        -2.1430   -1.6250    0.7810 h1        1 R1X      0.049200
     18 H5'A       -1.8210    0.0170    1.5450 h1        1 R1X      0.049200
     19 HO5'       -2.9340    0.8170   -0.3930 ho        1 R1X      0.415000
@<TRIPOS>BOND
     1    1    2 1   
     2    1   10 1   
     3    2    3 1   
     4    2    5 1   
     5    2   11 1   
     6    3    4 1   
     7    3    7 1   
     8    3   12 1   
     9    4   13 1   
    10    5    6 1   
    11    5   14 1   
    12    5   15 1   
    13    6    7 1   
    14    7    8 1   
    15    7   16 1   
    16    8    9 1   
    17    8   17 1   
    18    8   18 1   
    19    9   19 1   
@<TRIPOS>SUBSTRUCTURE
     1 R1X         1 TEMP              0 ****  ****    0 ROOT
