@<TRIPOS>MOLECULE
R20
   21    22     1     0     0
SMALL
bcc


@<TRIPOS>ATOM
      1 C1          0.0220    0.1470   -0.0190 ca        1 R20     -0.103500
      2 C2         -0.7150    0.1570   -1.2630 cc        1 R20      0.322800
      3 C3          1.4070   -0.0660   -0.0020 ca        1 R20     -0.100000
      4 C4         -0.6570    0.3550    1.1920 ca        1 R20     -0.129000
      5 C5         -2.0910    0.3990   -1.4720 cd        1 R20     -0.219600
      6 C7          2.1090   -0.0720    1.2080 ca        1 R20     -0.078300
      7 C8          0.0430    0.3500    2.3950 ca        1 R20     -0.128000
      8 C11         1.4200    0.1380    2.4080 ca        1 R20     -0.126000
      9 C12         3.5710   -0.3140    1.2140 c3        1 R20     -0.054800
     10 N6         -0.1570   -0.0870   -2.5500 nc        1 R20     -0.350000
     11 N9         -2.2460    0.2820   -2.8560 na        1 R20     -0.062600
     12 N10        -1.0660   -0.0060   -3.4330 nd        1 R20     -0.167800
     13 H3          1.9550   -0.2300   -0.9430 ha        1 R20      0.154000
     14 H4         -1.7430    0.5230    1.1920 ha        1 R20      0.124000
     15 H5         -2.9090    0.6290   -0.7950 h4        1 R20      0.192000
     16 H8         -0.4950    0.5150    3.3410 ha        1 R20      0.131000
     17 H11         1.9680    0.1370    3.3620 ha        1 R20      0.132000
     18 H121        4.0520    0.1340    0.3100 hc        1 R20      0.045700
     19 H122        4.0480    0.1280    2.1240 hc        1 R20      0.045700
     20 H123        3.7750   -1.4140    1.2100 hc        1 R20      0.045700
     21 HN9        -3.0790    0.3860   -3.3840 hn        1 R20      0.326700
@<TRIPOS>BOND
     1    1    2 1   
     2    1    3 ar  
     3    1    4 ar  
     4    2    5 2   
     5    2   10 1   
     6    3    6 ar  
     7    3   13 1   
     8    4    7 ar  
     9    4   14 1   
    10    5   11 1   
    11    5   15 1   
    12    6    8 ar  
    13    6    9 1   
    14    7    8 ar  
    15    7   16 1   
    16    8   17 1   
    17    9   18 1   
    18    9   19 1   
    19    9   20 1   
    20   10   12 2   
    21   11   12 1   
    22   11   21 1   
@<TRIPOS>SUBSTRUCTURE
     1 R20         1 TEMP              0 ****  ****    0 ROOT
