@<TRIPOS>MOLECULE
R20
   21    22     1     0     0
SMALL
bcc


@<TRIPOS>ATOM
      1 C1          0.0210    0.1400   -0.0190 ca        1 R20     -0.103500
      2 C2         -0.7110    0.1710   -1.2650 cc        1 R20      0.322800
      3 C3          1.4150   -0.0110   -0.0050 ca        1 R20     -0.100000
      4 C4         -0.6700    0.2630    1.1970 ca        1 R20     -0.129000
      5 C5         -2.1010    0.3310   -1.4690 cd        1 R20     -0.219600
      6 C7          2.1120   -0.0400    1.2080 ca        1 R20     -0.078300
      7 C8          0.0260    0.2360    2.4020 ca        1 R20     -0.128000
      8 C11         1.4110    0.0850    2.4120 ca        1 R20     -0.126000
      9 C12         3.5840   -0.2150    1.2110 c3        1 R20     -0.054800
     10 N6         -0.1350    0.0410   -2.5610 nc        1 R20     -0.350000
     11 N9         -2.2440    0.2840   -2.8570 na        1 R20     -0.062600
     12 N10        -1.0450    0.1110   -3.4430 nd        1 R20     -0.167800
     13 H3          1.9720   -0.1080   -0.9500 ha        1 R20      0.154000
     14 H4         -1.7630    0.3820    1.1990 ha        1 R20      0.124000
     15 H5         -2.9340    0.4650   -0.7840 h4        1 R20      0.192000
     16 H8         -0.5210    0.3340    3.3510 ha        1 R20      0.131000
     17 H11         1.9560    0.0660    3.3680 ha        1 R20      0.132000
     18 H121        4.0470    0.2940    0.3300 hc        1 R20      0.045700
     19 H122        4.0370    0.2050    2.1420 hc        1 R20      0.045700
     20 H123        3.8370   -1.3040    1.1580 hc        1 R20      0.045700
     21 HN9        -3.0810    0.3610   -3.3840 hn        1 R20      0.326700
@<TRIPOS>BOND
     1    1    2 1   
     2    1    3 ar  
     3    1    4 ar  
     4    2    5 2   
     5    2   10 1   
     6    3    6 ar  
     7    3   13 1   
     8    4    7 ar  
     9    4   14 1   
    10    5   11 1   
    11    5   15 1   
    12    6    8 ar  
    13    6    9 1   
    14    7    8 ar  
    15    7   16 1   
    16    8   17 1   
    17    9   18 1   
    18    9   19 1   
    19    9   20 1   
    20   10   12 2   
    21   11   12 1   
    22   11   21 1   
@<TRIPOS>SUBSTRUCTURE
     1 R20         1 TEMP              0 ****  ****    0 ROOT
