@<TRIPOS>MOLECULE
R20
   21    22     1     0     0
SMALL
bcc


@<TRIPOS>ATOM
      1 C1          0.1700   -0.2450    0.1050 ca        1 R20     -0.103500
      2 C2         -1.2580   -0.0280    0.1620 cc        1 R20      0.322800
      3 C3          1.0650    0.8330    0.1170 ca        1 R20     -0.100000
      4 C4          0.6710   -1.5550    0.0360 ca        1 R20     -0.130000
      5 C5         -2.2980   -0.9860    0.1710 cd        1 R20     -0.219600
      6 C7          2.4450    0.6090    0.0610 ca        1 R20     -0.078300
      7 C8          2.0440   -1.7760   -0.0190 ca        1 R20     -0.128000
      8 C11         2.9310   -0.7010   -0.0060 ca        1 R20     -0.126000
      9 C12         3.3810    1.7580    0.0590 c3        1 R20     -0.054800
     10 N6         -1.8940    1.2450    0.2230 nc        1 R20     -0.350000
     11 N9         -3.4620   -0.2170    0.2360 na        1 R20     -0.062600
     12 N10        -3.1540    1.0930    0.2630 nd        1 R20     -0.167800
     13 H3          0.6880    1.8660    0.1720 ha        1 R20      0.154000
     14 H4         -0.0210   -2.4090    0.0260 ha        1 R20      0.124000
     15 H5         -2.2980   -2.0720    0.1390 h4        1 R20      0.192000
     16 H8          2.4310   -2.8050   -0.0720 ha        1 R20      0.131000
     17 H11         4.0160   -0.8820   -0.0490 ha        1 R20      0.132000
     18 H121        3.5140    2.1390   -0.9850 hc        1 R20      0.045700
     19 H122        2.9870    2.5940    0.6880 hc        1 R20      0.045700
     20 H123        4.3840    1.4600    0.4530 hc        1 R20      0.045700
     21 HN9        -4.4010   -0.5370    0.2600 hn        1 R20      0.326700
@<TRIPOS>BOND
     1    1    2 1   
     2    1    3 ar  
     3    1    4 ar  
     4    2    5 2   
     5    2   10 1   
     6    3    6 ar  
     7    3   13 1   
     8    4    7 ar  
     9    4   14 1   
    10    5   11 1   
    11    5   15 1   
    12    6    8 ar  
    13    6    9 1   
    14    7    8 ar  
    15    7   16 1   
    16    8   17 1   
    17    9   18 1   
    18    9   19 1   
    19    9   20 1   
    20   10   12 2   
    21   11   12 1   
    22   11   21 1   
@<TRIPOS>SUBSTRUCTURE
     1 R20         1 TEMP              0 ****  ****    0 ROOT
