@<TRIPOS>MOLECULE
R21
   43    41     1     0     0
SMALL
bcc


@<TRIPOS>ATOM
      1 Cl          4.0190  -66.5220  -72.2850 cl        1 R21      0.064000
      2 OAA         2.5350   67.4660   75.4150 o         1 R21     -0.874000
      3 CAC         5.7630  -64.5540  -72.8920 c2        1 R21      0.276000
      4 CAD         6.6700  -63.4120  -72.5560 c3        1 R21     -0.227000
      5 CAE         6.8060  -63.0740  -71.1560 c1        1 R21     -0.006000
      6 CAG        -0.4690   66.6870   79.2040 c1        1 R21      0.098000
      7 CAH        -0.0480   67.3610   78.1650 c2        1 R21      0.060000
      8 CAI         1.2530   67.2970   77.5900 c2        1 R21     -1.064000
      9 SAJ         1.6070   68.0200   76.2670 s6        1 R21      2.866000
     10 NAK         2.7660   69.4430   77.0220 nz        1 R21     -0.494000
     11 CAL         5.0610  -65.2490  -71.8730 c2        1 R21     -0.293000
     12 CAM         5.2230  -64.8910  -70.5470 c2        1 R21      0.138000
     13 CAN         6.1030  -63.8190  -70.1700 c2        1 R21     -0.296000
     14 CAO         6.2870  -63.4870  -68.8470 c2        1 R21      0.207000
     15 CAP         3.4540  -64.7210  -67.7640 c1        1 R21      0.151000
     16 NAQ         4.3550  -61.8020  -68.1140 n9        1 R21     -0.434000
     17 CAR        -0.2990   65.9690   81.6170 cx        1 R21     -0.092000
     18 CAS        -1.5960   66.6360   81.4710 cx        1 R21     -0.092000
     19 CAT        -0.9920   65.9370   80.2150 cx        1 R21     -0.218000
     20 CAU         3.0250   65.7850   78.7420 c1        1 R21     -0.151000
     21 CAV         2.2130   66.4860   78.2090 c1        1 R21     -0.161000
     22 OAW         0.5850   68.8130   75.7650 o         1 R21     -0.874000
     23 HOAB        5.0860  -65.5940  -74.3670 ho        1 R21      0.289000
     24 HAD         6.3270  -62.4830  -73.1160 hc        1 R21      0.222000
     25 HAE         7.7080  -63.6200  -72.9720 hc        1 R21      0.222000
     26 HAG        -1.4570   64.9670   79.9170 hc        1 R21      0.185000
     27 HAH        -0.7920   68.0470   77.6770 ha        1 R21      0.229000
     28 HNAK        2.9010   69.3110   78.0160 hn        1 R21      0.234333
     29 HNAA        2.3560   70.3560   76.8660 hn        1 R21      0.234333
     30 HAM         4.6590  -65.4270  -69.7500 ha        1 R21      0.201000
     31 HAO         6.9590  -62.6560  -68.5670 ha        1 R21      0.165500
     32 HAOA        5.8050  -64.0560  -68.0320 ha        1 R21      0.165500
     33 HNAQ        4.9510  -61.0910  -67.7390 hn        1 R21      0.151333
     34 HAR         3.8690  -61.4240  -68.9030 hn        1 R21      0.151333
     35 HARA        3.6840  -62.0550  -67.4160 hn        1 R21      0.151333
     36 HAS        -0.2290   64.9800   82.1140 hc        1 R21      0.157750
     37 HASA        0.6260   66.5670   81.7160 hc        1 R21      0.157750
     38 HAU        -1.6520   67.7420   81.4640 hc        1 R21      0.157750
     39 HAV         3.7600   65.1600   79.1890 ha        1 R21      0.246000
     40 OAF         2.6810  -64.2090  -67.0530 o         1 R21     -0.146000
     41 HAK3        3.6740   69.4190   76.5690 hn        1 R21      0.234333
     42 HAQ2       -2.5190   66.1620   81.8630 hc        1 R21      0.157750
     43 OAB         5.6860  -64.8350  -74.1830 oh        1 R21     -0.152000
@<TRIPOS>BOND
     1    1   11 1   
     2    2    9 1   
     3    3    4 1   
     4    3   11 1   
     5    3   43 1   
     6    4    5 1   
     7    4   24 1   
     8    4   25 1   
     9    5   13 1   
    10    6    7 1   
    11    6   19 1   
    12    7    8 1   
    13    7   27 1   
    14    8    9 1   
    15    8   21 1   
    16    9   10 1   
    17    9   22 1   
    18   10   28 1   
    19   10   29 1   
    20   10   41 1   
    21   11   12 1   
    22   12   13 1   
    23   12   30 1   
    24   13   14 1   
    25   14   31 1   
    26   14   32 1   
    27   15   40 1   
    28   16   33 1   
    29   16   34 1   
    30   16   35 1   
    31   17   18 1   
    32   17   19 1   
    33   17   36 1   
    34   17   37 1   
    35   18   19 1   
    36   18   38 1   
    37   18   42 1   
    38   19   26 1   
    39   20   21 1   
    40   20   39 1   
    41   23   43 1   
@<TRIPOS>SUBSTRUCTURE
     1 R21         1 TEMP              0 ****  ****    0 ROOT
