@<TRIPOS>MOLECULE
R21
   43    40     1     0     0
SMALL
bcc


@<TRIPOS>ATOM
      1 CL         57.7510 -241.8180 -389.5640 cl        1 R21      0.041000
      2 OAA       -62.6370  310.0940  508.5050 o         1 R21     -0.468900
      3 CAC        55.2140 -242.1360 -390.4110 c2        1 R21      0.193000
      4 CAD        53.8130 -241.6760 -390.6550 c3        1 R21     -0.161000
      5 CAE        53.5330 -240.3160 -390.2590 c1        1 R21     -0.215000
      6 CAG       -60.8210  309.1610  504.0240 c1        1 R21      0.078000
      7 CAH       -61.6030  308.9110  505.0400 c2        1 R21      0.064000
      8 CAI       -61.5000  309.4970  506.3390 c2        1 R21     -1.061000
      9 SAJ       -62.5300  309.2460  507.4410 s4        1 R21      2.104800
     10 NAK       -61.3610  307.7170  508.6050 n3        1 R21     -0.485000
     11 CAL        56.1620 -241.2920 -389.8390 c2        1 R21     -0.277000
     12 CAM        55.8130 -239.9710 -389.4770 c2        1 R21      0.120000
     13 CAN        54.5190 -239.5160 -389.6920 c2        1 R21     -0.284000
     14 CAO        54.1020 -238.1210 -389.3230 c3        1 R21     -0.049000
     15 CAP        50.2740 -234.7430 -389.2480 c1        1 R21      0.271000
     16 NAQ        52.6640 -237.9180 -389.6690 n4        1 R21     -0.091000
     17 CAR        49.4670 -233.7310 -389.1270 c2        1 R21     -0.378000
     18 CAS       -58.9480  308.8220  502.5770 c2        1 R21      0.111000
     19 CAT       -60.1060  309.4690  502.9090 c2        1 R21     -0.178000
     20 CAU       -59.5230  311.1320  506.7660 c1        1 R21     -0.140000
     21 CAV       -60.4320  310.3780  506.5730 c1        1 R21     -0.163000
     22 OAW       -63.5510  308.3870  507.1080 o         1 R21     -0.468900
     23 HOAB       56.3610 -243.6660 -390.6150 ho        1 R21      0.268000
     24 HAD        53.0950 -242.3730 -390.1190 hc        1 R21      0.204000
     25 HAE        53.5690 -241.7980 -391.7570 hc        1 R21      0.204000
     26 HAG       -60.4820  310.2940  502.2640 ha        1 R21      0.191000
     27 HAH       -62.4330  308.1750  504.8730 ha        1 R21      0.226000
     28 HNAK      -60.4440  307.5780  508.2210 hn        1 R21      0.204333
     29 HNAA      -61.8570  306.8420  508.6110 hn        1 R21      0.204333
     30 HAM        56.5850 -239.3210 -389.0250 ha        1 R21      0.168000
     31 HAO        54.7210 -237.3640 -389.8840 hx        1 R21      0.133000
     32 HAOA       54.2380 -237.9490 -388.2180 hx        1 R21      0.133000
     33 HNAQ       52.3250 -238.8420 -390.0910 hn        1 R21      0.267667
     34 HAR        52.1140 -237.6890 -388.8400 hn        1 R21      0.267667
     35 HARA       52.5500 -237.1610 -390.3440 hn        1 R21      0.267667
     36 HAS        48.4180 -233.7860 -389.4510 ha        1 R21      0.200000
     37 HASA       49.7960 -232.7760 -388.6950 ha        1 R21      0.200000
     38 HAU       -58.5300  307.9980  503.1800 ha        1 R21      0.164500
     39 HAV       -58.7290  311.8130  506.9610 ha        1 R21      0.246000
     40 OAF        51.0210 -235.6790 -389.3600 o         1 R21     -0.292000
     41 HAK3      -61.2750  308.0510  509.5500 hn        1 R21      0.204333
     42 HAQ2      -58.3730  309.1100  501.6780 ha        1 R21      0.164500
     43 OAB        55.4350 -243.4040 -390.7920 oh        1 R21     -0.194000
@<TRIPOS>BOND
     1    1   11 1   
     2    2    9 1   
     3    3    4 1   
     4    3   11 1   
     5    3   43 1   
     6    4    5 1   
     7    4   24 1   
     8    4   25 1   
     9    5   13 1   
    10    6    7 1   
    11    6   19 1   
    12    7    8 1   
    13    7   27 1   
    14    8    9 1   
    15    8   21 1   
    16    9   22 1   
    17   10   28 1   
    18   10   29 1   
    19   10   41 1   
    20   11   12 1   
    21   12   13 1   
    22   12   30 1   
    23   13   14 1   
    24   14   16 1   
    25   14   31 1   
    26   14   32 1   
    27   15   17 1   
    28   15   40 1   
    29   16   33 1   
    30   16   34 1   
    31   16   35 1   
    32   17   36 1   
    33   17   37 1   
    34   18   19 1   
    35   18   38 1   
    36   18   42 1   
    37   19   26 1   
    38   20   21 1   
    39   20   39 1   
    40   23   43 1   
@<TRIPOS>SUBSTRUCTURE
     1 R21         1 TEMP              0 ****  ****    0 ROOT
