@<TRIPOS>MOLECULE
R21
   43    40     1     0     0
SMALL
bcc


@<TRIPOS>ATOM
      1 CL        -26.1960 -143.2770 -226.2520 cl        1 R21      0.073000
      2 OAA        31.5650  128.8820  203.5330 o         1 R21     -0.476400
      3 CAC       -25.8310 -142.5650 -223.6710 c2        1 R21      0.300000
      4 CAD       -25.7100 -142.8510 -222.2060 c3        1 R21     -0.236000
      5 CAE       -25.9270 -144.2160 -221.7800 c1        1 R21      0.012000
      6 CAG        27.8780  129.2360  206.6560 c1        1 R21     -0.159000
      7 CAH        28.2550  129.1010  205.4110 c2        1 R21      0.060000
      8 CAI        29.5890  129.4470  204.9480 c2        1 R21     -1.131000
      9 SAJ        30.2250  128.7420  203.7780 s4        1 R21      2.110800
     10 NAK        29.6770  130.2700  202.1080 n3        1 R21     -0.481000
     11 CAL       -26.1120 -143.6200 -224.5950 c2        1 R21     -0.269000
     12 CAM       -26.3080 -144.9040 -224.1460 c2        1 R21      0.105000
     13 CAN       -26.2310 -145.2280 -222.7400 c2        1 R21     -0.269000
     14 CAO       -26.4410 -146.5000 -222.2850 c2        1 R21      0.132000
     15 CAP       -28.5640 -139.6330 -225.4550 c1        1 R21      0.266000
     16 NAQ        28.2680  131.6740  208.3880 n4        1 R21     -0.079000
     17 CAR       -29.4050 -138.7340 -225.8740 c2        1 R21     -0.381000
     18 CAS        27.1150  130.7110  208.4360 c3        1 R21     -0.078000
     19 CAT        27.5480  129.3840  207.9090 c2        1 R21     -0.185000
     20 CAU        30.7580  131.3250  206.3130 c1        1 R21     -0.302000
     21 CAV        30.2440  130.4490  205.6740 c1        1 R21     -0.027000
     22 OAW        29.5130  127.7340  203.1760 o         1 R21     -0.476400
     23 HOAB      -25.7930 -141.1310 -224.9650 ho        1 R21      0.310000
     24 HAD       -26.4350 -142.1840 -221.6340 hc        1 R21      0.225000
     25 HAE       -24.6840 -142.5250 -221.8380 hc        1 R21      0.225000
     26 HAG        27.5810  128.5540  208.6350 ha        1 R21      0.179000
     27 HAH        27.5440  128.7080  204.6550 ha        1 R21      0.174000
     28 HNAK       29.1710  131.0620  202.4530 hn        1 R21      0.193000
     29 HNAA       29.1250  129.7980  201.4150 hn        1 R21      0.193000
     30 HAM       -26.5250 -145.7150 -224.8700 ha        1 R21      0.184000
     31 HAO       -26.3750 -146.7280 -221.2050 ha        1 R21      0.166500
     32 HAOA      -26.6800 -147.3380 -222.9600 ha        1 R21      0.166500
     33 HNAQ       27.9420  132.6330  208.5150 hn        1 R21      0.254667
     34 HAR        28.9410  131.4470  209.1260 hn        1 R21      0.254667
     35 HARA       28.7550  131.5860  207.4780 hn        1 R21      0.254667
     36 HAS       -29.5500 -137.7850 -225.3390 ha        1 R21      0.198500
     37 HASA      -30.0080 -138.8830 -226.7800 ha        1 R21      0.198500
     38 HAU        26.7690  130.6320  209.5050 hx        1 R21      0.147500
     39 HAV        31.3140  132.0760  206.8160 ha        1 R21      0.234000
     40 OAF       -27.7890 -140.4660 -225.0660 o         1 R21     -0.277000
     41 HAK3       30.5360  130.5800  201.6900 hn        1 R21      0.193000
     42 HAQ2       26.2830  131.1480  207.8110 hx        1 R21      0.147500
     43 OAB       -25.6470 -141.3060 -224.0020 oh        1 R21     -0.129000
@<TRIPOS>BOND
     1    1   11 1   
     2    2    9 1   
     3    3    4 1   
     4    3   11 1   
     5    3   43 1   
     6    4    5 1   
     7    4   24 1   
     8    4   25 1   
     9    5   13 1   
    10    6    7 1   
    11    6   19 1   
    12    7    8 1   
    13    7   27 1   
    14    8    9 1   
    15    8   21 1   
    16    9   22 1   
    17   10   28 1   
    18   10   29 1   
    19   10   41 1   
    20   11   12 1   
    21   12   13 1   
    22   12   30 1   
    23   13   14 1   
    24   14   31 1   
    25   14   32 1   
    26   15   17 1   
    27   15   40 1   
    28   16   18 1   
    29   16   33 1   
    30   16   34 1   
    31   16   35 1   
    32   17   36 1   
    33   17   37 1   
    34   18   19 1   
    35   18   38 1   
    36   18   42 1   
    37   19   26 1   
    38   20   21 1   
    39   20   39 1   
    40   23   43 1   
@<TRIPOS>SUBSTRUCTURE
     1 R21         1 TEMP              0 ****  ****    0 ROOT
