@<TRIPOS>MOLECULE
R21
   41    42     1     0     0
SMALL
bcc


@<TRIPOS>ATOM
      1 CL          5.5640   -1.0690    2.4450 cl        1 R21     -0.089400
      2 OAA        -6.9680   -0.1780   -1.5470 o         1 R21     -0.658800
      3 CAC         5.8660   -0.6920   -0.2200 ca        1 R21      0.144100
      4 CAD         5.5990   -0.0090   -1.4220 ca        1 R21     -0.147000
      5 CAE         4.7390    1.0790   -1.4180 ca        1 R21     -0.080000
      6 CAG        -2.9560   -0.5610    1.2560 ca        1 R21     -0.156500
      7 CAH        -4.2690   -0.9280    0.9780 ca        1 R21     -0.015500
      8 CAI        -5.0570   -0.1760    0.0980 ca        1 R21     -0.389500
      9 SAJ        -6.6430   -0.6400   -0.2530 sy        1 R21      1.528200
     10 NAK        -7.5090    0.1700    0.8240 n3        1 R21     -1.026700
     11 CAL         5.2600   -0.2670    0.9760 ca        1 R21     -0.072600
     12 CAM         4.3970    0.8320    0.9640 ca        1 R21     -0.093000
     13 CAN         4.1290    1.5080   -0.2290 ca        1 R21     -0.121300
     14 CAO         3.2240    2.6850   -0.2360 c3        1 R21     -0.107100
     15 CAP         1.7720    2.3560   -0.5490 c         1 R21      0.660100
     16 NAQ         1.2590    1.1670   -0.0790 n         1 R21     -0.571900
     17 CAR        -0.1070    0.7780   -0.2760 c3        1 R21      0.096000
     18 CAS        -1.0020    0.9830    0.9550 c3        1 R21     -0.074100
     19 CAT        -2.4000    0.5730    0.6530 ca        1 R21     -0.015300
     20 CAU        -3.1790    1.3280   -0.2340 ca        1 R21     -0.156500
     21 CAV        -4.4890    0.9520   -0.5070 ca        1 R21     -0.015500
     22 OAW        -6.7670   -2.0230    0.0000 o         1 R21     -0.658800
     23 HOAB        6.8450   -2.1380    0.5690 ho        1 R21      0.433000
     24 HAD         6.0820   -0.3530   -2.3480 ha        1 R21      0.161000
     25 HAE         4.5320    1.6130   -2.3590 ha        1 R21      0.148000
     26 HAG        -2.3540   -1.1680    1.9490 ha        1 R21      0.144500
     27 HAH        -4.6960   -1.8350    1.4410 ha        1 R21      0.153000
     28 HNAK       -7.8860    1.0690    0.6590 hn        1 R21      0.446800
     29 HNAA       -7.7450   -0.1860    1.7160 hn        1 R21      0.446800
     30 HAM         3.9330    1.1700    1.9040 ha        1 R21      0.147000
     31 HAO         3.2410    3.2000    0.7630 hc        1 R21      0.084700
     32 HAOA        3.5660    3.4300   -1.0060 hc        1 R21      0.084700
     33 HNAQ        1.8380    0.5710    0.4630 hn        1 R21      0.315500
     34 HAR        -0.5350    1.3740   -1.1350 h1        1 R21      0.067200
     35 HARA       -0.1270   -0.3150   -0.5570 h1        1 R21      0.067200
     36 HAS        -0.6030    0.3910    1.8210 hc        1 R21      0.059200
     37 HASA       -0.9920    2.0660    1.2530 hc        1 R21      0.059200
     38 HAU        -2.7470    2.2190   -0.7170 ha        1 R21      0.144500
     39 HAV        -5.0900    1.5380   -1.2250 ha        1 R21      0.153000
     40 OAB         6.7270   -1.7550   -0.3150 oh        1 R21     -0.486100
     41 OAF         1.0720    3.1560   -1.2030 o         1 R21     -0.610100
@<TRIPOS>BOND
     1    1   11 1   
     2    2    9 2   
     3    3    4 ar  
     4    3   11 ar  
     5    3   40 1   
     6    4    5 ar  
     7    4   24 1   
     8    5   13 ar  
     9    5   25 1   
    10    6    7 ar  
    11    6   19 ar  
    12    6   26 1   
    13    7    8 ar  
    14    7   27 1   
    15    8    9 1   
    16    8   21 ar  
    17    9   10 1   
    18    9   22 2   
    19   10   28 1   
    20   10   29 1   
    21   11   12 ar  
    22   12   13 ar  
    23   12   30 1   
    24   13   14 1   
    25   14   15 1   
    26   14   31 1   
    27   14   32 1   
    28   15   16 1   
    29   15   41 2   
    30   16   17 1   
    31   16   33 1   
    32   17   18 1   
    33   17   34 1   
    34   17   35 1   
    35   18   19 1   
    36   18   36 1   
    37   18   37 1   
    38   19   20 ar  
    39   20   21 ar  
    40   20   38 1   
    41   21   39 1   
    42   23   40 1   
@<TRIPOS>SUBSTRUCTURE
     1 R21         1 TEMP              0 ****  ****    0 ROOT
