@<TRIPOS>MOLECULE
R22
   46    46     1     0     0
SMALL
bcc


@<TRIPOS>ATOM
      1 C1'         0.2960    0.5840    0.2410 c3        1 R22      0.337300
      2 C2'         1.7350    0.5460    0.1160 c1        1 R22     -0.156100
      3 C3'         2.9260    0.5330    0.0020 c1        1 R22     -0.072100
      4 C4'        -0.1600   -0.4810    4.9800 c3        1 R22     -0.091100
      5 C5'        -0.4770    0.5220    2.7670 c1        1 R22     -0.078100
      6 C6'        -0.1350    0.5280    1.6200 c1        1 R22     -0.184100
      7 O7'        -0.2020   -0.5690   -0.5030 os        1 R22     -0.342900
      8 C8'         4.3450    0.5300   -0.1330 c3        1 R22     -0.027000
      9 C9'        -0.9010    0.5320    4.1350 c3        1 R22     -0.009300
     10 N1         -4.1880   -0.6710   -1.6760 ns        1 R22     -0.431100
     11 C2         -3.3680    0.2890   -2.3090 c         1 R22      0.707700
     12 C3         -1.9660    0.3460   -1.8950 cc        1 R22     -0.170400
     13 C4         -1.5280   -0.4920   -0.8970 cd        1 R22      0.249100
     14 C5         -2.4020   -1.4580   -0.2810 cd        1 R22     -0.225200
     15 C6         -3.7210   -1.5290   -0.7120 cc        1 R22      0.120400
     16 C7         -4.6540   -2.5390   -0.1260 c3        1 R22     -0.092900
     17 I9         -0.7800    1.6270   -2.9120 i         1 R22     -0.076800
     18 C10        -1.8920   -2.3500    0.7760 c3        1 R22      0.060900
     19 S11        -1.5920   -4.0300    0.2810 ss        1 R22     -0.330200
     20 C12        -0.2640   -3.9230   -0.9010 c3        1 R22      0.082800
     21 C13        -0.7070   -4.2670   -2.2050 c1        1 R22     -0.133100
     22 O14        -2.7880   -6.8400   -4.0500 oh        1 R22     -0.502100
     23 C15        -2.2890   -5.9160   -4.9220 c2        1 R22      0.066100
     24 C16        -1.5090   -4.8620   -4.6030 ce        1 R22     -0.156700
     25 C17        -1.0860   -4.5550   -3.3070 cg        1 R22     -0.146300
     26 H2'        -0.1040    1.5320   -0.2400 h1        1 R22      0.096700
     27 H4'         0.9370   -0.2730    4.9740 hc        1 R22      0.042367
     28 H6'        -0.3250   -1.5150    4.5940 hc        1 R22      0.042367
     29 H8'1        4.8310    0.2040    0.8230 hc        1 R22      0.061367
     30 H8'2        4.6570   -0.1740   -0.9490 hc        1 R22      0.061367
     31 H8'3        4.7180    1.5560   -0.3890 hc        1 R22      0.061367
     32 H9'1       -0.5270   -0.4310    6.0340 hc        1 R22      0.042367
     33 H9'2       -2.0080    0.3220    4.1790 hc        1 R22      0.063200
     34 H9'3       -0.7430    1.5640    4.5590 hc        1 R22      0.063200
     35 HN1        -5.1370   -0.7400   -1.9780 hn        1 R22      0.338500
     36 H71        -5.6040   -2.6410   -0.7040 hc        1 R22      0.073033
     37 H72        -4.1370   -3.5370   -0.1060 hc        1 R22      0.073033
     38 H73        -4.9050   -2.2450    0.9240 hc        1 R22      0.073033
     39 H101       -2.6430   -2.4580    1.6030 h1        1 R22      0.087200
     40 H102       -0.9530   -1.9200    1.2140 h1        1 R22      0.087200
     41 H121        0.1740   -2.8870   -0.8920 h1        1 R22      0.099700
     42 H122        0.5240   -4.6420   -0.5510 h1        1 R22      0.099700
     43 H15        -2.4900   -6.6230   -3.1520 ho        1 R22      0.428000
     44 H16        -2.6210   -6.1530   -5.9470 h4        1 R22      0.168000
     45 H17        -1.1680   -4.1770   -5.3980 ha        1 R22      0.157000
     46 O8         -3.9230    1.0050   -3.1630 o         1 R22     -0.620500
@<TRIPOS>BOND
     1    1    2 1   
     2    1    6 1   
     3    1    7 1   
     4    1   26 1   
     5    2    3 3   
     6    3    8 1   
     7    4    9 1   
     8    4   27 1   
     9    4   28 1   
    10    4   32 1   
    11    5    6 3   
    12    5    9 1   
    13    7   13 1   
    14    8   29 1   
    15    8   30 1   
    16    8   31 1   
    17    9   33 1   
    18    9   34 1   
    19   10   11 1   
    20   10   15 1   
    21   10   35 1   
    22   11   12 1   
    23   11   46 2   
    24   12   13 2   
    25   12   17 1   
    26   13   14 1   
    27   14   15 2   
    28   14   18 1   
    29   15   16 1   
    30   16   36 1   
    31   16   37 1   
    32   16   38 1   
    33   18   19 1   
    34   18   39 1   
    35   18   40 1   
    36   19   20 1   
    37   20   21 1   
    38   20   41 1   
    39   20   42 1   
    40   21   25 3   
    41   22   23 1   
    42   22   43 1   
    43   23   24 2   
    44   23   44 1   
    45   24   25 1   
    46   24   45 1   
@<TRIPOS>SUBSTRUCTURE
     1 R22         1 TEMP              0 ****  ****    0 ROOT
