@<TRIPOS>MOLECULE
R22
   46    46     1     0     0
SMALL
bcc


@<TRIPOS>ATOM
      1 C1'         0.1450    0.0570    0.8400 c3        1 R22      0.126000
      2 C2'         1.5740   -0.1170    0.9110 c1        1 R22     -0.186000
      3 C3'         2.7620   -0.2610    0.9490 c1        1 R22     -0.104000
      4 C4'         0.5050    1.7220    3.3540 c3        1 R22     -0.209000
      5 C5'        -0.2810    0.4610    3.3170 c2        1 R22     -0.174000
      6 C6'        -0.5740   -0.2000    2.0940 c1        1 R22     -0.075000
      7 O7'        -0.3080   -0.8700   -0.1950 os        1 R22     -0.223000
      8 C8'         4.1780   -0.4200    1.0040 c3        1 R22     -0.118000
      9 C9'        -0.7720   -0.0930    4.4500 c2        1 R22     -0.043000
     10 N1         -4.1560   -0.5220   -1.7240 n         1 R22     -0.275000
     11 C2         -3.2310    0.4770   -2.0970 c2        1 R22      0.346000
     12 C3         -1.8840    0.3790   -1.5390 c2        1 R22     -0.430000
     13 C4         -1.5920   -0.6420   -0.6630 c2        1 R22      0.216000
     14 C5         -2.5780   -1.6240   -0.2910 c2        1 R22     -0.202000
     15 C6         -3.8420   -1.5420   -0.8600 c2        1 R22      0.113000
     16 C7         -4.8850   -2.5630   -0.5350 c3        1 R22     -0.213000
     17 I9         -0.5380    1.7450   -2.1750 i         1 R22      0.187000
     18 C10        -2.2450   -2.6690    0.6940 c3        1 R22     -0.204000
     19 S11        -1.9600   -4.2920    0.0270 ss        1 R22      0.024000
     20 C12        -0.4840   -4.1260   -0.9570 c3        1 R22     -0.152000
     21 C13        -0.7630   -4.3570   -2.3300 c1        1 R22     -0.154000
     22 O14        -2.9580   -6.4590   -4.5850 oh        1 R22     -0.258000
     23 C15        -2.1650   -5.6340   -5.3290 c2        1 R22      0.020000
     24 C16        -1.2640   -4.7530   -4.8480 c2        1 R22     -0.187000
     25 C17        -1.0050   -4.5510   -3.4890 c1        1 R22     -0.118000
     26 H2'        -0.1000    1.1160    0.4950 h1        1 R22      0.143000
     27 H4'         1.4810    1.5830    2.8240 hc        1 R22      0.088000
     28 H6'        -0.0580    2.5400    2.8380 hc        1 R22      0.088000
     29 H8'1        4.4860   -0.8760    1.9800 hc        1 R22      0.101333
     30 H8'2        4.5240   -1.0890    0.1730 hc        1 R22      0.101333
     31 H8'3        4.6900    0.5720    0.8960 hc        1 R22      0.101333
     32 H9'1        0.7140    2.0500    4.4010 hc        1 R22      0.088000
     33 H9'2       -0.5640    0.3280    5.4450 ha        1 R22      0.127000
     34 H9'3       -1.3800   -1.0100    4.4280 ha        1 R22      0.127000
     35 HN1        -5.0670   -0.4840   -2.1310 hn        1 R22      0.250000
     36 H71        -5.7560   -2.5310   -1.2330 hc        1 R22      0.110667
     37 H72        -4.4190   -3.5830   -0.5880 hc        1 R22      0.110667
     38 H73        -5.2560   -2.3920    0.5070 hc        1 R22      0.110667
     39 H101       -3.0990   -2.8320    1.4030 h1        1 R22      0.135500
     40 H102       -1.3560   -2.3390    1.2980 h1        1 R22      0.135500
     41 H121       -0.0370   -3.1050   -0.8080 h1        1 R22      0.138500
     42 H122        0.2430   -4.8890   -0.5700 h1        1 R22      0.138500
     43 H15        -2.7740   -6.3130   -3.6430 ho        1 R22      0.228000
     44 H16        -2.3670   -5.7900   -6.4020 h4        1 R22      0.167000
     45 H17        -0.6790   -4.1330   -5.5500 ha        1 R22      0.155000
     46 O8         -3.6550    1.3570   -2.8710 o         1 R22     -0.351000
@<TRIPOS>BOND
     1    1    2 1   
     2    1    6 1   
     3    1    7 1   
     4    1   26 1   
     5    2    3 1   
     6    3    8 1   
     7    4    5 1   
     8    4   27 1   
     9    4   28 1   
    10    4   32 1   
    11    5    6 1   
    12    5    9 1   
    13    7   13 1   
    14    8   29 1   
    15    8   30 1   
    16    8   31 1   
    17    9   33 1   
    18    9   34 1   
    19   10   11 1   
    20   10   15 1   
    21   10   35 1   
    22   11   12 1   
    23   11   46 1   
    24   12   13 1   
    25   12   17 1   
    26   13   14 1   
    27   14   15 1   
    28   14   18 1   
    29   15   16 1   
    30   16   36 1   
    31   16   37 1   
    32   16   38 1   
    33   18   19 1   
    34   18   39 1   
    35   18   40 1   
    36   19   20 1   
    37   20   21 1   
    38   20   41 1   
    39   20   42 1   
    40   21   25 1   
    41   22   23 1   
    42   22   43 1   
    43   23   24 1   
    44   23   44 1   
    45   24   25 1   
    46   24   45 1   
@<TRIPOS>SUBSTRUCTURE
     1 R22         1 TEMP              0 ****  ****    0 ROOT
