@<TRIPOS>MOLECULE
R22
   46    48     1     0     0
SMALL
bcc


@<TRIPOS>ATOM
      1 C1'        -0.1210    2.2580    0.6090 ca        1 R22      0.112100
      2 C2'         0.0490    3.4490   -0.1120 ca        1 R22     -0.160000
      3 C3'        -0.7570    4.5450    0.2050 ca        1 R22     -0.044800
      4 C4'        -1.7170    4.4360    1.2180 ca        1 R22     -0.148000
      5 C5'        -1.8810    3.2420    1.9260 ca        1 R22     -0.044800
      6 C6'        -1.0720    2.1400    1.6250 ca        1 R22     -0.160000
      7 O7'         0.7900    1.2450    0.2980 os        1 R22     -0.268200
      8 C8'        -0.5930    5.8250   -0.5250 c3        1 R22     -0.056800
      9 C9'        -2.9140    3.1310    2.9820 c3        1 R22     -0.056800
     10 N1         -0.0800   -2.7440    1.0780 n         1 R22     -0.433100
     11 C2         -0.8370   -2.1200    0.0620 c         1 R22      0.704700
     12 C3         -0.5630   -0.7070   -0.2000 cc        1 R22     -0.157400
     13 C4          0.3840   -0.0620    0.5570 cd        1 R22      0.236100
     14 C5          1.1320   -0.7360    1.5860 cd        1 R22     -0.230200
     15 C6          0.8790   -2.0850    1.8060 cc        1 R22      0.119400
     16 C7          1.6470   -2.8360    2.8450 c3        1 R22     -0.092900
     17 I9         -1.5940    0.1670   -1.7000 i         1 R22     -0.064800
     18 C10         2.1370   -0.0040    2.3780 c3        1 R22      0.054900
     19 S11         3.8260   -0.3820    1.9830 ss        1 R22     -0.312200
     20 C12         4.0930    0.4350    0.4230 c3        1 R22     -0.037600
     21 C13         4.7300   -0.4680   -0.5320 cc        1 R22      0.248000
     22 O14         6.1250   -0.3550   -0.6550 os        1 R22     -0.360800
     23 C15         6.5120   -1.2830   -1.6190 cc        1 R22      0.242600
     24 C16         5.4120   -1.9630   -2.1000 cd        1 R22     -0.265300
     25 C17         4.2620   -1.4370   -1.4020 cd        1 R22     -0.237300
     26 H2'         0.8050    3.5060   -0.9070 ha        1 R22      0.148000
     27 H4'        -2.3520    5.3030    1.4570 ha        1 R22      0.136000
     28 H6'        -1.1890    1.1950    2.1730 ha        1 R22      0.148000
     29 H8'1        0.0110    6.5390    0.0900 hc        1 R22      0.048033
     30 H8'2       -0.0670    5.6700   -1.4990 hc        1 R22      0.048033
     31 H8'3       -1.5870    6.2930   -0.7290 hc        1 R22      0.048033
     32 H9'1       -2.5710    2.4600    3.8070 hc        1 R22      0.048033
     33 H9'2       -3.1540    4.1330    3.4170 hc        1 R22      0.048033
     34 H9'3       -3.8530    2.7020    2.5500 hc        1 R22      0.048033
     35 HN1        -0.2440   -3.7150    1.2470 hn        1 R22      0.339500
     36 H71         1.3310   -2.4910    3.8620 hc        1 R22      0.074367
     37 H72         1.4980   -3.9420    2.7830 hc        1 R22      0.074367
     38 H73         2.7410   -2.6140    2.7140 hc        1 R22      0.074367
     39 H101        1.9690    1.0990    2.2840 h1        1 R22      0.086200
     40 H102        2.0560   -0.2750    3.4640 h1        1 R22      0.086200
     41 H121        3.1140    0.7970    0.0130 h1        1 R22      0.097200
     42 H122        4.7500    1.3210    0.6150 h1        1 R22      0.097200
     43 H15         7.5800   -1.3050   -1.8160 h4        1 R22      0.052100
     44 H16         5.3910   -2.7430   -2.8570 ha        1 R22      0.162000
     45 H17         3.2320   -1.7530   -1.5450 ha        1 R22      0.164000
     46 O8         -1.6740   -2.8370   -0.5180 o         1 R22     -0.614500
@<TRIPOS>BOND
     1    1    2 ar  
     2    1    6 ar  
     3    1    7 1   
     4    2    3 ar  
     5    2   26 1   
     6    3    4 ar  
     7    3    8 1   
     8    4    5 ar  
     9    4   27 1   
    10    5    6 ar  
    11    5    9 1   
    12    6   28 1   
    13    7   13 1   
    14    8   29 1   
    15    8   30 1   
    16    8   31 1   
    17    9   32 1   
    18    9   33 1   
    19    9   34 1   
    20   10   11 1   
    21   10   15 1   
    22   10   35 1   
    23   11   12 1   
    24   11   46 2   
    25   12   13 2   
    26   12   17 1   
    27   13   14 1   
    28   14   15 2   
    29   14   18 1   
    30   15   16 1   
    31   16   36 1   
    32   16   37 1   
    33   16   38 1   
    34   18   19 1   
    35   18   39 1   
    36   18   40 1   
    37   19   20 1   
    38   20   21 1   
    39   20   41 1   
    40   20   42 1   
    41   21   22 1   
    42   21   25 2   
    43   22   23 1   
    44   23   24 2   
    45   23   43 1   
    46   24   25 1   
    47   24   44 1   
    48   25   45 1   
@<TRIPOS>SUBSTRUCTURE
     1 R22         1 TEMP              0 ****  ****    0 ROOT
