@<TRIPOS>MOLECULE
R23
   64    67     1     0     0
SMALL
bcc


@<TRIPOS>ATOM
      1 C4E        -1.4520    1.7980   -9.6010 c3        1 R23     -0.078400
      2 C5E        -1.8970    0.3550   -9.6900 c3        1 R23     -0.076900
      3 C6E        -0.9490   -0.5640   -8.9220 c3        1 R23      0.168300
      4 N1E        -0.7430   -0.1480   -7.5390 n3        1 R23     -0.728600
      5 C2E        -0.3390    1.2480   -7.4240 c3        1 R23      0.168300
      6 C3E        -1.2750    2.2080   -8.1550 c3        1 R23     -0.076900
      7 C1D         0.1650   -1.0520   -6.8420 c3        1 R23      0.215100
      8 C4C         0.2360   -0.8310   -5.3600 ca        1 R23     -0.087300
      9 C3C        -0.9280   -0.7390   -4.5910 ca        1 R23     -0.117500
     10 C2C        -0.8480   -0.5860   -3.2080 ca        1 R23     -0.130000
     11 C1C         0.3970   -0.5250   -2.5700 ca        1 R23     -0.075300
     12 C6C         1.5600   -0.6190   -3.3430 ca        1 R23     -0.130000
     13 C5C         1.4810   -0.7680   -4.7260 ca        1 R23     -0.117500
     14 C4B         0.4670   -0.3630   -1.0850 c3        1 R23     -0.023400
     15 C3B         1.1580   -1.5570   -0.4360 c3        1 R23     -0.068900
     16 C2B         1.2320   -1.3940    1.0670 c3        1 R23     -0.099900
     17 C1B         1.9770   -0.0990    1.4320 c3        1 R23      0.105700
     18 C6B         1.2500    1.0970    0.7970 c3        1 R23     -0.099900
     19 C5B         1.1830    0.9280   -0.7060 c3        1 R23     -0.068900
     20 N4          2.1860    0.0740    2.8710 n         1 R23     -0.421800
     21 C1          1.0640    0.1080    3.6930 c         1 R23      0.736100
     22 O3          1.3650   -0.1030    5.0400 os        1 R23     -0.372200
     23 C1F         0.3670    0.1270    5.9840 ca        1 R23      0.124100
     24 C6F         0.2770   -0.8250    7.0110 ca        1 R23     -0.128000
     25 C5F        -0.6050   -0.6010    8.0640 ca        1 R23     -0.110000
     26 C4F        -1.3950    0.5540    8.0760 ca        1 R23      0.004400
     27 C3F        -1.3110    1.4910    7.0410 ca        1 R23     -0.110000
     28 C2F        -0.4240    1.2810    5.9870 ca        1 R23     -0.128000
     29 C1A         3.4300   -0.4210    3.4030 c3        1 R23      0.072300
     30 O2         -0.1120    0.3460    3.3850 o         1 R23     -0.564000
     31 CL31       -2.4740    0.8190    9.3640 cl        1 R23     -0.094400
     32 H4E1       -0.4820    1.9280  -10.1510 hc        1 R23      0.039700
     33 H4E2       -2.2090    2.4610  -10.0950 hc        1 R23      0.039700
     34 H5E1       -1.9190    0.0220  -10.7600 hc        1 R23      0.046700
     35 H5E2       -2.9350    0.2560   -9.2780 hc        1 R23      0.046700
     36 H6E1        0.0290   -0.6210   -9.4860 h1        1 R23      0.030950
     37 H6E2       -1.3900   -1.6010   -8.9010 h1        1 R23      0.030950
     38 H2E1       -0.3360    1.5020   -6.3260 h1        1 R23      0.030950
     39 H2E2        0.7100    1.4060   -7.8150 h1        1 R23      0.030950
     40 H3E1       -0.8400    3.2380   -8.0950 hc        1 R23      0.046700
     41 H3E2       -2.2720    2.2260   -7.6440 hc        1 R23      0.046700
     42 H1D1        1.2110   -0.9960   -7.2730 h1        1 R23      0.037700
     43 H1D2       -0.2110   -2.1030   -7.0110 h1        1 R23      0.037700
     44 H3C        -1.9120   -0.7840   -5.0830 ha        1 R23      0.138500
     45 H2C        -1.7720   -0.5130   -2.6150 ha        1 R23      0.131000
     46 H6C         2.5460   -0.5720   -2.8570 ha        1 R23      0.131000
     47 H5C         2.4050   -0.8370   -5.3190 ha        1 R23      0.138500
     48 H4B        -0.5830   -0.3080   -0.6740 hc        1 R23      0.061700
     49 H3B1        2.1910   -1.6690   -0.8590 hc        1 R23      0.045950
     50 H3B2        0.5910   -2.4930   -0.6780 hc        1 R23      0.045950
     51 H2B1        1.7630   -2.2770    1.5090 hc        1 R23      0.060450
     52 H2B2        0.1980   -1.3590    1.5010 hc        1 R23      0.060450
     53 H1B         3.0120   -0.1520    0.9740 h1        1 R23      0.059700
     54 H6B1        0.2140    1.1750    1.2220 hc        1 R23      0.060450
     55 H6B2        1.7930    2.0460    1.0400 hc        1 R23      0.060450
     56 H5B1        2.2190    0.9240   -1.1370 hc        1 R23      0.045950
     57 H5B2        0.6370    1.8000   -1.1500 hc        1 R23      0.045950
     58 H6F         0.9070   -1.7250    6.9830 ha        1 R23      0.156500
     59 H5F        -0.6810   -1.3350    8.8800 ha        1 R23      0.150500
     60 H3F        -1.9410    2.3930    7.0530 ha        1 R23      0.150500
     61 H2F        -0.3630    1.9960    5.1530 ha        1 R23      0.156500
     62 H1A1        3.5580   -0.0720    4.4620 h1        1 R23      0.049367
     63 H1A2        3.4730   -1.5440    3.3820 h1        1 R23      0.049367
     64 H1A3        4.2730   -0.0130    2.7840 h1        1 R23      0.049367
@<TRIPOS>BOND
     1    1    2 1   
     2    1    6 1   
     3    1   32 1   
     4    1   33 1   
     5    2    3 1   
     6    2   34 1   
     7    2   35 1   
     8    3    4 1   
     9    3   36 1   
    10    3   37 1   
    11    4    5 1   
    12    4    7 1   
    13    5    6 1   
    14    5   38 1   
    15    5   39 1   
    16    6   40 1   
    17    6   41 1   
    18    7    8 1   
    19    7   42 1   
    20    7   43 1   
    21    8    9 ar  
    22    8   13 ar  
    23    9   10 ar  
    24    9   44 1   
    25   10   11 ar  
    26   10   45 1   
    27   11   12 ar  
    28   11   14 1   
    29   12   13 ar  
    30   12   46 1   
    31   13   47 1   
    32   14   15 1   
    33   14   19 1   
    34   14   48 1   
    35   15   16 1   
    36   15   49 1   
    37   15   50 1   
    38   16   17 1   
    39   16   51 1   
    40   16   52 1   
    41   17   18 1   
    42   17   20 1   
    43   17   53 1   
    44   18   19 1   
    45   18   54 1   
    46   18   55 1   
    47   19   56 1   
    48   19   57 1   
    49   20   21 1   
    50   20   29 1   
    51   21   22 1   
    52   21   30 2   
    53   22   23 1   
    54   23   24 ar  
    55   23   28 ar  
    56   24   25 ar  
    57   24   58 1   
    58   25   26 ar  
    59   25   59 1   
    60   26   27 ar  
    61   26   31 1   
    62   27   28 ar  
    63   27   60 1   
    64   28   61 1   
    65   29   62 1   
    66   29   63 1   
    67   29   64 1   
@<TRIPOS>SUBSTRUCTURE
     1 R23         1 TEMP              0 ****  ****    0 ROOT
