@<TRIPOS>MOLECULE
R23
   65    68     1     0     0
SMALL
bcc


@<TRIPOS>ATOM
      1 C4E         0.9090   -0.8740   -0.7370 c3        1 R23     -0.080400
      2 C5E         2.1800   -0.4560   -0.0310 c3        1 R23     -0.076900
      3 C6E         1.9300   -0.2020    1.4540 c3        1 R23      0.168300
      4 N1E         1.2810   -1.3220    2.1270 n3        1 R23     -0.731600
      5 C2E         0.0680   -1.7640    1.4490 c3        1 R23      0.168300
      6 C3E         0.2790   -2.0570   -0.0340 c3        1 R23     -0.076900
      7 C1D         1.0540   -1.0420    3.5390 c3        1 R23      0.209100
      8 C4C         0.7610   -2.2640    4.3600 ca        1 R23     -0.063300
      9 C3C         1.5420   -3.4180    4.2370 ca        1 R23     -0.111500
     10 C2C         1.2900   -4.5270    5.0430 ca        1 R23     -0.125500
     11 C1C         0.2570   -4.4980    5.9870 ca        1 R23     -0.107300
     12 C6C        -0.5220   -3.3420    6.1090 ca        1 R23     -0.125500
     13 C5C        -0.2740   -2.2350    5.3010 ca        1 R23     -0.111500
     14 C4B         0.0030   -5.6950    6.8450 c3        1 R23     -0.015400
     15 C3B         0.1970   -5.3610    8.3190 c3        1 R23     -0.076900
     16 C2B        -0.0590   -6.5670    9.2000 c3        1 R23     -0.099400
     17 C1B        -1.4760   -7.0890    8.9550 c3        1 R23      0.138500
     18 C6B        -1.6690   -7.4580    7.4800 c3        1 R23     -0.099400
     19 C5B        -1.3990   -6.2450    6.6110 c3        1 R23     -0.076900
     20 N4         -1.8400   -8.2670    9.8520 n4        1 R23     -0.557200
     21 C1         -0.9020   -9.4180    9.6380 c         1 R23      0.607100
     22 O3         -1.4860  -10.3450    8.8280 os        1 R23     -0.322200
     23 C1F        -0.7150  -11.4790    8.4930 ca        1 R23      0.043100
     24 C6F        -0.8200  -12.6210    9.2920 ca        1 R23     -0.095000
     25 C5F        -0.1820  -13.7850    8.8680 ca        1 R23     -0.109000
     26 C4F         0.5490  -13.7870    7.6720 ca        1 R23      0.045400
     27 C3F         0.6480  -12.6270    6.8900 ca        1 R23     -0.109000
     28 C2F         0.0160  -11.4560    7.3010 ca        1 R23     -0.095000
     29 C1A        -1.8690   -7.8930   11.2880 c3        1 R23      0.089100
     30 O2          0.2060   -9.4960   10.1430 o         1 R23     -0.405000
     31 CL31        1.3230  -15.2010    7.1670 cl        1 R23     -0.031400
     32 H4E1        1.1360   -1.1400   -1.8020 hc        1 R23      0.044200
     33 H4E2        0.1860   -0.0160   -0.7520 hc        1 R23      0.044200
     34 H5E1        2.9580   -1.2550   -0.1520 hc        1 R23      0.049200
     35 H5E2        2.5830    0.4850   -0.4850 hc        1 R23      0.049200
     36 H6E1        1.3240    0.7470    1.5580 h1        1 R23      0.030950
     37 H6E2        2.9210   -0.0300    1.9620 h1        1 R23      0.030950
     38 H2E1       -0.7590   -1.0000    1.5470 h1        1 R23      0.030950
     39 H2E2       -0.2760   -2.7050    1.9640 h1        1 R23      0.030950
     40 H3E1        0.9350   -2.9580   -0.1530 hc        1 R23      0.049200
     41 H3E2       -0.7150   -2.2940   -0.4920 hc        1 R23      0.049200
     42 H1D1        0.2190   -0.2920    3.6850 h1        1 R23      0.044700
     43 H1D2        1.9970   -0.5780    3.9560 h1        1 R23      0.044700
     44 H3C         2.3570   -3.4510    3.4960 ha        1 R23      0.150000
     45 H2C         1.9120   -5.4280    4.9340 ha        1 R23      0.126000
     46 H6C        -1.3390   -3.3020    6.8460 ha        1 R23      0.126000
     47 H5C        -0.8970   -1.3330    5.4070 ha        1 R23      0.150000
     48 H4B         0.7440   -6.5020    6.5710 hc        1 R23      0.058700
     49 H3B1       -0.4860   -4.5200    8.6100 hc        1 R23      0.072200
     50 H3B2        1.2500   -5.0110    8.4860 hc        1 R23      0.072200
     51 H2B1        0.6940   -7.3690    8.9740 hc        1 R23      0.067200
     52 H2B2        0.0680   -6.2700   10.2740 hc        1 R23      0.067200
     53 H1B        -2.2170   -6.2770    9.2320 hx        1 R23      0.104700
     54 H6B1       -0.9690   -8.2910    7.2010 hc        1 R23      0.067200
     55 H6B2       -2.7180   -7.8140    7.2980 hc        1 R23      0.067200
     56 H5B1       -1.5100   -6.5420    5.5350 hc        1 R23      0.072200
     57 H5B2       -2.1590   -5.4480    6.8200 hc        1 R23      0.072200
     58 H6F        -1.3980  -12.6080   10.2270 ha        1 R23      0.155500
     59 H5F        -0.2560  -14.7020    9.4760 ha        1 R23      0.173500
     60 H3F         1.2250  -12.6370    5.9500 ha        1 R23      0.173500
     61 H2F         0.0820  -10.5390    6.6970 ha        1 R23      0.155500
     62 H1A1       -0.8210   -7.7080   11.6500 hx        1 R23      0.111367
     63 H1A2       -2.3230   -8.7340   11.8780 hx        1 R23      0.111367
     64 H1A3       -2.4850   -6.9630   11.4130 hx        1 R23      0.111367
     65 H41        -2.7810   -8.5800    9.5640 hn        1 R23      0.467800
@<TRIPOS>BOND
     1    1    2 1   
     2    1    6 1   
     3    1   32 1   
     4    1   33 1   
     5    2    3 1   
     6    2   34 1   
     7    2   35 1   
     8    3    4 1   
     9    3   36 1   
    10    3   37 1   
    11    4    5 1   
    12    4    7 1   
    13    5    6 1   
    14    5   38 1   
    15    5   39 1   
    16    6   40 1   
    17    6   41 1   
    18    7    8 1   
    19    7   42 1   
    20    7   43 1   
    21    8    9 ar  
    22    8   13 ar  
    23    9   10 ar  
    24    9   44 1   
    25   10   11 ar  
    26   10   45 1   
    27   11   12 ar  
    28   11   14 1   
    29   12   13 ar  
    30   12   46 1   
    31   13   47 1   
    32   14   15 1   
    33   14   19 1   
    34   14   48 1   
    35   15   16 1   
    36   15   49 1   
    37   15   50 1   
    38   16   17 1   
    39   16   51 1   
    40   16   52 1   
    41   17   18 1   
    42   17   20 1   
    43   17   53 1   
    44   18   19 1   
    45   18   54 1   
    46   18   55 1   
    47   19   56 1   
    48   19   57 1   
    49   20   21 1   
    50   20   29 1   
    51   20   65 1   
    52   21   22 1   
    53   21   30 2   
    54   22   23 1   
    55   23   24 ar  
    56   23   28 ar  
    57   24   25 ar  
    58   24   58 1   
    59   25   26 ar  
    60   25   59 1   
    61   26   27 ar  
    62   26   31 1   
    63   27   28 ar  
    64   27   60 1   
    65   28   61 1   
    66   29   62 1   
    67   29   63 1   
    68   29   64 1   
@<TRIPOS>SUBSTRUCTURE
     1 R23         1 TEMP              0 ****  ****    0 ROOT
