@<TRIPOS>MOLECULE
R23
   65    68     1     0     0
SMALL
bcc


@<TRIPOS>ATOM
      1 C4E         0.9240   -0.8570   -0.7280 c3        1 R23     -0.080400
      2 C5E         2.1960   -0.4440   -0.0200 c3        1 R23     -0.076900
      3 C6E         1.9470   -0.1920    1.4660 c3        1 R23      0.168300
      4 N1E         1.2940   -1.3120    2.1350 n3        1 R23     -0.731600
      5 C2E         0.0810   -1.7500    1.4570 c3        1 R23      0.168300
      6 C3E         0.2920   -2.0400   -0.0270 c3        1 R23     -0.076900
      7 C1D         1.0680   -1.0340    3.5480 c3        1 R23      0.209100
      8 C4C         0.7710   -2.2570    4.3670 ca        1 R23     -0.063300
      9 C3C         1.5500   -3.4130    4.2430 ca        1 R23     -0.111500
     10 C2C         1.2960   -4.5220    5.0460 ca        1 R23     -0.125500
     11 C1C         0.2610   -4.4940    5.9880 ca        1 R23     -0.107300
     12 C6C        -0.5160   -3.3370    6.1120 ca        1 R23     -0.125500
     13 C5C        -0.2650   -2.2280    5.3070 ca        1 R23     -0.111500
     14 C4B         0.0040   -5.6920    6.8430 c3        1 R23     -0.015400
     15 C3B         0.1960   -5.3610    8.3180 c3        1 R23     -0.076900
     16 C2B        -0.0640   -6.5690    9.1970 c3        1 R23     -0.099400
     17 C1B        -1.4820   -7.0880    8.9480 c3        1 R23      0.138500
     18 C6B        -1.6720   -7.4540    7.4710 c3        1 R23     -0.099400
     19 C5B        -1.3980   -6.2400    6.6060 c3        1 R23     -0.076900
     20 N4         -1.8490   -8.2680    9.8410 nx        1 R23     -0.557200
     21 C1         -0.9120   -9.4190    9.6290 c         1 R23      0.607100
     22 O3         -1.4940  -10.3430    8.8140 os        1 R23     -0.322200
     23 C1F        -0.7240  -11.4780    8.4800 ca        1 R23      0.043100
     24 C6F        -0.8330  -12.6220    9.2760 ca        1 R23     -0.095000
     25 C5F        -0.1950  -13.7850    8.8520 ca        1 R23     -0.109000
     26 C4F         0.5400  -13.7850    7.6580 ca        1 R23      0.045400
     27 C3F         0.6430  -12.6240    6.8790 ca        1 R23     -0.109000
     28 C2F         0.0110  -11.4530    7.2900 ca        1 R23     -0.095000
     29 C1A        -1.8820   -7.8960   11.2780 c3        1 R23      0.089100
     30 O2          0.1950   -9.4990   10.1370 o         1 R23     -0.405000
     31 Cl31        1.3140  -15.2000    7.1530 cl        1 R23     -0.031400
     32 H4E1        1.1510   -1.1220   -1.7930 hc        1 R23      0.044200
     33 H4E2        0.2040    0.0030   -0.7410 hc        1 R23      0.044200
     34 H5E1        2.9720   -1.2440   -0.1420 hc        1 R23      0.049200
     35 H5E2        2.6020    0.4980   -0.4720 hc        1 R23      0.049200
     36 H6E1        2.9380   -0.0230    1.9740 h1        1 R23      0.030700
     37 H6E2        1.3420    0.7580    1.5710 h1        1 R23      0.030700
     38 H2E1       -0.7450   -0.9840    1.5560 h1        1 R23      0.030700
     39 H2E2       -0.2650   -2.6910    1.9700 h1        1 R23      0.030700
     40 H3E1        0.9460   -2.9430   -0.1480 hc        1 R23      0.049200
     41 H3E2       -0.7030   -2.2740   -0.4860 hc        1 R23      0.049200
     42 H1D1        2.0120   -0.5730    3.9670 h1        1 R23      0.044700
     43 H1D2        0.2350   -0.2820    3.6950 h1        1 R23      0.044700
     44 H3C         2.3660   -3.4450    3.5030 ha        1 R23      0.150000
     45 H2C         1.9170   -5.4240    4.9360 ha        1 R23      0.126000
     46 H6C        -1.3330   -3.2960    6.8470 ha        1 R23      0.126000
     47 H5C        -0.8870   -1.3260    5.4130 ha        1 R23      0.150000
     48 H4B         0.7440   -6.5000    6.5690 hc        1 R23      0.058700
     49 H3B1        1.2490   -5.0130    8.4890 hc        1 R23      0.072200
     50 H3B2       -0.4870   -4.5200    8.6100 hc        1 R23      0.072200
     51 H2B1        0.0610   -6.2740   10.2720 hc        1 R23      0.067200
     52 H2B2        0.6880   -7.3720    8.9710 hc        1 R23      0.067200
     53 H1B        -2.2220   -6.2750    9.2240 hx        1 R23      0.104700
     54 H6B1       -0.9730   -8.2870    7.1920 hc        1 R23      0.067200
     55 H6B2       -2.7210   -7.8080    7.2870 hc        1 R23      0.067200
     56 H5B1       -1.5080   -6.5340    5.5280 hc        1 R23      0.072200
     57 H5B2       -2.1580   -5.4420    6.8150 hc        1 R23      0.072200
     58 H6F        -1.4140  -12.6090   10.2100 ha        1 R23      0.155500
     59 H5F        -0.2710  -14.7030    9.4580 ha        1 R23      0.173500
     60 H3F         1.2220  -12.6330    5.9410 ha        1 R23      0.173500
     61 H2F         0.0800  -10.5350    6.6880 ha        1 R23      0.155500
     62 H1A1       -0.8340   -7.7120   11.6430 hx        1 R23      0.111367
     63 H1A2       -2.3370   -8.7370   11.8660 hx        1 R23      0.111367
     64 H1A3       -2.4980   -6.9650   11.4030 hx        1 R23      0.111367
     65 H41        -2.7900   -8.5780    9.5500 hn        1 R23      0.467800
@<TRIPOS>BOND
     1    1    2 1   
     2    1    6 1   
     3    1   32 1   
     4    1   33 1   
     5    2    3 1   
     6    2   34 1   
     7    2   35 1   
     8    3    4 1   
     9    3   36 1   
    10    3   37 1   
    11    4    5 1   
    12    4    7 1   
    13    5    6 1   
    14    5   38 1   
    15    5   39 1   
    16    6   40 1   
    17    6   41 1   
    18    7    8 1   
    19    7   42 1   
    20    7   43 1   
    21    8    9 ar  
    22    8   13 ar  
    23    9   10 ar  
    24    9   44 1   
    25   10   11 ar  
    26   10   45 1   
    27   11   12 ar  
    28   11   14 1   
    29   12   13 ar  
    30   12   46 1   
    31   13   47 1   
    32   14   15 1   
    33   14   19 1   
    34   14   48 1   
    35   15   16 1   
    36   15   49 1   
    37   15   50 1   
    38   16   17 1   
    39   16   51 1   
    40   16   52 1   
    41   17   18 1   
    42   17   20 1   
    43   17   53 1   
    44   18   19 1   
    45   18   54 1   
    46   18   55 1   
    47   19   56 1   
    48   19   57 1   
    49   20   21 1   
    50   20   29 1   
    51   20   65 1   
    52   21   22 1   
    53   21   30 2   
    54   22   23 1   
    55   23   24 ar  
    56   23   28 ar  
    57   24   25 ar  
    58   24   58 1   
    59   25   26 ar  
    60   25   59 1   
    61   26   27 ar  
    62   26   31 1   
    63   27   28 ar  
    64   27   60 1   
    65   28   61 1   
    66   29   62 1   
    67   29   63 1   
    68   29   64 1   
@<TRIPOS>SUBSTRUCTURE
     1 R23         1 TEMP              0 ****  ****    0 ROOT
