@<TRIPOS>MOLECULE
R23
   64    63     1     0     0
SMALL
bcc


@<TRIPOS>ATOM
      1 C4E         4.5200   -3.2520   -6.8440 c3        1 R23     -0.157000
      2 C5E         4.0370   -1.8560   -6.7420 c3        1 R23     -0.155500
      3 C6E         4.3900   -1.2140   -5.4000 c3        1 R23     -0.068500
      4 N1E         3.9750   -2.0380   -4.2590 n3        1 R23     -0.254000
      5 C2E         4.4510   -3.4310   -4.3560 c3        1 R23     -0.068500
      6 C3E         4.0990   -4.0770   -5.6890 c3        1 R23     -0.155500
      7 C1D         4.4760   -1.4390   -3.0060 c3        1 R23     -0.029000
      8 C4C         3.3160   -1.3350   -1.9820 c2        1 R23     -0.079000
      9 C3C         3.2340   -2.2450   -0.9310 c2        1 R23     -0.128000
     10 C2C         2.2440   -2.0980    0.0440 c1        1 R23     -0.129000
     11 C1C         1.3320   -1.0330   -0.0350 c1        1 R23     -0.070000
     12 C6C         1.4130   -0.1280   -1.0790 c1        1 R23     -0.130000
     13 C5C         2.4090   -0.2750   -2.0600 c1        1 R23     -0.106000
     14 C4B         0.1910   -0.9090    1.0100 c3        1 R23     -0.068000
     15 C3B         0.5530    0.1750    2.0110 c3        1 R23     -0.150500
     16 C2B        -0.5880    0.4870    2.9660 c3        1 R23     -0.169000
     17 C1B        -1.8800    0.7770    2.2470 c3        1 R23      0.018000
     18 C6B        -2.2410   -0.3080    1.2430 c3        1 R23     -0.169000
     19 C5B        -1.1010   -0.6180    0.2890 c3        1 R23     -0.150500
     20 N4         -2.9490    0.8790    3.2250 n         1 R23     -0.287000
     21 C1         -3.7360    2.1350    3.3400 c2        1 R23      0.393000
     22 O3         -4.9050    2.1710    4.1570 os        1 R23     -0.233000
     23 C1F        -5.3090    3.4600    4.5080 c2        1 R23      0.072000
     24 C6F        -4.9220    4.0010    5.7350 c2        1 R23     -0.126000
     25 C5F        -5.4090    5.2340    6.1300 c1        1 R23     -0.115000
     26 C4F        -6.2820    5.9320    5.3070 c1        1 R23     -0.070000
     27 C3F        -6.6680    5.3930    4.0830 c1        1 R23     -0.112000
     28 C2F        -6.1830    4.1600    3.6860 c1        1 R23     -0.119000
     29 C1A        -3.3120   -0.2810    4.0260 c3        1 R23     -0.079000
     30 O2         -3.3470    3.1670    2.7680 o         1 R23     -0.379000
     31 CL31       -6.9590    7.4420    5.8420 cl        1 R23     -0.015000
     32 H4E1        4.1580   -3.6570   -7.6770 hc        1 R23      0.079000
     33 H4E2        5.5100   -3.2470   -6.8930 hc        1 R23      0.079000
     34 H5E1        3.0550   -1.8480   -6.8530 hc        1 R23      0.086000
     35 H5E2        4.4450   -1.3230   -7.4670 hc        1 R23      0.086000
     36 H6E1        3.9490   -0.3460   -5.3400 h1        1 R23      0.070250
     37 H6E2        5.3580   -1.0800   -5.3580 h1        1 R23      0.070250
     38 H2E1        4.0430   -3.9610   -3.6250 h1        1 R23      0.070250
     39 H2E2        5.4270   -3.4390   -4.2490 h1        1 R23      0.070250
     40 H3E1        3.1320   -4.2110   -5.7310 hc        1 R23      0.086000
     41 H3E2        4.5420   -4.9470   -5.7450 hc        1 R23      0.086000
     42 H1D1        5.1910   -2.0090   -2.6340 h1        1 R23      0.077500
     43 H1D2        4.8330   -0.5440   -3.1890 h1        1 R23      0.077500
     44 H3C         3.8800   -3.0010   -0.8750 ha        1 R23      0.130000
     45 H2C         2.1850   -2.7380    0.7830 ha        1 R23      0.130000
     46 H6C         0.7680    0.6250   -1.1340 ha        1 R23      0.133000
     47 H5C         2.4660    0.3610   -2.7940 ha        1 R23      0.148000
     48 H4B         0.1030   -1.7650    1.4890 hc        1 R23      0.091000
     49 H3B1        1.3290   -0.1190    2.5300 hc        1 R23      0.089750
     50 H3B2        0.7870    0.9880    1.5250 hc        1 R23      0.089750
     51 H2B1       -0.7220   -0.2780    3.5600 hc        1 R23      0.088000
     52 H2B2       -0.3440    1.2690    3.5050 hc        1 R23      0.088000
     53 H1B        -1.7970    1.6340    1.7750 h1        1 R23      0.131000
     54 H6B1       -3.0070   -0.0160    0.7300 hc        1 R23      0.088000
     55 H6B2       -2.4770   -1.1210    1.7290 hc        1 R23      0.088000
     56 H5B1       -1.3430   -1.3930   -0.2490 hc        1 R23      0.089750
     57 H5B2       -0.9690    0.1390   -0.2970 hc        1 R23      0.089750
     58 H6F        -4.3090    3.5100    6.3130 ha        1 R23      0.151000
     59 H5F        -5.1340    5.6180    7.0010 ha        1 R23      0.150000
     60 H3F        -7.2790    5.8830    3.5080 ha        1 R23      0.151000
     61 H2F        -6.4590    3.7760    2.8100 ha        1 R23      0.165000
     62 H1A1       -2.6960   -1.0360    3.8150 h1        1 R23      0.087000
     63 H1A2       -4.2350   -0.5450    3.8220 h1        1 R23      0.087000
     64 H1A3       -3.2390   -0.0550    4.9800 h1        1 R23      0.087000
@<TRIPOS>BOND
     1    1    2 1   
     2    1    6 1   
     3    1   32 1   
     4    1   33 1   
     5    2    3 1   
     6    2   34 1   
     7    2   35 1   
     8    3    4 1   
     9    3   36 1   
    10    3   37 1   
    11    4    5 1   
    12    4    7 1   
    13    5    6 1   
    14    5   38 1   
    15    5   39 1   
    16    6   40 1   
    17    6   41 1   
    18    7    8 1   
    19    7   42 1   
    20    7   43 1   
    21    8    9 1   
    22    8   13 1   
    23    9   10 1   
    24    9   44 1   
    25   10   45 1   
    26   11   12 1   
    27   11   14 1   
    28   12   46 1   
    29   13   47 1   
    30   14   15 1   
    31   14   19 1   
    32   14   48 1   
    33   15   16 1   
    34   15   49 1   
    35   15   50 1   
    36   16   17 1   
    37   16   51 1   
    38   16   52 1   
    39   17   18 1   
    40   17   20 1   
    41   17   53 1   
    42   18   19 1   
    43   18   54 1   
    44   18   55 1   
    45   19   56 1   
    46   19   57 1   
    47   20   21 1   
    48   20   29 1   
    49   21   22 1   
    50   21   30 1   
    51   22   23 1   
    52   23   24 1   
    53   23   28 1   
    54   24   25 1   
    55   24   58 1   
    56   25   59 1   
    57   26   27 1   
    58   26   31 1   
    59   27   60 1   
    60   28   61 1   
    61   29   62 1   
    62   29   63 1   
    63   29   64 1   
@<TRIPOS>SUBSTRUCTURE
     1 R23         1 TEMP              0 ****  ****    0 ROOT
