@<TRIPOS>MOLECULE
R24
   69    73     1     0     0
SMALL
bcc


@<TRIPOS>ATOM
      1 C1         -0.6240    0.8110   -0.2880 ca        1 R24     -0.190200
      2 C2          0.7670    0.7800   -0.5800 ca        1 R24     -0.075000
      3 C3          1.6640    0.6030    0.4380 ca        1 R24     -0.177300
      4 C4         -1.0880    0.6680    1.0100 ca        1 R24     -0.029000
      5 C5         -0.1760    0.5000    2.0770 ca        1 R24     -0.202300
      6 C6          1.2280    0.4520    1.7970 ca        1 R24      0.453600
      7 C8         -0.5990    0.3610    3.4610 ca        1 R24      0.242600
      8 C10         0.3950    0.1780    4.4250 ca        1 R24     -0.335300
      9 C11         1.7530    0.1280    4.0220 ca        1 R24      0.470200
     10 C12        -2.4920    0.1270    5.0400 ca        1 R24      0.167600
     11 C13        -2.0730   -1.0010    5.7760 ca        1 R24     -0.169000
     12 C14        -2.6740   -1.3010    7.0120 ca        1 R24      0.086600
     13 C15        -3.7100   -0.4690    7.5010 ca        1 R24     -0.197000
     14 N38        -1.5900    0.9970   -1.4010 no        1 R24      0.315200
     15 O40        -1.1770    1.0850   -2.5250 o         1 R24     -0.211000
     16 O39        -2.7650    1.0600   -1.1460 o         1 R24     -0.211000
     17 N7          2.1790    0.2620    2.7760 nb        1 R24     -0.695000
     18 N9         -1.9490    0.4110    3.7730 nh        1 R24     -0.645000
     19 C17        -3.5250    0.9470    5.5450 ca        1 R24     -0.191000
     20 C16        -4.1170    0.6340    6.7630 ca        1 R24     -0.079000
     21 N18        -2.2370   -2.3700    7.8220 n         1 R24     -0.461100
     22 C19        -1.7260   -3.5800    7.2980 c         1 R24      0.765100
     23 O20        -1.3880   -3.7040    6.1040 o         1 R24     -0.586100
     24 N21        -1.6290   -4.6700    8.2020 n         1 R24     -0.437100
     25 C22        -0.8600   -5.7860    7.8620 cc        1 R24      0.014300
     26 C26        -0.7270   -6.4390    6.6230 cd        1 R24     -0.264300
     27 C25         0.1410   -7.5710    6.8850 cd        1 R24      0.335600
     28 C27         0.5980   -8.5750    5.8720 c3        1 R24     -0.075300
     29 C29         2.1190   -8.5410    5.7670 c3        1 R24     -0.086767
     30 C30         0.1500   -9.9700    6.2930 c3        1 R24     -0.086767
     31 C28        -0.0030   -8.2490    4.5100 c3        1 R24     -0.086767
     32 N24         0.4970   -7.6000    8.1980 nc        1 R24     -0.497800
     33 N23        -0.0320   -6.5090    8.7860 na        1 R24      0.129300
     34 C31        -0.0890   -6.3380   10.2000 ca        1 R24      0.005800
     35 C32        -0.3940   -7.4170   11.0530 ca        1 R24     -0.129000
     36 C33        -0.4350   -7.2230   12.4300 ca        1 R24     -0.123000
     37 C34        -0.1780   -5.9650   12.9870 ca        1 R24     -0.072300
     38 C37        -0.2140   -5.7730   14.4550 c3        1 R24     -0.056800
     39 C35         0.1350   -4.8980   12.1380 ca        1 R24     -0.123000
     40 C36         0.1890   -5.0740   10.7590 ca        1 R24     -0.129000
     41 H2          1.1060    0.8960   -1.6240 ha        1 R24      0.173000
     42 H3          2.7460    0.5720    0.2250 ha        1 R24      0.166000
     43 H4         -2.1780    0.6730    1.1850 ha        1 R24      0.163000
     44 H10         0.1550    0.0800    5.4930 ha        1 R24      0.162000
     45 H11         2.5380   -0.0270    4.7870 h4        1 R24      0.029100
     46 H13        -1.2890   -1.6610    5.3650 ha        1 R24      0.186000
     47 H15        -4.1990   -0.6840    8.4620 ha        1 R24      0.134000
     48 HN9        -2.5390    0.9310    3.1620 hn        1 R24      0.443800
     49 H17        -3.8720    1.8260    4.9830 ha        1 R24      0.139000
     50 H16        -4.9250    1.2750    7.1500 ha        1 R24      0.139000
     51 HN18       -2.6840   -2.4100    8.7130 hn        1 R24      0.309500
     52 HN21       -1.7260   -4.4920    9.1800 hn        1 R24      0.317500
     53 H26        -1.1600   -6.1340    5.6750 ha        1 R24      0.191000
     54 H29         2.5850   -8.8270    6.7400 hc        1 R24      0.040144
     55 H29A        2.4590   -9.2590    4.9830 hc        1 R24      0.040144
     56 H29B        2.4650   -7.5170    5.4900 hc        1 R24      0.040144
     57 H30         0.4510  -10.7130    5.5160 hc        1 R24      0.040144
     58 H30A        0.6220  -10.2580    7.2620 hc        1 R24      0.040144
     59 H30B       -0.9590  -10.0030    6.4090 hc        1 R24      0.040144
     60 H28         0.3230   -7.2360    4.1710 hc        1 R24      0.040144
     61 H28A        0.3370   -9.0030    3.7590 hc        1 R24      0.040144
     62 H28B       -1.1180   -8.2710    4.5590 hc        1 R24      0.040144
     63 H32        -0.5910   -8.4190   10.6380 ha        1 R24      0.150000
     64 H33        -0.6730   -8.0720   13.0880 ha        1 R24      0.139500
     65 H37        -0.9780   -6.4400   14.9260 hc        1 R24      0.048700
     66 H37A       -0.4590   -4.7150   14.7160 hc        1 R24      0.048700
     67 H37B        0.7850   -6.0210   14.8950 hc        1 R24      0.048700
     68 H35         0.3530   -3.9070   12.5650 ha        1 R24      0.139500
     69 H36         0.4800   -4.2270   10.1180 ha        1 R24      0.150000
@<TRIPOS>BOND
     1    1    2 ar  
     2    1    4 ar  
     3    1   14 1   
     4    2    3 ar  
     5    2   41 1   
     6    3    6 ar  
     7    3   42 1   
     8    4    5 ar  
     9    4   43 1   
    10    5    6 ar  
    11    5    7 ar  
    12    6   17 ar  
    13    7    8 ar  
    14    7   18 1   
    15    8    9 ar  
    16    8   44 1   
    17    9   17 ar  
    18    9   45 1   
    19   10   11 ar  
    20   10   18 1   
    21   10   19 ar  
    22   11   12 ar  
    23   11   46 1   
    24   12   13 ar  
    25   12   21 1   
    26   13   20 ar  
    27   13   47 1   
    28   14   15 1   
    29   14   16 1   
    30   18   48 1   
    31   19   20 ar  
    32   19   49 1   
    33   20   50 1   
    34   21   22 1   
    35   21   51 1   
    36   22   23 2   
    37   22   24 1   
    38   24   25 1   
    39   24   52 1   
    40   25   26 2   
    41   25   33 1   
    42   26   27 1   
    43   26   53 1   
    44   27   28 1   
    45   27   32 2   
    46   28   29 1   
    47   28   30 1   
    48   28   31 1   
    49   29   54 1   
    50   29   55 1   
    51   29   56 1   
    52   30   57 1   
    53   30   58 1   
    54   30   59 1   
    55   31   60 1   
    56   31   61 1   
    57   31   62 1   
    58   32   33 1   
    59   33   34 1   
    60   34   35 ar  
    61   34   40 ar  
    62   35   36 ar  
    63   35   63 1   
    64   36   37 ar  
    65   36   64 1   
    66   37   38 1   
    67   37   39 ar  
    68   38   65 1   
    69   38   66 1   
    70   38   67 1   
    71   39   40 ar  
    72   39   68 1   
    73   40   69 1   
@<TRIPOS>SUBSTRUCTURE
     1 R24         1 TEMP              0 ****  ****    0 ROOT
