@<TRIPOS>MOLECULE
R24
   69    73     1     0     0
SMALL
bcc


@<TRIPOS>ATOM
      1 C1         -0.6430    0.8120   -0.2870 ca        1 R24     -0.190200
      2 C2          0.7480    0.7810   -0.5840 ca        1 R24     -0.075000
      3 C3          1.6480    0.6030    0.4310 ca        1 R24     -0.177300
      4 C4         -1.1020    0.6690    1.0120 ca        1 R24     -0.029000
      5 C5         -0.1860    0.5010    2.0770 ca        1 R24     -0.202300
      6 C6          1.2170    0.4520    1.7910 ca        1 R24      0.453600
      7 C8         -0.6040    0.3610    3.4620 ca        1 R24      0.242600
      8 C10         0.3930    0.1780    4.4220 ca        1 R24     -0.335300
      9 C11         1.7490    0.1270    4.0150 ca        1 R24      0.470200
     10 C12        -2.4920    0.1280    5.0470 ca        1 R24      0.167600
     11 C13        -2.0720   -1.0000    5.7810 ca        1 R24     -0.169000
     12 C14        -2.6690   -1.3020    7.0190 ca        1 R24      0.086600
     13 C15        -3.7020   -0.4690    7.5110 ca        1 R24     -0.197000
     14 N38        -1.6130    0.9990   -1.3960 no        1 R24      0.315200
     15 O40        -1.2030    1.0870   -2.5220 o         1 R24     -0.211000
     16 O39        -2.7860    1.0620   -1.1380 o         1 R24     -0.211000
     17 N7          2.1710    0.2610    2.7670 nb        1 R24     -0.695000
     18 N9         -1.9540    0.4130    3.7780 nh        1 R24     -0.645000
     19 C17        -3.5230    0.9480    5.5560 ca        1 R24     -0.191000
     20 C16        -4.1120    0.6350    6.7760 ca        1 R24     -0.079000
     21 N18        -2.2290   -2.3710    7.8260 n         1 R24     -0.461100
     22 C19        -1.7190   -3.5810    7.3010 c         1 R24      0.765100
     23 O20        -1.3810   -3.7030    6.1060 o         1 R24     -0.586100
     24 N21        -1.6210   -4.6720    8.2030 n         1 R24     -0.437100
     25 C22        -0.8520   -5.7860    7.8610 cc        1 R24      0.014300
     26 C26        -0.7150   -6.4360    6.6210 cd        1 R24     -0.264300
     27 C25         0.1520   -7.5680    6.8820 cd        1 R24      0.335600
     28 C27         0.6120   -8.5690    5.8670 c3        1 R24     -0.075300
     29 C29         2.1330   -8.5320    5.7640 c3        1 R24     -0.086767
     30 C30         0.1670   -9.9660    6.2850 c3        1 R24     -0.086767
     31 C28         0.0120   -8.2410    4.5050 c3        1 R24     -0.086767
     32 N24         0.5060   -7.6010    8.1960 nc        1 R24     -0.497800
     33 N23        -0.0250   -6.5110    8.7850 na        1 R24      0.129300
     34 C31        -0.0860   -6.3450   10.2000 ca        1 R24      0.005800
     35 C32        -0.3900   -7.4280   11.0490 ca        1 R24     -0.129500
     36 C33        -0.4340   -7.2370   12.4260 ca        1 R24     -0.123000
     37 C34        -0.1820   -5.9800   12.9880 ca        1 R24     -0.073300
     38 C37        -0.2520   -5.7870   14.4540 c3        1 R24     -0.056800
     39 C35         0.1320   -4.9110   12.1430 ca        1 R24     -0.123000
     40 C36         0.1900   -5.0820   10.7640 ca        1 R24     -0.129500
     41 H2          1.0830    0.8960   -1.6290 ha        1 R24      0.173000
     42 H3          2.7290    0.5710    0.2140 ha        1 R24      0.166000
     43 H4         -2.1920    0.6750    1.1920 ha        1 R24      0.163000
     44 H10         0.1560    0.0800    5.4910 ha        1 R24      0.162000
     45 H11         2.5370   -0.0280    4.7770 h4        1 R24      0.029100
     46 H13        -1.2880   -1.6600    5.3670 ha        1 R24      0.186000
     47 H15        -4.1890   -0.6850    8.4740 ha        1 R24      0.134000
     48 HN9        -2.5460    0.9340    3.1700 hn        1 R24      0.443800
     49 H17        -3.8720    1.8280    4.9950 ha        1 R24      0.139000
     50 H16        -4.9180    1.2750    7.1660 ha        1 R24      0.139000
     51 HN18       -2.6740   -2.4120    8.7190 hn        1 R24      0.309500
     52 HN21       -1.7200   -4.4950    9.1810 hn        1 R24      0.316500
     53 H26        -1.1460   -6.1290    5.6730 ha        1 R24      0.191000
     54 H29         2.4780   -7.5060    5.4890 hc        1 R24      0.040144
     55 H29A        2.4760   -9.2470    4.9780 hc        1 R24      0.040144
     56 H29B        2.5990   -8.8190    6.7370 hc        1 R24      0.040144
     57 H30         0.4700  -10.7070    5.5060 hc        1 R24      0.040144
     58 H30A        0.6390  -10.2550    7.2540 hc        1 R24      0.040144
     59 H30B       -0.9420  -10.0020    6.4000 hc        1 R24      0.040144
     60 H28         0.3370   -7.2270    4.1690 hc        1 R24      0.040144
     61 H28A        0.3530   -8.9930    3.7530 hc        1 R24      0.040144
     62 H28B       -1.1030   -8.2650    4.5530 hc        1 R24      0.040144
     63 H32        -0.5830   -8.4290   10.6310 ha        1 R24      0.150000
     64 H33        -0.6680   -8.0890   13.0820 ha        1 R24      0.139500
     65 H37         0.3710   -4.9170   14.7760 hc        1 R24      0.048700
     66 H37A        0.1080   -6.6980   14.9930 hc        1 R24      0.048700
     67 H37B       -1.3110   -5.5940   14.7630 hc        1 R24      0.048700
     68 H35         0.3510   -3.9210   12.5730 ha        1 R24      0.139500
     69 H36         0.4820   -4.2330   10.1260 ha        1 R24      0.150000
@<TRIPOS>BOND
     1    1    2 ar  
     2    1    4 ar  
     3    1   14 1   
     4    2    3 ar  
     5    2   41 1   
     6    3    6 ar  
     7    3   42 1   
     8    4    5 ar  
     9    4   43 1   
    10    5    6 ar  
    11    5    7 ar  
    12    6   17 ar  
    13    7    8 ar  
    14    7   18 1   
    15    8    9 ar  
    16    8   44 1   
    17    9   17 ar  
    18    9   45 1   
    19   10   11 ar  
    20   10   18 1   
    21   10   19 ar  
    22   11   12 ar  
    23   11   46 1   
    24   12   13 ar  
    25   12   21 1   
    26   13   20 ar  
    27   13   47 1   
    28   14   15 1   
    29   14   16 1   
    30   18   48 1   
    31   19   20 ar  
    32   19   49 1   
    33   20   50 1   
    34   21   22 1   
    35   21   51 1   
    36   22   23 2   
    37   22   24 1   
    38   24   25 1   
    39   24   52 1   
    40   25   26 2   
    41   25   33 1   
    42   26   27 1   
    43   26   53 1   
    44   27   28 1   
    45   27   32 2   
    46   28   29 1   
    47   28   30 1   
    48   28   31 1   
    49   29   54 1   
    50   29   55 1   
    51   29   56 1   
    52   30   57 1   
    53   30   58 1   
    54   30   59 1   
    55   31   60 1   
    56   31   61 1   
    57   31   62 1   
    58   32   33 1   
    59   33   34 1   
    60   34   35 ar  
    61   34   40 ar  
    62   35   36 ar  
    63   35   63 1   
    64   36   37 ar  
    65   36   64 1   
    66   37   38 1   
    67   37   39 ar  
    68   38   65 1   
    69   38   66 1   
    70   38   67 1   
    71   39   40 ar  
    72   39   68 1   
    73   40   69 1   
@<TRIPOS>SUBSTRUCTURE
     1 R24         1 TEMP              0 ****  ****    0 ROOT
