@<TRIPOS>MOLECULE
R24
   69    73     1     0     0
SMALL
bcc


@<TRIPOS>ATOM
      1 C1         -7.1830    0.3650    0.0250 ca        1 R24     -0.190200
      2 C2         -7.3700    1.1600    1.1890 ca        1 R24     -0.075000
      3 C3         -6.4170    1.1490    2.1710 ca        1 R24     -0.177300
      4 C4         -6.0540   -0.4220   -0.1320 ca        1 R24     -0.029000
      5 C5         -5.0660   -0.4600    0.8790 ca        1 R24     -0.202300
      6 C6         -5.2330    0.3470    2.0510 ca        1 R24      0.453600
      7 C8         -3.8680   -1.2770    0.7800 ca        1 R24      0.242600
      8 C10        -2.9530   -1.2130    1.8330 ca        1 R24     -0.335300
      9 C11        -3.2200   -0.3600    2.9340 ca        1 R24      0.470200
     10 C12        -2.4910   -2.7830   -0.6230 ca        1 R24      0.167600
     11 C13        -1.2280   -2.1700   -0.4940 ca        1 R24     -0.169000
     12 C14        -0.0610   -2.8710   -0.8480 ca        1 R24      0.086600
     13 C15        -0.1710   -4.1920   -1.3460 ca        1 R24     -0.197000
     14 N38        -8.2200    0.3900   -1.0380 no        1 R24      0.315200
     15 O40        -9.1770    1.1030   -0.9050 o         1 R24     -0.211000
     16 O39        -8.0770   -0.3120   -2.0050 o         1 R24     -0.211000
     17 N7         -4.3030    0.3900    3.0660 nb        1 R24     -0.695000
     18 N9         -3.6750   -2.0780   -0.3350 nh        1 R24     -0.645000
     19 C17        -2.5800   -4.1020   -1.1200 ca        1 R24     -0.191000
     20 C16        -1.4210   -4.7820   -1.4750 ca        1 R24     -0.079000
     21 N18         1.2280   -2.3310   -0.6620 n         1 R24     -0.461100
     22 C19         1.5150   -0.9520   -0.7830 c         1 R24      0.765100
     23 O20         0.6220   -0.0810   -0.8110 o         1 R24     -0.586100
     24 N21         2.8850   -0.5970   -0.8890 n         1 R24     -0.437100
     25 C22         3.2730    0.7320   -0.6990 cc        1 R24      0.014300
     26 C26         2.6440    1.9190   -1.1170 cd        1 R24     -0.264300
     27 C25         3.5360    2.9840   -0.7020 cd        1 R24      0.335600
     28 C27         3.3030    4.4490   -0.9080 c3        1 R24     -0.075300
     29 C29         3.2360    5.1510    0.4440 c3        1 R24     -0.086767
     30 C30         4.4420    5.0410   -1.7300 c3        1 R24     -0.086767
     31 C28         1.9880    4.6670   -1.6480 c3        1 R24     -0.086767
     32 N24         4.6340    2.4680   -0.0840 nc        1 R24     -0.497800
     33 N23         4.4680    1.1330   -0.0100 na        1 R24      0.129300
     34 C31         5.5210    0.2370    0.3350 ca        1 R24      0.005800
     35 C32         6.8320    0.4330   -0.1440 ca        1 R24     -0.129000
     36 C33         7.8410   -0.4540    0.2160 ca        1 R24     -0.123000
     37 C34         7.5770   -1.5460    1.0500 ca        1 R24     -0.072300
     38 C37         8.6620   -2.4770    1.4340 c3        1 R24     -0.056800
     39 C35         6.2760   -1.7320    1.5320 ca        1 R24     -0.123000
     40 C36         5.2550   -0.8520    1.1910 ca        1 R24     -0.129000
     41 H2         -8.2790    1.7780    1.2850 ha        1 R24      0.173000
     42 H3         -6.5460    1.7660    3.0770 ha        1 R24      0.166000
     43 H4         -5.9400   -1.0030   -1.0640 ha        1 R24      0.163000
     44 H10        -2.0320   -1.8120    1.8390 ha        1 R24      0.162000
     45 H11        -2.4880   -0.3030    3.7640 h4        1 R24      0.029100
     46 H13        -1.1620   -1.1260   -0.1370 ha        1 R24      0.186000
     47 H15         0.7250   -4.7620   -1.6340 ha        1 R24      0.134000
     48 HN9        -4.4890   -2.3950   -0.8160 hn        1 R24      0.443800
     49 H17        -3.5560   -4.5960   -1.2360 ha        1 R24      0.139000
     50 H16        -1.4960   -5.8090   -1.8660 ha        1 R24      0.139000
     51 HN18        1.9660   -2.9710   -0.8640 hn        1 R24      0.309500
     52 HN21        3.5760   -1.2860   -0.6790 hn        1 R24      0.317500
     53 H26         1.6830    2.0070   -1.6140 ha        1 R24      0.191000
     54 H29         4.2060    5.0510    0.9870 hc        1 R24      0.040144
     55 H29A        3.0210    6.2370    0.2950 hc        1 R24      0.040144
     56 H29B        2.4260    4.7080    1.0710 hc        1 R24      0.040144
     57 H30         4.5280    4.5130   -2.7100 hc        1 R24      0.040144
     58 H30A        4.2460    6.1230   -1.9230 hc        1 R24      0.040144
     59 H30B        5.4110    4.9460   -1.1840 hc        1 R24      0.040144
     60 H28         1.1350    4.2560   -1.0580 hc        1 R24      0.040144
     61 H28A        1.8220    5.7600   -1.8040 hc        1 R24      0.040144
     62 H28B        2.0130    4.1630   -2.6440 hc        1 R24      0.040144
     63 H32         7.0670    1.2910   -0.7940 ha        1 R24      0.150000
     64 H33         8.8630   -0.2910   -0.1610 ha        1 R24      0.139500
     65 H37         9.1910   -2.0890    2.3420 hc        1 R24      0.048700
     66 H37A        8.2570   -3.4910    1.6730 hc        1 R24      0.048700
     67 H37B        9.4110   -2.5790    0.6110 hc        1 R24      0.048700
     68 H35         6.0590   -2.5790    2.2000 ha        1 R24      0.139500
     69 H36         4.2510   -0.9980    1.6190 ha        1 R24      0.150000
@<TRIPOS>BOND
     1    1    2 ar  
     2    1    4 ar  
     3    1   14 1   
     4    2    3 ar  
     5    2   41 1   
     6    3    6 ar  
     7    3   42 1   
     8    4    5 ar  
     9    4   43 1   
    10    5    6 ar  
    11    5    7 ar  
    12    6   17 ar  
    13    7    8 ar  
    14    7   18 1   
    15    8    9 ar  
    16    8   44 1   
    17    9   17 ar  
    18    9   45 1   
    19   10   11 ar  
    20   10   18 1   
    21   10   19 ar  
    22   11   12 ar  
    23   11   46 1   
    24   12   13 ar  
    25   12   21 1   
    26   13   20 ar  
    27   13   47 1   
    28   14   15 1   
    29   14   16 1   
    30   18   48 1   
    31   19   20 ar  
    32   19   49 1   
    33   20   50 1   
    34   21   22 1   
    35   21   51 1   
    36   22   23 2   
    37   22   24 1   
    38   24   25 1   
    39   24   52 1   
    40   25   26 2   
    41   25   33 1   
    42   26   27 1   
    43   26   53 1   
    44   27   28 1   
    45   27   32 2   
    46   28   29 1   
    47   28   30 1   
    48   28   31 1   
    49   29   54 1   
    50   29   55 1   
    51   29   56 1   
    52   30   57 1   
    53   30   58 1   
    54   30   59 1   
    55   31   60 1   
    56   31   61 1   
    57   31   62 1   
    58   32   33 1   
    59   33   34 1   
    60   34   35 ar  
    61   34   40 ar  
    62   35   36 ar  
    63   35   63 1   
    64   36   37 ar  
    65   36   64 1   
    66   37   38 1   
    67   37   39 ar  
    68   38   65 1   
    69   38   66 1   
    70   38   67 1   
    71   39   40 ar  
    72   39   68 1   
    73   40   69 1   
@<TRIPOS>SUBSTRUCTURE
     1 R24         1 TEMP              0 ****  ****    0 ROOT
