@<TRIPOS>MOLECULE
R24
   69    73     1     0     0
SMALL
bcc


@<TRIPOS>ATOM
      1 C1         -0.6410    0.7880   -0.3020 ca        1 R24     -0.190200
      2 C2          0.7500    0.7580   -0.5960 ca        1 R24     -0.075000
      3 C3          1.6500    0.5850    0.4200 ca        1 R24     -0.177300
      4 C4         -1.1010    0.6490    0.9970 ca        1 R24     -0.029000
      5 C5         -0.1870    0.4860    2.0640 ca        1 R24     -0.202300
      6 C6          1.2160    0.4380    1.7810 ca        1 R24      0.453600
      7 C8         -0.6070    0.3510    3.4490 ca        1 R24      0.242600
      8 C10         0.3880    0.1720    4.4110 ca        1 R24     -0.335300
      9 C11         1.7460    0.1220    4.0060 ca        1 R24      0.470200
     10 C12        -2.4970    0.1200    5.0320 ca        1 R24      0.167600
     11 C13        -2.0760   -1.0050    5.7700 ca        1 R24     -0.169000
     12 C14        -2.6750   -1.3030    7.0090 ca        1 R24      0.086600
     13 C15        -3.7110   -0.4700    7.4960 ca        1 R24     -0.197000
     14 N38        -1.6090    0.9700   -1.4130 no        1 R24      0.315200
     15 O40        -1.1980    1.0540   -2.5390 o         1 R24     -0.211000
     16 O39        -2.7830    1.0320   -1.1570 o         1 R24     -0.211000
     17 N7          2.1690    0.2520    2.7580 nb        1 R24     -0.695000
     18 N9         -1.9570    0.4010    3.7630 nu        1 R24     -0.645000
     19 C17        -3.5310    0.9400    5.5360 ca        1 R24     -0.191000
     20 C16        -4.1200    0.6310    6.7560 ca        1 R24     -0.079000
     21 N18        -2.2350   -2.3690    7.8200 ns        1 R24     -0.461100
     22 C19        -1.7230   -3.5800    7.3000 c         1 R24      0.765100
     23 O20        -1.3860   -3.7060    6.1060 o         1 R24     -0.586100
     24 N21        -1.6240   -4.6670    8.2070 ns        1 R24     -0.437100
     25 C22        -0.8530   -5.7820    7.8690 cc        1 R24      0.014300
     26 C26        -0.7180   -6.4380    6.6310 cd        1 R24     -0.264300
     27 C25         0.1520   -7.5670    6.8970 cd        1 R24      0.335600
     28 C27         0.6120   -8.5720    5.8850 c3        1 R24     -0.075300
     29 C29         2.1330   -8.5310    5.7780 c3        1 R24     -0.086767
     30 C30         0.1720   -9.9680    6.3110 c3        1 R24     -0.086767
     31 C28         0.0080   -8.2530    4.5230 c3        1 R24     -0.086767
     32 N24         0.5080   -7.5920    8.2100 nc        1 R24     -0.497800
     33 N23        -0.0230   -6.5010    8.7950 na        1 R24      0.129300
     34 C31        -0.0820   -6.3280   10.2080 ca        1 R24      0.005800
     35 C32        -0.3830   -7.4070   11.0630 ca        1 R24     -0.129500
     36 C33        -0.4240   -7.2090   12.4400 ca        1 R24     -0.123000
     37 C34        -0.1740   -5.9490   12.9950 ca        1 R24     -0.073300
     38 C37        -0.2410   -5.7490   14.4600 c3        1 R24     -0.056800
     39 C35         0.1370   -4.8830   12.1440 ca        1 R24     -0.123000
     40 C36         0.1930   -5.0620   10.7650 ca        1 R24     -0.129500
     41 H2          1.0870    0.8710   -1.6410 ha        1 R24      0.173000
     42 H3          2.7310    0.5540    0.2050 ha        1 R24      0.166000
     43 H4         -2.1920    0.6540    1.1750 ha        1 R24      0.163000
     44 H10         0.1500    0.0770    5.4800 ha        1 R24      0.162000
     45 H11         2.5330   -0.0300    4.7700 h4        1 R24      0.029100
     46 H13        -1.2920   -1.6650    5.3600 ha        1 R24      0.186000
     47 H15        -4.1980   -0.6830    8.4590 ha        1 R24      0.134000
     48 HN9        -2.5490    0.9190    3.1510 hn        1 R24      0.443800
     49 H17        -3.8800    1.8180    4.9720 ha        1 R24      0.139000
     50 H16        -4.9290    1.2720    7.1430 ha        1 R24      0.139000
     51 HN18       -2.6810   -2.4060    8.7130 hn        1 R24      0.309500
     52 HN21       -1.7220   -4.4860    9.1840 hn        1 R24      0.316500
     53 H26        -1.1510   -6.1350    5.6830 ha        1 R24      0.191000
     54 H29         2.4740   -7.5060    5.4970 hc        1 R24      0.040144
     55 H29A        2.4750   -9.2500    4.9950 hc        1 R24      0.040144
     56 H29B        2.6020   -8.8110    6.7510 hc        1 R24      0.040144
     57 H30         0.4750  -10.7120    5.5360 hc        1 R24      0.040144
     58 H30A        0.6470  -10.2510    7.2810 hc        1 R24      0.040144
     59 H30B       -0.9370  -10.0060    6.4300 hc        1 R24      0.040144
     60 H28         0.3290   -7.2400    4.1810 hc        1 R24      0.040144
     61 H28A        0.3480   -9.0080    3.7750 hc        1 R24      0.040144
     62 H28B       -1.1070   -8.2790    4.5750 hc        1 R24      0.040144
     63 H32        -0.5750   -8.4100   10.6510 ha        1 R24      0.150000
     64 H33        -0.6560   -8.0590   13.1010 ha        1 R24      0.139500
     65 H37         0.3820   -4.8760   14.7770 hc        1 R24      0.048700
     66 H37A        0.1210   -6.6570   15.0030 hc        1 R24      0.048700
     67 H37B       -1.2990   -5.5560   14.7710 hc        1 R24      0.048700
     68 H35         0.3550   -3.8920   12.5690 ha        1 R24      0.139500
     69 H36         0.4820   -4.2150   10.1230 ha        1 R24      0.150000
@<TRIPOS>BOND
     1    1    2 ar  
     2    1    4 ar  
     3    1   14 1   
     4    2    3 ar  
     5    2   41 1   
     6    3    6 ar  
     7    3   42 1   
     8    4    5 ar  
     9    4   43 1   
    10    5    6 ar  
    11    5    7 ar  
    12    6   17 ar  
    13    7    8 ar  
    14    7   18 1   
    15    8    9 ar  
    16    8   44 1   
    17    9   17 ar  
    18    9   45 1   
    19   10   11 ar  
    20   10   18 1   
    21   10   19 ar  
    22   11   12 ar  
    23   11   46 1   
    24   12   13 ar  
    25   12   21 1   
    26   13   20 ar  
    27   13   47 1   
    28   14   15 1   
    29   14   16 1   
    30   18   48 1   
    31   19   20 ar  
    32   19   49 1   
    33   20   50 1   
    34   21   22 1   
    35   21   51 1   
    36   22   23 2   
    37   22   24 1   
    38   24   25 1   
    39   24   52 1   
    40   25   26 2   
    41   25   33 1   
    42   26   27 1   
    43   26   53 1   
    44   27   28 1   
    45   27   32 2   
    46   28   29 1   
    47   28   30 1   
    48   28   31 1   
    49   29   54 1   
    50   29   55 1   
    51   29   56 1   
    52   30   57 1   
    53   30   58 1   
    54   30   59 1   
    55   31   60 1   
    56   31   61 1   
    57   31   62 1   
    58   32   33 1   
    59   33   34 1   
    60   34   35 ar  
    61   34   40 ar  
    62   35   36 ar  
    63   35   63 1   
    64   36   37 ar  
    65   36   64 1   
    66   37   38 1   
    67   37   39 ar  
    68   38   65 1   
    69   38   66 1   
    70   38   67 1   
    71   39   40 ar  
    72   39   68 1   
    73   40   69 1   
@<TRIPOS>SUBSTRUCTURE
     1 R24         1 TEMP              0 ****  ****    0 ROOT
