@<TRIPOS>MOLECULE
R26
   37    39     1     0     0
SMALL
bcc


@<TRIPOS>ATOM
      1 N37        -1.1340   -0.3550   -2.4160 n1        1 R26     -0.395800
      2 CAW        -0.6210   -0.2500   -1.3760 cg        1 R26      0.250800
      3 CAV         0.0050   -0.1260   -0.1070 ca        1 R26     -0.040000
      4 CAU         1.0860    0.7490    0.0640 ca        1 R26     -0.092000
      5 CAT         1.7030    0.8620    1.3090 ca        1 R26     -0.127000
      6 CAY        -0.4590   -0.8810    0.9800 ca        1 R26     -0.092000
      7 CAZ         0.1570   -0.7580    2.2210 ca        1 R26     -0.127000
      8 CAS         1.2430    0.1100    2.3960 ca        1 R26     -0.053300
      9 CAR         1.9000    0.1600    3.7460 c3        1 R26      0.245100
     10 NAQ         2.5210    1.4220    4.0550 nu        1 R26     -0.845900
     11 CAP         3.1360    1.6160    5.2860 ca        1 R26      0.569900
     12 CAC         3.5600    3.0100    5.6350 ca        1 R26      0.288500
     13 CAB         3.2180    4.1420    4.6250 c         1 R26      0.827100
     14 OAA         4.1610    4.8310    4.1830 o         1 R26     -0.791300
     15 OBA         2.0010    4.2270    4.3030 o         1 R26     -0.791300
     16 NAD         4.1870    3.2670    6.7560 nb        1 R26     -0.624000
     17 CAE         4.4700    2.2040    7.6130 ca        1 R26      0.276300
     18 CAF         5.1600    2.4390    8.8340 ca        1 R26     -0.144300
     19 CAG         5.4470    1.3980    9.6860 ca        1 R26     -0.134000
     20 NAO         3.3890    0.5830    6.1100 nb        1 R26     -0.768000
     21 CAN         4.0740    0.8660    7.2780 ca        1 R26      0.317300
     22 CAM         4.3860   -0.1910    8.1810 ca        1 R26     -0.126300
     23 CAH         5.0560    0.0840    9.3540 ca        1 R26     -0.174300
     24 CAI         5.3760   -1.0370   10.3310 c3        1 R26      0.688200
     25 FAL         6.5860   -0.9160   10.9740 f         1 R26     -0.248967
     26 FAJ         4.4770   -1.1700   11.3640 f         1 R26     -0.248967
     27 FAK         5.4260   -2.2980    9.7840 f         1 R26     -0.248967
     28 H1          1.4480    1.3510   -0.7830 ha        1 R26      0.139000
     29 H2          2.5540    1.5540    1.4250 ha        1 R26      0.153500
     30 H3         -1.3110   -1.5650    0.8510 ha        1 R26      0.139000
     31 H4         -0.2140   -1.3470    3.0740 ha        1 R26      0.153500
     32 H5          1.1330   -0.1150    4.5320 h1        1 R26      0.055700
     33 H6          2.6970   -0.6440    3.7680 h1        1 R26      0.055700
     34 H7          2.0700    2.2450    3.6840 hn        1 R26      0.476800
     35 H9          5.4650    3.4670    9.0860 ha        1 R26      0.150000
     36 H10         5.9850    1.5740   10.6290 ha        1 R26      0.135000
     37 H11         4.0910   -1.2230    7.9320 ha        1 R26      0.151000
@<TRIPOS>BOND
     1    1    2 3   
     2    2    3 1   
     3    3    4 ar  
     4    3    6 ar  
     5    4    5 ar  
     6    4   28 1   
     7    5    8 ar  
     8    5   29 1   
     9    6    7 ar  
    10    6   30 1   
    11    7    8 ar  
    12    7   31 1   
    13    8    9 1   
    14    9   10 1   
    15    9   32 1   
    16    9   33 1   
    17   10   11 1   
    18   10   34 1   
    19   11   12 ar  
    20   11   20 ar  
    21   12   13 1   
    22   12   16 ar  
    23   13   14 1   
    24   13   15 1   
    25   16   17 ar  
    26   17   18 ar  
    27   17   21 ar  
    28   18   19 ar  
    29   18   35 1   
    30   19   23 ar  
    31   19   36 1   
    32   20   21 ar  
    33   21   22 ar  
    34   22   23 ar  
    35   22   37 1   
    36   23   24 1   
    37   24   25 1   
    38   24   26 1   
    39   24   27 1   
@<TRIPOS>SUBSTRUCTURE
     1 R26         1 TEMP              0 ****  ****    0 ROOT
