@<TRIPOS>MOLECULE
R26
   37    39     1     0     0
SMALL
bcc


@<TRIPOS>ATOM
      1 N37        -1.1570   -0.3240   -2.4110 n1        1 R26     -0.395800
      2 CAW        -0.6370   -0.2180   -1.3750 cg        1 R26      0.250800
      3 CAV        -0.0040   -0.0920   -0.1090 ca        1 R26     -0.040000
      4 CAU         1.1080    0.7470    0.0430 ca        1 R26     -0.092000
      5 CAT         1.7320    0.8620    1.2840 ca        1 R26     -0.127000
      6 CAY        -0.4910   -0.8090    0.9930 ca        1 R26     -0.092000
      7 CAZ         0.1320   -0.6850    2.2300 ca        1 R26     -0.127000
      8 CAS         1.2490    0.1470    2.3860 ca        1 R26     -0.053300
      9 CAR         1.9110    0.1990    3.7340 c3        1 R26      0.245100
     10 NAQ         2.5770    1.4440    4.0180 nh        1 R26     -0.845900
     11 CAP         3.2020    1.6390    5.2440 ca        1 R26      0.569900
     12 CAC         3.6760    3.0230    5.5640 ca        1 R26      0.288500
     13 CAB         3.3710    4.1480    4.5350 c         1 R26      0.827100
     14 OAA         4.3370    4.7950    4.0780 o         1 R26     -0.791300
     15 OBA         2.1570    4.2700    4.2150 o         1 R26     -0.791300
     16 NAD         4.3160    3.2790    6.6790 nb        1 R26     -0.624000
     17 CAE         4.5640    2.2230    7.5550 ca        1 R26      0.276300
     18 CAF         5.2660    2.4560    8.7700 ca        1 R26     -0.144300
     19 CAG         5.5180    1.4210    9.6410 ca        1 R26     -0.134000
     20 NAO         3.4210    0.6130    6.0860 nb        1 R26     -0.768000
     21 CAN         4.1200    0.8940    7.2470 ca        1 R26      0.317300
     22 CAM         4.3970   -0.1570    8.1690 ca        1 R26     -0.126300
     23 CAH         5.0800    0.1160    9.3350 ca        1 R26     -0.174300
     24 CAI         5.3630   -0.9970   10.3310 c3        1 R26      0.688200
     25 FAL         6.5790   -0.9070   10.9690 f         1 R26     -0.248967
     26 FAJ         4.4640   -1.0790   11.3700 f         1 R26     -0.248967
     27 FAK         5.3670   -2.2690    9.8080 f         1 R26     -0.248967
     28 H1          1.4900    1.3190   -0.8160 ha        1 R26      0.139000
     29 H2          2.6080    1.5240    1.3860 ha        1 R26      0.153500
     30 H3         -1.3670   -1.4650    0.8790 ha        1 R26      0.139000
     31 H4         -0.2570   -1.2440    3.0940 ha        1 R26      0.153500
     32 H5          2.6790   -0.6320    3.7690 h1        1 R26      0.055700
     33 H6          1.1370   -0.0340    4.5260 h1        1 R26      0.055700
     34 H7          2.1550    2.2760    3.6320 hn        1 R26      0.476800
     35 H9          5.6080    3.4770    9.0020 ha        1 R26      0.150000
     36 H10         6.0660    1.5960   10.5790 ha        1 R26      0.135000
     37 H11         4.0650   -1.1830    7.9400 ha        1 R26      0.151000
@<TRIPOS>BOND
     1    1    2 3   
     2    2    3 1   
     3    3    4 ar  
     4    3    6 ar  
     5    4    5 ar  
     6    4   28 1   
     7    5    8 ar  
     8    5   29 1   
     9    6    7 ar  
    10    6   30 1   
    11    7    8 ar  
    12    7   31 1   
    13    8    9 1   
    14    9   10 1   
    15    9   32 1   
    16    9   33 1   
    17   10   11 1   
    18   10   34 1   
    19   11   12 ar  
    20   11   20 ar  
    21   12   13 1   
    22   12   16 ar  
    23   13   14 1   
    24   13   15 1   
    25   16   17 ar  
    26   17   18 ar  
    27   17   21 ar  
    28   18   19 ar  
    29   18   35 1   
    30   19   23 ar  
    31   19   36 1   
    32   20   21 ar  
    33   21   22 ar  
    34   22   23 ar  
    35   22   37 1   
    36   23   24 1   
    37   24   25 1   
    38   24   26 1   
    39   24   27 1   
@<TRIPOS>SUBSTRUCTURE
     1 R26         1 TEMP              0 ****  ****    0 ROOT
