@<TRIPOS>MOLECULE
R2B
   17    16     1     0     0
SMALL
bcc


@<TRIPOS>ATOM
      1 C1'        -0.8360    0.2960   -1.5420 c1        1 R2B     -0.093000
      2 O4'         0.5480    0.2960   -1.5420 o         1 R2B     -0.221000
      3 C4'         0.8890    0.2960   -0.1230 c3        1 R2B     -0.029000
      4 C5'         1.3530   -0.9370    0.2610 c3        1 R2B     -0.023000
      5 O5'         2.4720   -1.2830   -0.5240 oh        1 R2B     -0.319000
      6 C3'        -0.5330    0.6480    0.6510 c3        1 R2B      0.070000
      7 O3'        -0.5570    2.0280    1.0230 oh        1 R2B     -0.314000
      8 C2'        -1.3880    0.3180   -0.2810 c2        1 R2B     -0.121000
      9 O2'        -2.4750   -0.5200    0.0260 oh        1 R2B     -0.233000
     10 H1'1       -1.3580    0.1780   -2.3580 ha        1 R2B      0.186000
     11 H4'         1.5560    0.9830    0.0650 h1        1 R2B      0.147000
     12 H5'1        0.6500   -1.6030    0.1360 h1        1 R2B      0.095000
     13 H5'2        1.6120   -0.9090    1.2020 h1        1 R2B      0.095000
     14 HO'5        2.8740   -1.9920   -0.1710 ho        1 R2B      0.212000
     15 H3'        -0.7290    0.2080    1.5000 h1        1 R2B      0.106000
     16 H3T        -0.8450    2.1040    1.8590 ho        1 R2B      0.222000
     17 H8         -3.2340   -0.1100   -0.1820 ho        1 R2B      0.221000
@<TRIPOS>BOND
     1    1    8 1   
     2    1   10 1   
     3    2    3 1   
     4    3    4 1   
     5    3    6 1   
     6    3   11 1   
     7    4    5 1   
     8    4   12 1   
     9    4   13 1   
    10    5   14 1   
    11    6    7 1   
    12    6    8 1   
    13    6   15 1   
    14    7   16 1   
    15    8    9 1   
    16    9   17 1   
@<TRIPOS>SUBSTRUCTURE
     1 R2B         1 TEMP              0 ****  ****    0 ROOT
