@<TRIPOS>MOLECULE
R2B
   17    17     1     0     0
SMALL
bcc


@<TRIPOS>ATOM
      1 C1'         0.5730   -1.3800    0.6180 c2        1 R2B     -0.048900
      2 O4'        -0.7290   -0.9020    0.7550 os        1 R2B     -0.336900
      3 C4'        -0.8160    0.4000    0.1000 c3        1 R2B      0.082100
      4 C5'        -1.9010    0.3140   -0.9670 c3        1 R2B      0.127400
      5 O5'        -3.1640    0.0480   -0.3960 oh        1 R2B     -0.591800
      6 C3'         0.5820    0.6970   -0.5050 c3        1 R2B      0.185300
      7 O3'         1.0600    1.9020    0.0560 oh        1 R2B     -0.586800
      8 C2'         1.3650   -0.5260   -0.0710 c2        1 R2B     -0.081100
      9 O2'         2.6830   -0.5900   -0.4150 oh        1 R2B     -0.478100
     10 H1'1        0.7350   -2.3480    1.0890 h4        1 R2B      0.186000
     11 H4'        -1.0840    1.1360    0.9030 h1        1 R2B      0.107700
     12 H5'1       -2.0130    1.3070   -1.4780 h1        1 R2B      0.055700
     13 H5'2       -1.6430   -0.4780   -1.7200 h1        1 R2B      0.055700
     14 HO'5       -3.0780   -0.7640    0.1200 ho        1 R2B      0.413000
     15 H3'         0.5540    0.7860   -1.6240 h1        1 R2B      0.066700
     16 H3T         2.0150    1.9160   -0.0890 ho        1 R2B      0.423000
     17 H8          3.0420   -1.4090   -0.0430 ho        1 R2B      0.422000
@<TRIPOS>BOND
     1    1    2 1   
     2    1    8 2   
     3    1   10 1   
     4    2    3 1   
     5    3    4 1   
     6    3    6 1   
     7    3   11 1   
     8    4    5 1   
     9    4   12 1   
    10    4   13 1   
    11    5   14 1   
    12    6    7 1   
    13    6    8 1   
    14    6   15 1   
    15    7   16 1   
    16    8    9 1   
    17    9   17 1   
@<TRIPOS>SUBSTRUCTURE
     1 R2B         1 TEMP              0 ****  ****    0 ROOT
