@<TRIPOS>MOLECULE
R2C
   42    44     1     0     0
SMALL
bcc


@<TRIPOS>ATOM
      1 C1          0.2660   -0.5010    0.0020 ca        1 R2C     -0.103000
      2 C2          1.5960   -0.0760    0.1640 ca        1 R2C      0.119100
      3 C3          2.0380    0.4050    1.4010 ca        1 R2C     -0.171000
      4 C4          1.1550    0.4510    2.4740 ca        1 R2C     -0.127000
      5 C5         -0.1860    0.0380    2.3370 ca        1 R2C      0.083600
      6 C6         -0.6210   -0.4300    1.0750 ca        1 R2C     -0.130600
      7 C7         -2.0110   -0.8820    0.8350 c         1 R2C      0.651700
      8 O8         -2.3460   -1.9700    0.3640 o         1 R2C     -0.493000
      9 O9         -3.0560   -0.0450    1.0840 oh        1 R2C     -0.565100
     10 O10         2.3780   -0.1720   -0.9680 os        1 R2C     -0.318900
     11 C11         3.7440    0.2030   -0.8230 c3        1 R2C      0.110700
     12 N12        -1.1090    0.1530    3.4170 nh        1 R2C     -0.602000
     13 C13        -1.2970   -0.9790    4.2570 ca        1 R2C      0.092600
     14 C14        -1.3340   -2.2900    3.7380 ca        1 R2C     -0.142500
     15 C15        -1.6170   -3.3710    4.5640 ca        1 R2C     -0.127000
     16 C16        -1.8600   -3.1570    5.9250 ca        1 R2C      0.082100
     17 C17        -1.8220   -1.8640    6.4660 ca        1 R2C     -0.127000
     18 C18        -1.5430   -0.7860    5.6360 ca        1 R2C     -0.142500
     19 O19        -2.2520   -4.1680    6.7980 os        1 R2C     -0.248200
     20 C20        -1.6380   -5.4060    6.6380 ca        1 R2C      0.106100
     21 C21        -0.3060   -5.5570    6.2350 ca        1 R2C     -0.159000
     22 C22         0.2470   -6.8360    6.1990 ca        1 R2C     -0.106500
     23 C23        -0.5150   -7.9460    6.5620 ca        1 R2C     -0.151000
     24 C24        -1.8420   -7.7820    6.9640 ca        1 R2C     -0.106500
     25 C25        -2.4180   -6.5150    7.0020 ca        1 R2C     -0.159000
     26 H1         -0.0680   -0.8940   -0.9720 ha        1 R2C      0.173000
     27 H3          3.0770    0.7390    1.5400 ha        1 R2C      0.146000
     28 H4          1.5200    0.8190    3.4460 ha        1 R2C      0.141000
     29 H111        3.8280    1.2820   -0.5490 h1        1 R2C      0.048367
     30 H112        4.2510   -0.4380   -0.0620 h1        1 R2C      0.048367
     31 H113        4.1700    0.0200   -1.8420 h1        1 R2C      0.048367
     32 HN12       -2.7460    0.7580    1.5270 ho        1 R2C      0.440000
     33 H14        -1.1580   -2.4690    2.6630 ha        1 R2C      0.144000
     34 H15        -1.6530   -4.3910    4.1510 ha        1 R2C      0.153500
     35 H17        -2.0240   -1.7130    7.5360 ha        1 R2C      0.153500
     36 H18        -1.5250    0.2260    6.0700 ha        1 R2C      0.144000
     37 H21         0.2880   -4.6770    5.9510 ha        1 R2C      0.148500
     38 H22         1.2930   -6.9660    5.8830 ha        1 R2C      0.134500
     39 H23        -0.0720   -8.9510    6.5310 ha        1 R2C      0.134000
     40 H24        -2.4420   -8.6600    7.2490 ha        1 R2C      0.134500
     41 H25        -3.4610   -6.3690    7.3170 ha        1 R2C      0.148500
     42 H122       -0.9100    0.9740    3.9620 hn        1 R2C      0.392800
@<TRIPOS>BOND
     1    1    2 ar  
     2    1    6 ar  
     3    1   26 1   
     4    2    3 ar  
     5    2   10 1   
     6    3    4 ar  
     7    3   27 1   
     8    4    5 ar  
     9    4   28 1   
    10    5    6 ar  
    11    5   12 1   
    12    6    7 1   
    13    7    8 2   
    14    7    9 1   
    15    9   32 1   
    16   10   11 1   
    17   11   29 1   
    18   11   30 1   
    19   11   31 1   
    20   12   13 1   
    21   12   42 1   
    22   13   14 ar  
    23   13   18 ar  
    24   14   15 ar  
    25   14   33 1   
    26   15   16 ar  
    27   15   34 1   
    28   16   17 ar  
    29   16   19 1   
    30   17   18 ar  
    31   17   35 1   
    32   18   36 1   
    33   19   20 1   
    34   20   21 ar  
    35   20   25 ar  
    36   21   22 ar  
    37   21   37 1   
    38   22   23 ar  
    39   22   38 1   
    40   23   24 ar  
    41   23   39 1   
    42   24   25 ar  
    43   24   40 1   
    44   25   41 1   
@<TRIPOS>SUBSTRUCTURE
     1 R2C         1 TEMP              0 ****  ****    0 ROOT
