@<TRIPOS>MOLECULE
R2C
   41    43     1     0     0
SMALL
bcc


@<TRIPOS>ATOM
      1 C1          4.7520   -0.2210    0.0100 ca        1 R2C     -0.110000
      2 C2          4.7200    1.1800    0.0990 ca        1 R2C      0.077100
      3 C3          3.5530    1.8840   -0.2030 ca        1 R2C     -0.208000
      4 C4          2.4150    1.1810   -0.5910 ca        1 R2C     -0.146000
      5 C5          2.4220   -0.2260   -0.6770 ca        1 R2C      0.111600
      6 C6          3.6200   -0.9300   -0.3790 ca        1 R2C     -0.122600
      7 C7          3.7480   -2.4490   -0.4720 c         1 R2C      0.912200
      8 O8          4.5900   -3.0070    0.2800 o         1 R2C     -0.821300
      9 O9          3.0260   -3.0740   -1.3050 o         1 R2C     -0.821300
     10 O10         5.9120    1.7740    0.4960 os        1 R2C     -0.331900
     11 C11         5.8890    3.1860    0.6100 c3        1 R2C      0.120700
     12 N12         1.2820   -0.9140   -1.1530 nh        1 R2C     -0.614000
     13 C13         0.0380   -0.8200   -0.5450 ca        1 R2C      0.206600
     14 C14        -0.2710    0.1150    0.4760 ca        1 R2C     -0.204500
     15 C15        -1.5650    0.2470    0.9580 ca        1 R2C     -0.089500
     16 C16        -2.5820   -0.5650    0.4460 ca        1 R2C     -0.016900
     17 C17        -2.3040   -1.5260   -0.5340 ca        1 R2C     -0.089500
     18 C18        -1.0140   -1.6590   -1.0170 ca        1 R2C     -0.204500
     19 O19        -3.8560   -0.5170    1.0240 os        1 R2C     -0.247200
     20 C20        -4.7670    0.3340    0.4200 ca        1 R2C      0.135100
     21 C21        -4.4870    1.1200   -0.7060 ca        1 R2C     -0.178500
     22 C22        -5.4860    1.9400   -1.2260 ca        1 R2C     -0.104500
     23 C23        -6.7490    1.9790   -0.6370 ca        1 R2C     -0.179000
     24 C24        -7.0190    1.1920    0.4840 ca        1 R2C     -0.104500
     25 C25        -6.0380    0.3660    1.0220 ca        1 R2C     -0.178500
     26 H1          5.6700   -0.7770    0.2640 ha        1 R2C      0.170000
     27 H3          3.5140    2.9790   -0.1450 ha        1 R2C      0.116000
     28 H4          1.5050    1.7460   -0.8420 ha        1 R2C      0.124000
     29 H111        6.9250    3.4440    0.9480 h1        1 R2C      0.029700
     30 H112        5.6710    3.6630   -0.3770 h1        1 R2C      0.029700
     31 H113        5.1380    3.5140    1.3700 h1        1 R2C      0.029700
     32 HN12        1.5070   -1.8270   -1.5380 hn        1 R2C      0.484800
     33 H14         0.5280    0.7340    0.9130 ha        1 R2C      0.145500
     34 H15        -1.7930    0.9750    1.7500 ha        1 R2C      0.132500
     35 H17        -3.1100   -2.1760   -0.9050 ha        1 R2C      0.132500
     36 H18        -0.7970   -2.4310   -1.7710 ha        1 R2C      0.145500
     37 H21        -3.4890    1.0840   -1.1670 ha        1 R2C      0.149500
     38 H22        -5.2720    2.5580   -2.1100 ha        1 R2C      0.124000
     39 H23        -7.5310    2.6280   -1.0540 ha        1 R2C      0.122000
     40 H24        -8.0160    1.2240    0.9480 ha        1 R2C      0.124000
     41 H25        -6.2360   -0.2580    1.9030 ha        1 R2C      0.149500
@<TRIPOS>BOND
     1    1    2 ar  
     2    1    6 ar  
     3    1   26 1   
     4    2    3 ar  
     5    2   10 1   
     6    3    4 ar  
     7    3   27 1   
     8    4    5 ar  
     9    4   28 1   
    10    5    6 ar  
    11    5   12 1   
    12    6    7 1   
    13    7    8 1   
    14    7    9 1   
    15   10   11 1   
    16   11   29 1   
    17   11   30 1   
    18   11   31 1   
    19   12   13 1   
    20   12   32 1   
    21   13   14 ar  
    22   13   18 ar  
    23   14   15 ar  
    24   14   33 1   
    25   15   16 ar  
    26   15   34 1   
    27   16   17 ar  
    28   16   19 1   
    29   17   18 ar  
    30   17   35 1   
    31   18   36 1   
    32   19   20 1   
    33   20   21 ar  
    34   20   25 ar  
    35   21   22 ar  
    36   21   37 1   
    37   22   23 ar  
    38   22   38 1   
    39   23   24 ar  
    40   23   39 1   
    41   24   25 ar  
    42   24   40 1   
    43   25   41 1   
@<TRIPOS>SUBSTRUCTURE
     1 R2C         1 TEMP              0 ****  ****    0 ROOT
