@<TRIPOS>MOLECULE
R2C
   41    36     1     0     0
SMALL
bcc


@<TRIPOS>ATOM
      1 C1         -0.9820    3.3950   -2.9800 c1        1 R2C     -0.157000
      2 C2         -0.3810    2.8810   -4.1340 c1        1 R2C      0.032000
      3 C3          0.6060    1.9300   -4.0290 c1        1 R2C     -0.164000
      4 C4          1.0100    1.4750   -2.7660 c1        1 R2C     -0.145000
      5 C5          0.4190    1.9790   -1.6340 c1        1 R2C      0.025000
      6 C6         -0.5850    2.9480   -1.7400 c2        1 R2C     -0.099000
      7 C7         -1.1930    3.5480   -0.4900 c2        1 R2C      0.361000
      8 O8         -2.3380    3.1860   -0.1110 o         1 R2C     -0.558500
      9 O9         -0.5220    4.3530    0.2120 o         1 R2C     -0.558500
     10 O10        -0.8890    3.2530   -5.4390 os        1 R2C     -0.230000
     11 C11        -0.1500    4.3150   -6.0750 c3        1 R2C     -0.071000
     12 N12         0.8620    1.5320   -0.3210 n2        1 R2C     -0.244000
     13 C13         0.2590    0.3750    0.2860 c2        1 R2C      0.124000
     14 C14         0.5140   -0.8990   -0.2360 c2        1 R2C     -0.209000
     15 C15         0.0460   -2.0270    0.4230 c1        1 R2C     -0.088000
     16 C16        -0.6730   -1.8950    1.6010 c1        1 R2C     -0.061000
     17 C17        -0.9270   -0.6280    2.1220 c1        1 R2C     -0.091000
     18 C18        -0.4570    0.5080    1.4580 c1        1 R2C     -0.199000
     19 O19        -1.2940   -3.0140    2.1640 os        1 R2C     -0.158000
     20 C20        -0.4740   -3.5540    3.1280 c2        1 R2C      0.090000
     21 C21        -0.3210   -2.9050    4.3610 c2        1 R2C     -0.189000
     22 C22         0.4750   -3.4750    5.3560 c1        1 R2C     -0.100000
     23 C23         1.1200   -4.6930    5.1230 c1        1 R2C     -0.143000
     24 C24         0.9670   -5.3460    3.8840 c1        1 R2C     -0.143000
     25 C25         0.1730   -4.7780    2.8930 c1        1 R2C     -0.168000
     26 H1         -1.6860    4.0730   -3.0540 ha        1 R2C      0.164000
     27 H3          1.0230    1.5740   -4.8290 ha        1 R2C      0.127000
     28 H4          1.7540    0.8520   -2.6900 ha        1 R2C      0.125000
     29 H111        0.7820    4.0280   -6.2180 h1        1 R2C      0.076000
     30 H112       -0.5660    4.5310   -6.9500 h1        1 R2C      0.076000
     31 H113       -0.1640    5.1220   -5.4930 h1        1 R2C      0.076000
     32 HN12        1.5190    1.9990    0.1290 hn        1 R2C      0.278000
     33 H14         1.0170   -0.9930   -1.0610 ha        1 R2C      0.148000
     34 H15         0.2250   -2.9160    0.0580 ha        1 R2C      0.132000
     35 H17        -1.4620   -0.5340    2.9050 ha        1 R2C      0.132000
     36 H18        -0.6380    1.4080    1.8280 ha        1 R2C      0.143000
     37 H21        -0.7920   -2.0760    4.5330 ha        1 R2C      0.156000
     38 H22         0.5830   -3.0190    6.2210 ha        1 R2C      0.126000
     39 H23         1.6700   -5.0860    5.8120 ha        1 R2C      0.122000
     40 H24         1.4070   -6.1910    3.7260 ha        1 R2C      0.122000
     41 H25         0.0650   -5.2330    2.0290 ha        1 R2C      0.143000
@<TRIPOS>BOND
     1    1    6 1   
     2    1   26 1   
     3    2    3 1   
     4    2   10 1   
     5    3   27 1   
     6    4    5 1   
     7    4   28 1   
     8    5    6 1   
     9    6    7 1   
    10    7    8 1   
    11    7    9 1   
    12   10   11 1   
    13   11   29 1   
    14   11   30 1   
    15   11   31 1   
    16   12   13 1   
    17   12   32 1   
    18   13   14 1   
    19   13   18 1   
    20   14   15 1   
    21   14   33 1   
    22   15   34 1   
    23   16   17 1   
    24   16   19 1   
    25   17   35 1   
    26   18   36 1   
    27   19   20 1   
    28   20   21 1   
    29   20   25 1   
    30   21   22 1   
    31   21   37 1   
    32   22   38 1   
    33   23   24 1   
    34   23   39 1   
    35   24   40 1   
    36   25   41 1   
@<TRIPOS>SUBSTRUCTURE
     1 R2C         1 TEMP              0 ****  ****    0 ROOT
