@<TRIPOS>MOLECULE
R2C
   41    43     1     0     0
SMALL
bcc


@<TRIPOS>ATOM
      1 C1          0.1910    1.0500    0.0830 ca        1 R2C     -0.110000
      2 C2          1.4300    0.4070   -0.0730 ca        1 R2C      0.077100
      3 C3          1.8970   -0.4800    0.8970 ca        1 R2C     -0.208000
      4 C4          1.1170   -0.7270    2.0250 ca        1 R2C     -0.146000
      5 C5         -0.1340   -0.1020    2.1970 ca        1 R2C      0.111600
      6 C6         -0.5920    0.8100    1.2080 ca        1 R2C     -0.122600
      7 C7         -1.9150    1.5660    1.3090 c         1 R2C      0.912200
      8 O8         -2.4770    1.8990    0.2330 o         1 R2C     -0.821300
      9 O9         -2.3750    1.8430    2.4570 o         1 R2C     -0.821300
     10 O10         2.1190    0.7290   -1.2370 os        1 R2C     -0.331900
     11 C11         3.3630    0.0740   -1.4180 c3        1 R2C      0.120700
     12 N12        -0.8700   -0.3010    3.3890 nh        1 R2C     -0.614000
     13 C13        -1.2840   -1.5550    3.8150 ca        1 R2C      0.207600
     14 C14        -0.8490   -2.7710    3.2270 ca        1 R2C     -0.204500
     15 C15        -1.1970   -3.9960    3.7760 ca        1 R2C     -0.089500
     16 C16        -2.0040   -4.0410    4.9170 ca        1 R2C     -0.016900
     17 C17        -2.4830   -2.8620    5.5000 ca        1 R2C     -0.089500
     18 C18        -2.1370   -1.6370    4.9550 ca        1 R2C     -0.204500
     19 O19        -2.4570   -5.2780    5.3910 os        1 R2C     -0.247200
     20 C20        -1.6900   -5.8680    6.3810 ca        1 R2C      0.135100
     21 C21        -0.5240   -5.3050    6.9180 ca        1 R2C     -0.178500
     22 C22         0.1660   -5.9930    7.9130 ca        1 R2C     -0.104500
     23 C23        -0.2950   -7.2260    8.3720 ca        1 R2C     -0.179000
     24 C24        -1.4580   -7.7800    7.8320 ca        1 R2C     -0.104500
     25 C25        -2.1640   -7.1120    6.8380 ca        1 R2C     -0.178500
     26 H1         -0.1840    1.7380   -0.6930 ha        1 R2C      0.170000
     27 H3          2.8660   -0.9850    0.7930 ha        1 R2C      0.116000
     28 H4          1.5010   -1.4160    2.7930 ha        1 R2C      0.124000
     29 H111        3.7290    0.4630   -2.4010 h1        1 R2C      0.029700
     30 H112        4.0770    0.3430   -0.6010 h1        1 R2C      0.029700
     31 H113        3.2290   -1.0340   -1.4610 h1        1 R2C      0.029700
     32 HN12       -1.5190    0.4560    3.5800 hn        1 R2C      0.484800
     33 H14        -0.2450   -2.7490    2.3070 ha        1 R2C      0.145500
     34 H15        -0.8550   -4.9320    3.3100 ha        1 R2C      0.132500
     35 H17        -3.1400   -2.9150    6.3800 ha        1 R2C      0.132500
     36 H18        -2.5340   -0.7140    5.4040 ha        1 R2C      0.145500
     37 H21        -0.1650   -4.3310    6.5520 ha        1 R2C      0.149500
     38 H22         1.0820   -5.5560    8.3380 ha        1 R2C      0.124000
     39 H23         0.2550   -7.7630    9.1570 ha        1 R2C      0.122000
     40 H24        -1.8210   -8.7520    8.1950 ha        1 R2C      0.124000
     41 H25        -3.0800   -7.5340    6.4040 ha        1 R2C      0.149500
@<TRIPOS>BOND
     1    1    2 ar  
     2    1    6 ar  
     3    1   26 1   
     4    2    3 ar  
     5    2   10 1   
     6    3    4 ar  
     7    3   27 1   
     8    4    5 ar  
     9    4   28 1   
    10    5    6 ar  
    11    5   12 1   
    12    6    7 1   
    13    7    8 1   
    14    7    9 1   
    15   10   11 1   
    16   11   29 1   
    17   11   30 1   
    18   11   31 1   
    19   12   13 1   
    20   12   32 1   
    21   13   14 ar  
    22   13   18 ar  
    23   14   15 ar  
    24   14   33 1   
    25   15   16 ar  
    26   15   34 1   
    27   16   17 ar  
    28   16   19 1   
    29   17   18 ar  
    30   17   35 1   
    31   18   36 1   
    32   19   20 1   
    33   20   21 ar  
    34   20   25 ar  
    35   21   22 ar  
    36   21   37 1   
    37   22   23 ar  
    38   22   38 1   
    39   23   24 ar  
    40   23   39 1   
    41   24   25 ar  
    42   24   40 1   
    43   25   41 1   
@<TRIPOS>SUBSTRUCTURE
     1 R2C         1 TEMP              0 ****  ****    0 ROOT
