@<TRIPOS>MOLECULE
R2C
   41    43     1     0     0
SMALL
bcc


@<TRIPOS>ATOM
      1 C1          0.1840    1.0440    0.0750 ca        1 R2C     -0.110000
      2 C2          1.4250    0.4050   -0.0790 ca        1 R2C      0.077100
      3 C3          1.8940   -0.4800    0.8920 ca        1 R2C     -0.208000
      4 C4          1.1150   -0.7270    2.0210 ca        1 R2C     -0.146000
      5 C5         -0.1380   -0.1040    2.1920 ca        1 R2C      0.111600
      6 C6         -0.5990    0.8040    1.2010 ca        1 R2C     -0.122600
      7 C7         -1.9230    1.5580    1.3010 c         1 R2C      0.912200
      8 O8         -2.4870    1.8860    0.2240 o         1 R2C     -0.821300
      9 O9         -2.3830    1.8360    2.4490 o         1 R2C     -0.821300
     10 O10         2.1130    0.7260   -1.2440 os        1 R2C     -0.331900
     11 C11         3.3590    0.0740   -1.4230 c3        1 R2C      0.120700
     12 N12        -0.8730   -0.3040    3.3840 nu        1 R2C     -0.614000
     13 C13        -1.2840   -1.5580    3.8120 ca        1 R2C      0.206600
     14 C14        -0.8470   -2.7740    3.2260 ca        1 R2C     -0.204500
     15 C15        -1.1920   -3.9990    3.7770 ca        1 R2C     -0.089500
     16 C16        -1.9990   -4.0440    4.9180 ca        1 R2C     -0.016900
     17 C17        -2.4810   -2.8640    5.4990 ca        1 R2C     -0.089500
     18 C18        -2.1380   -1.6400    4.9520 ca        1 R2C     -0.204500
     19 O19        -2.4490   -5.2810    5.3940 os        1 R2C     -0.247200
     20 C20        -1.6830   -5.8650    6.3880 ca        1 R2C      0.135100
     21 C21        -0.5200   -5.2980    6.9260 ca        1 R2C     -0.178500
     22 C22         0.1690   -5.9810    7.9250 ca        1 R2C     -0.104500
     23 C23        -0.2900   -7.2150    8.3860 ca        1 R2C     -0.179000
     24 C24        -1.4490   -7.7730    7.8440 ca        1 R2C     -0.104500
     25 C25        -2.1540   -7.1100    6.8460 ca        1 R2C     -0.178500
     26 H1         -0.1930    1.7300   -0.7010 ha        1 R2C      0.170000
     27 H3          2.8640   -0.9820    0.7900 ha        1 R2C      0.116000
     28 H4          1.5010   -1.4130    2.7900 ha        1 R2C      0.124000
     29 H111        3.2270   -1.0350   -1.4650 h1        1 R2C      0.029700
     30 H112        3.7240    0.4620   -2.4070 h1        1 R2C      0.029700
     31 H113        4.0720    0.3460   -0.6070 h1        1 R2C      0.029700
     32 HN12       -1.5240    0.4530    3.5740 hn        1 R2C      0.484800
     33 H14        -0.2420   -2.7520    2.3060 ha        1 R2C      0.145500
     34 H15        -0.8480   -4.9340    3.3140 ha        1 R2C      0.132500
     35 H17        -3.1390   -2.9180    6.3780 ha        1 R2C      0.132500
     36 H18        -2.5380   -0.7170    5.3990 ha        1 R2C      0.145500
     37 H21        -0.1640   -4.3240    6.5590 ha        1 R2C      0.149500
     38 H22         1.0820   -5.5400    8.3510 ha        1 R2C      0.124000
     39 H23         0.2600   -7.7470    9.1740 ha        1 R2C      0.122000
     40 H24        -1.8100   -8.7460    8.2080 ha        1 R2C      0.124000
     41 H25        -3.0680   -7.5360    6.4100 ha        1 R2C      0.149500
@<TRIPOS>BOND
     1    1    2 ar  
     2    1    6 ar  
     3    1   26 1   
     4    2    3 ar  
     5    2   10 1   
     6    3    4 ar  
     7    3   27 1   
     8    4    5 ar  
     9    4   28 1   
    10    5    6 ar  
    11    5   12 1   
    12    6    7 1   
    13    7    8 1   
    14    7    9 1   
    15   10   11 1   
    16   11   29 1   
    17   11   30 1   
    18   11   31 1   
    19   12   13 1   
    20   12   32 1   
    21   13   14 ar  
    22   13   18 ar  
    23   14   15 ar  
    24   14   33 1   
    25   15   16 ar  
    26   15   34 1   
    27   16   17 ar  
    28   16   19 1   
    29   17   18 ar  
    30   17   35 1   
    31   18   36 1   
    32   19   20 1   
    33   20   21 ar  
    34   20   25 ar  
    35   21   22 ar  
    36   21   37 1   
    37   22   23 ar  
    38   22   38 1   
    39   23   24 ar  
    40   23   39 1   
    41   24   25 ar  
    42   24   40 1   
    43   25   41 1   
@<TRIPOS>SUBSTRUCTURE
     1 R2C         1 TEMP              0 ****  ****    0 ROOT
