@<TRIPOS>MOLECULE
R2G
   16    16     1     0     0
SMALL
bcc


@<TRIPOS>ATOM
      1 C1'         0.1020   -0.0270   -0.0690 c2        1 R2G      0.048100
      2 C2'         1.4400    0.1300    0.0040 c2        1 R2G     -0.330200
      3 C3'         1.9090   -0.1800    1.4060 c3        1 R2G      0.169300
      4 O3'         2.5870    0.8840    2.0310 oh        1 R2G     -0.581800
      5 C4'         0.5770   -0.5320    2.1310 c3        1 R2G      0.042100
      6 O4'        -0.4820   -0.4060    1.1350 os        1 R2G     -0.350900
      7 C5'         0.5560   -1.9600    2.6600 c3        1 R2G      0.129400
      8 O5'        -0.6570   -2.2490    3.3200 oh        1 R2G     -0.593800
      9 H1'        -0.6220    0.0850   -0.8780 h4        1 R2G      0.182000
     10 H2'         2.1320    0.4250   -0.7790 ha        1 R2G      0.168000
     11 H3'         2.6370   -1.0350    1.4350 h1        1 R2G      0.094700
     12 HO3'        2.0590    1.6830    1.9060 ho        1 R2G      0.406000
     13 H4'         0.3300    0.2030    2.9400 h1        1 R2G      0.090700
     14 H5'         1.3530   -2.0870    3.4420 h1        1 R2G      0.056700
     15 H5'A        0.7230   -2.6860    1.8200 h1        1 R2G      0.056700
     16 HO5'       -1.3700   -2.0800    2.6910 ho        1 R2G      0.412000
@<TRIPOS>BOND
     1    1    2 2   
     2    1    6 1   
     3    1    9 1   
     4    2    3 1   
     5    2   10 1   
     6    3    4 1   
     7    3    5 1   
     8    3   11 1   
     9    4   12 1   
    10    5    6 1   
    11    5    7 1   
    12    5   13 1   
    13    7    8 1   
    14    7   14 1   
    15    7   15 1   
    16    8   16 1   
@<TRIPOS>SUBSTRUCTURE
     1 R2G         1 TEMP              0 ****  ****    0 ROOT
