@<TRIPOS>MOLECULE
R2G
   16    16     1     0     0
SMALL
bcc


@<TRIPOS>ATOM
      1 C1'         0.0250    0.0900    0.0130 c2        1 R2G      0.048100
      2 C2'         1.3710    0.1830   -0.0010 c2        1 R2G     -0.330200
      3 C3'         1.9190   -0.2120    1.3500 c3        1 R2G      0.169300
      4 O3'         2.6880    0.7920    1.9700 oh        1 R2G     -0.581800
      5 C4'         0.6230   -0.5360    2.1510 c3        1 R2G      0.042100
      6 O4'        -0.4930   -0.3180    1.2380 os        1 R2G     -0.350900
      7 C5'         0.5710   -1.9850    2.6190 c3        1 R2G      0.129400
      8 O5'        -0.6070   -2.2490    3.3500 oh        1 R2G     -0.593800
      9 H1'        -0.7460    0.2710   -0.7380 h4        1 R2G      0.182000
     10 H2'         2.0220    0.4820   -0.8180 ha        1 R2G      0.168000
     11 H3'         2.6060   -1.0990    1.2920 h1        1 R2G      0.094700
     12 HO3'        2.1910    1.6180    1.9160 ho        1 R2G      0.406000
     13 H4'         0.4680    0.1710    3.0060 h1        1 R2G      0.090700
     14 H5'         1.4120   -2.1830    3.3370 h1        1 R2G      0.056700
     15 H5'A        0.6460   -2.6780    1.7390 h1        1 R2G      0.056700
     16 HO5'       -1.3530   -2.0200    2.7790 ho        1 R2G      0.412000
@<TRIPOS>BOND
     1    1    2 2   
     2    1    6 1   
     3    1    9 1   
     4    2    3 1   
     5    2   10 1   
     6    3    4 1   
     7    3    5 1   
     8    3   11 1   
     9    4   12 1   
    10    5    6 1   
    11    5    7 1   
    12    5   13 1   
    13    7    8 1   
    14    7   14 1   
    15    7   15 1   
    16    8   16 1   
@<TRIPOS>SUBSTRUCTURE
     1 R2G         1 TEMP              0 ****  ****    0 ROOT
