@<TRIPOS>MOLECULE
R2G
   16    16     1     0     0
SMALL
bcc


@<TRIPOS>ATOM
      1 C1'        -0.7640    1.6550    0.1100 c2        1 R2G      0.048100
      2 C2'        -1.5810    0.7750    0.7250 c2        1 R2G     -0.330200
      3 C3'        -0.9790   -0.6080    0.6520 c3        1 R2G      0.169300
      4 O3'        -1.8030   -1.5580    0.0180 oh        1 R2G     -0.581800
      5 C4'         0.3380   -0.3560   -0.1390 c3        1 R2G      0.042100
      6 O4'         0.3790    1.0730   -0.4300 os        1 R2G     -0.350900
      7 C5'         1.5830   -0.7070    0.6660 c3        1 R2G      0.129400
      8 O5'         2.7600   -0.4780   -0.0770 oh        1 R2G     -0.593800
      9 H1'        -0.8130    2.7320   -0.0560 h4        1 R2G      0.182000
     10 H2'        -2.5310    0.9610    1.2180 ha        1 R2G      0.168000
     11 H3'        -0.7770   -1.0430    1.6680 h1        1 R2G      0.094700
     12 HO3'       -2.1220   -1.1680   -0.8060 ho        1 R2G      0.406000
     13 H4'         0.3400   -0.8750   -1.1330 h1        1 R2G      0.090700
     14 H5'         1.6050   -0.1160    1.6200 h1        1 R2G      0.056700
     15 H5'A        1.5900   -1.8060    0.8950 h1        1 R2G      0.056700
     16 HO5'        2.7480    0.4490   -0.3500 ho        1 R2G      0.412000
@<TRIPOS>BOND
     1    1    2 2   
     2    1    6 1   
     3    1    9 1   
     4    2    3 1   
     5    2   10 1   
     6    3    4 1   
     7    3    5 1   
     8    3   11 1   
     9    4   12 1   
    10    5    6 1   
    11    5    7 1   
    12    5   13 1   
    13    7    8 1   
    14    7   14 1   
    15    7   15 1   
    16    8   16 1   
@<TRIPOS>SUBSTRUCTURE
     1 R2G         1 TEMP              0 ****  ****    0 ROOT
