@<TRIPOS>MOLECULE
R2P
   18    18     1     0     0
SMALL
bcc


@<TRIPOS>ATOM
      1 ND1        -1.5760   -1.4980    0.2650 nc        1 R2P     -0.473100
      2 N           1.3040    1.4690   -0.7440 n3        1 R2P     -0.929800
      3 CA          1.4770    0.0800   -0.3390 c3        1 R2P      0.008500
      4 C           2.9530   -0.2720    0.0910 c         1 R2P      0.901600
      5 OD2        -1.2490    2.1100    0.3120 oh        1 R2P     -0.619300
      6 CD2        -1.7180    0.8420    0.1820 cd        1 R2P      0.487300
      7 NE2        -2.9840    0.5900   -0.1300 nc        1 R2P     -0.536100
      8 SE1        -3.1380   -1.0700   -0.1270 ss        1 R2P      0.246200
      9 CG         -0.8800   -0.3920    0.4200 cd        1 R2P      0.257300
     10 CB          0.5510   -0.3010    0.8220 c3        1 R2P     -0.108700
     11 O           3.8230    0.6350   -0.0160 o         1 R2P     -0.824300
     12 OXT         3.1640   -1.4440    0.4960 o         1 R2P     -0.824300
     13 HA          1.2380   -0.5990   -1.2070 h1        1 R2P      0.047700
     14 HOD2       -0.2800    2.0700    0.0970 ho        1 R2P      0.490000
     15 HB          0.9170   -1.2920    1.2130 hc        1 R2P      0.082700
     16 HBA         0.6290    0.4530    1.6500 hc        1 R2P      0.082700
     17 H           2.0590    2.0100   -0.3500 hn        1 R2P      0.354300
     18 H2          1.3790    1.5360   -1.7400 hn        1 R2P      0.354300
@<TRIPOS>BOND
     1    1    8 1   
     2    1    9 2   
     3    2    3 1   
     4    2   17 1   
     5    2   18 1   
     6    3    4 1   
     7    3   10 1   
     8    3   13 1   
     9    4   11 1   
    10    4   12 1   
    11    5    6 1   
    12    5   14 1   
    13    6    7 2   
    14    6    9 1   
    15    7    8 1   
    16    9   10 1   
    17   10   15 1   
    18   10   16 1   
@<TRIPOS>SUBSTRUCTURE
     1 R2P         1 TEMP              0 ****  ****    0 ROOT
