@<TRIPOS>MOLECULE
R2P
   18    17     1     0     0
SMALL
bcc


@<TRIPOS>ATOM
      1 ND1         1.6040   -0.6620   -0.8110 n2        1 R2P     -0.260000
      2 N          -2.1360   -0.8580    1.3540 n3        1 R2P     -0.333000
      3 CA         -0.9130   -0.9420    0.6330 c3        1 R2P     -0.127000
      4 C          -1.0380   -1.9880   -0.4510 c2        1 R2P      0.312000
      5 OD2         1.3290    2.9960   -0.2070 oh        1 R2P     -0.199000
      6 CD2         1.7270    1.6820   -0.5140 c2        1 R2P      0.041000
      7 NE2         2.9850    1.2940   -0.9490 n2        1 R2P     -0.368000
      8 SE1         2.9660   -0.1770   -1.1520 ss        1 R2P      0.357000
      9 CG          0.8450    0.4320   -0.4260 c1        1 R2P     -0.026000
     10 CB         -0.6050    0.3990    0.0060 c2        1 R2P     -0.088000
     11 O          -0.2590   -2.9770   -0.4640 o         1 R2P     -0.570000
     12 OXT        -1.9310   -1.8780   -1.3320 o         1 R2P     -0.570000
     13 H          -2.0730   -1.3560    2.1210 hn        1 R2P      0.133500
     14 H2         -2.3040    0.0160    1.5700 hn        1 R2P      0.133500
     15 HA         -0.1900   -1.1900    1.2430 h1        1 R2P      0.092000
     16 HOD2        1.9400    3.5680   -0.5050 ho        1 R2P      0.230000
     17 HB         -0.7670    1.1090    0.6590 ha        1 R2P      0.121000
     18 HBA        -1.1810    0.5340   -0.7730 ha        1 R2P      0.121000
@<TRIPOS>BOND
     1    1    8 1   
     2    1    9 1   
     3    2    3 1   
     4    2   13 1   
     5    2   14 1   
     6    3    4 1   
     7    3   10 1   
     8    3   15 1   
     9    4   11 1   
    10    4   12 1   
    11    5    6 1   
    12    5   16 1   
    13    6    7 1   
    14    6    9 1   
    15    7    8 1   
    16   10   17 1   
    17   10   18 1   
@<TRIPOS>SUBSTRUCTURE
     1 R2P         1 TEMP              0 ****  ****    0 ROOT
