@<TRIPOS>MOLECULE
R2S
   32    35     1     0     0
SMALL
bcc


@<TRIPOS>ATOM
      1 CL1         0.0650   -0.6380    0.0840 cl        1 R2S     -0.088400
      2 C02         1.7360   -0.3240    0.0820 ca        1 R2S      0.022400
      3 C03         2.5490   -0.9380    1.0320 ca        1 R2S     -0.085000
      4 C04         3.9160   -0.6730    1.0160 ca        1 R2S     -0.084100
      5 C05         4.4700    0.2250    0.0440 ca        1 R2S      0.103400
      6 C06         3.6260    0.8300   -0.9070 ca        1 R2S     -0.069000
      7 C07         2.2680    0.5520   -0.8810 ca        1 R2S     -0.124000
      8 N08         5.8520    0.4420    0.1440 nc        1 R2S     -0.545100
      9 C09         6.3560   -0.2730    1.1470 cd        1 R2S      0.623100
     10 N10         7.6870   -0.3060    1.5370 nh        1 R2S     -0.819100
     11 S11         8.2800   -0.1910    3.0750 sy        1 R2S      1.546800
     12 O12         9.6750   -0.3480    2.9810 o         1 R2S     -0.635800
     13 O13         7.8180    0.9740    3.6940 o         1 R2S     -0.635800
     14 C14         7.6210   -1.5260    3.8150 cc        1 R2S     -0.468500
     15 C15         8.4110   -2.5860    4.2240 cd        1 R2S      0.050800
     16 C16         7.6550   -3.6370    4.8330 ca        1 R2S     -0.118800
     17 C17         8.1170   -4.8550    5.3630 ca        1 R2S     -0.065000
     18 C18         7.2020   -5.7420    5.8970 ca        1 R2S     -0.139000
     19 C19         5.8250   -5.4340    5.9130 ca        1 R2S     -0.090000
     20 C20         5.3540   -4.2410    5.3970 ca        1 R2S     -0.107000
     21 C21         6.2650   -3.3250    4.8510 ca        1 R2S     -0.075100
     22 S22         5.9980   -1.8120    4.1800 ss        1 R2S      0.217500
     23 S23         5.1520   -1.2800    2.0030 ss        1 R2S     -0.102100
     24 H1          2.1210   -1.6220    1.7800 ha        1 R2S      0.151000
     25 H2          4.0450    1.5160   -1.6580 ha        1 R2S      0.158000
     26 H3          1.6000    1.0220   -1.6200 ha        1 R2S      0.152000
     27 H4          8.3330   -0.2740    0.7730 hn        1 R2S      0.470800
     28 H5          9.5020   -2.6290    4.0970 ha        1 R2S      0.183000
     29 H6          9.1920   -5.0850    5.3460 ha        1 R2S      0.145000
     30 H7          7.5410   -6.7010    6.3180 ha        1 R2S      0.142000
     31 H8          5.1200   -6.1610    6.3460 ha        1 R2S      0.141000
     32 H9          4.2790   -4.0060    5.4150 ha        1 R2S      0.143000
@<TRIPOS>BOND
     1    1    2 1   
     2    2    3 ar  
     3    2    7 ar  
     4    3    4 ar  
     5    3   24 1   
     6    4    5 ar  
     7    4   23 1   
     8    5    6 ar  
     9    5    8 1   
    10    6    7 ar  
    11    6   25 1   
    12    7   26 1   
    13    8    9 2   
    14    9   10 1   
    15    9   23 1   
    16   10   11 1   
    17   10   27 1   
    18   11   12 2   
    19   11   13 2   
    20   11   14 1   
    21   14   15 2   
    22   14   22 1   
    23   15   16 1   
    24   15   28 1   
    25   16   17 ar  
    26   16   21 ar  
    27   17   18 ar  
    28   17   29 1   
    29   18   19 ar  
    30   18   30 1   
    31   19   20 ar  
    32   19   31 1   
    33   20   21 ar  
    34   20   32 1   
    35   21   22 1   
@<TRIPOS>SUBSTRUCTURE
     1 R2S         1 TEMP              0 ****  ****    0 ROOT
