@<TRIPOS>MOLECULE
R2S
   32    35     1     0     0
SMALL
bcc


@<TRIPOS>ATOM
      1 Cl1         0.0670   -0.6450    0.0750 cl        1 R2S     -0.088400
      2 C02         1.7380   -0.3320    0.0730 ca        1 R2S      0.022400
      3 C03         2.5500   -0.9430    1.0250 ca        1 R2S     -0.085000
      4 C04         3.9170   -0.6800    1.0080 ca        1 R2S     -0.084100
      5 C05         4.4730    0.2120    0.0330 ca        1 R2S      0.103400
      6 C06         3.6300    0.8150   -0.9210 ca        1 R2S     -0.069000
      7 C07         2.2720    0.5380   -0.8940 ca        1 R2S     -0.124000
      8 N08         5.8550    0.4290    0.1320 nc        1 R2S     -0.545100
      9 C09         6.3580   -0.2820    1.1380 cd        1 R2S      0.623100
     10 N10         7.6890   -0.3160    1.5290 nu        1 R2S     -0.819100
     11 S11         8.2830   -0.1930    3.0660 sy        1 R2S      1.546800
     12 O12         9.6770   -0.3520    2.9730 o         1 R2S     -0.635800
     13 O13         7.8210    0.9760    3.6780 o         1 R2S     -0.635800
     14 C14         7.6210   -1.5230    3.8130 cc        1 R2S     -0.468500
     15 C15         8.4100   -2.5810    4.2290 cd        1 R2S      0.050800
     16 C16         7.6520   -3.6280    4.8430 ca        1 R2S     -0.118800
     17 C17         8.1130   -4.8430    5.3810 ca        1 R2S     -0.065000
     18 C18         7.1960   -5.7260    5.9200 ca        1 R2S     -0.139000
     19 C19         5.8200   -5.4170    5.9330 ca        1 R2S     -0.090000
     20 C20         5.3500   -4.2260    5.4100 ca        1 R2S     -0.107000
     21 C21         6.2630   -3.3140    4.8580 ca        1 R2S     -0.075100
     22 S22         5.9980   -1.8050    4.1780 ss        1 R2S      0.216500
     23 S23         5.1530   -1.2840    1.9980 ss        1 R2S     -0.101100
     24 H1          2.1220   -1.6240    1.7760 ha        1 R2S      0.151000
     25 H2          4.0490    1.4980   -1.6750 ha        1 R2S      0.158000
     26 H3          1.6040    1.0060   -1.6350 ha        1 R2S      0.152000
     27 H4          8.3350   -0.2880    0.7640 hn        1 R2S      0.470800
     28 H5          9.5010   -2.6260    4.1030 ha        1 R2S      0.183000
     29 H6          9.1880   -5.0740    5.3670 ha        1 R2S      0.145000
     30 H7          7.5340   -6.6830    6.3470 ha        1 R2S      0.142000
     31 H8          5.1140   -6.1410    6.3700 ha        1 R2S      0.141000
     32 H9          4.2760   -3.9900    5.4250 ha        1 R2S      0.143000
@<TRIPOS>BOND
     1    1    2 1   
     2    2    3 ar  
     3    2    7 ar  
     4    3    4 ar  
     5    3   24 1   
     6    4    5 ar  
     7    4   23 1   
     8    5    6 ar  
     9    5    8 1   
    10    6    7 ar  
    11    6   25 1   
    12    7   26 1   
    13    8    9 2   
    14    9   10 1   
    15    9   23 1   
    16   10   11 1   
    17   10   27 1   
    18   11   12 2   
    19   11   13 2   
    20   11   14 1   
    21   14   15 2   
    22   14   22 1   
    23   15   16 1   
    24   15   28 1   
    25   16   17 ar  
    26   16   21 ar  
    27   17   18 ar  
    28   17   29 1   
    29   18   19 ar  
    30   18   30 1   
    31   19   20 ar  
    32   19   31 1   
    33   20   21 ar  
    34   20   32 1   
    35   21   22 1   
@<TRIPOS>SUBSTRUCTURE
     1 R2S         1 TEMP              0 ****  ****    0 ROOT
