@<TRIPOS>MOLECULE
R2Z
   57    53     1     0     0
SMALL
bcc


@<TRIPOS>ATOM
      1 P           0.3010   -1.4840    7.3030 p3        1 R2Z      2.533000
      2 N0         -1.0930    1.8470    5.3380 n         1 R2Z     -0.353000
      3 O0         -1.5010    3.0680    7.2390 o         1 R2Z     -0.458000
      4 C1         -0.6480    1.0880    3.0910 c1        1 R2Z     -0.150000
      5 N1          0.2000    1.0760   -1.7670 n         1 R2Z     -0.356000
      6 C2         -0.1850    1.9780    2.1120 c1        1 R2Z     -0.172000
      7 N2          3.3420   -0.2990   -2.6620 n         1 R2Z     -0.404000
      8 O2          1.3620    0.7400    0.2130 o         1 R2Z     -0.472000
      9 C3         -0.6420    2.0020    0.5000 c3        1 R2Z     -0.071000
     10 N3         -0.4020   -3.6560   -5.5870 n3        1 R2Z     -0.335000
     11 O3          2.2670    1.5070   -3.5780 o         1 R2Z     -0.439000
     12 C4         -0.7120    3.3060    0.2160 c3        1 R2Z     -0.149000
     13 N4         -1.5670   -5.7200   -5.4350 n1        1 R2Z     -0.416000
     14 C5          0.2970    4.0300    1.1900 c3        1 R2Z     -0.152000
     15 N5         -2.0520   -4.3470   -7.2940 n3        1 R2Z     -0.331000
     16 C6          0.7140    2.9750    2.2990 c2        1 R2Z     -0.114000
     17 C7          0.3940    1.2370   -0.3300 c2        1 R2Z      0.292000
     18 C9          0.8290    0.0090   -2.4500 c3        1 R2Z      0.040000
     19 C10         2.1720    0.4630   -2.9590 c2        1 R2Z      0.292000
     20 C11        -0.0490   -0.4270   -3.6360 c3        1 R2Z     -0.186000
     21 C12         0.2190   -1.9190   -3.9600 c3        1 R2Z     -0.177000
     22 C13        -0.8620   -2.4350   -4.9710 c3        1 R2Z     -0.070000
     23 C14        -1.3500   -4.6100   -6.0880 c2        1 R2Z      0.180000
     24 O1P         0.1330   -1.2230    8.7840 o         1 R2Z     -1.236000
     25 C20        -0.1280    1.1970    4.5390 c2        1 R2Z     -0.016000
     26 C21         0.1300   -0.1820    5.0870 c3        1 R2Z      0.071000
     27 C22        -0.6800    2.6730    6.4260 c2        1 R2Z      0.251000
     28 O2P        -0.6780   -2.5350    6.8660 o         1 R2Z     -1.236000
     29 O3P         1.7070   -1.9630    7.0320 o         1 R2Z     -1.236000
     30 O4P         0.0340   -0.1520    6.5010 o         1 R2Z     -0.725000
     31 HN0        -1.9820    1.6930    5.1950 hn        1 R2Z      0.214000
     32 H1         -1.3020    0.3970    2.8560 ha        1 R2Z      0.253000
     33 HN1        -0.3880    1.6120   -2.2070 hn        1 R2Z      0.332000
     34 HN2         3.2710   -1.0800   -2.2010 hn        1 R2Z      0.204500
     35 HN2A        4.1640   -0.0090   -2.9490 hn        1 R2Z      0.204500
     36 H3         -1.4670    1.5410    0.2500 hc        1 R2Z      0.115000
     37 HN3         0.4840   -3.8240   -5.6510 hn        1 R2Z      0.206000
     38 H4         -1.6250    3.6360    0.3670 hc        1 R2Z      0.078000
     39 H4A        -0.4490    3.4610   -0.7160 hc        1 R2Z      0.078000
     40 HN4        -1.1170   -5.8880   -4.6630 DU        1 R2Z      0.130000
     41 H5          1.0880    4.3230    0.6940 hc        1 R2Z      0.063500
     42 H5A        -0.1410    4.8050    1.6110 hc        1 R2Z      0.063500
     43 HN5        -1.6510   -3.8680   -7.9600 hn        1 R2Z      0.188500
     44 HN5A       -2.9110   -4.6450   -7.3980 hn        1 R2Z      0.188500
     45 H6          0.6730    3.3040    3.2230 ha        1 R2Z      0.076500
     46 H6A         1.6500    2.7040    2.2160 ha        1 R2Z      0.076500
     47 H9          0.9500   -0.7440   -1.8390 h1        1 R2Z      0.103000
     48 H11        -0.9940   -0.3080   -3.4030 hc        1 R2Z      0.149000
     49 H11A        0.1650    0.1190   -4.4180 hc        1 R2Z      0.149000
     50 H12         1.1100   -2.0120   -4.3590 hc        1 R2Z      0.129500
     51 H12A        0.1730   -2.4450   -3.1380 hc        1 R2Z      0.129500
     52 H13        -1.7020   -2.6070   -4.4920 h1        1 R2Z      0.080500
     53 H13A       -1.0140   -1.7540   -5.6650 h1        1 R2Z      0.080500
     54 H20         0.7020    1.7100    4.5490 h4        1 R2Z      0.092000
     55 H21         1.0290   -0.4750    4.8250 h1        1 R2Z      0.045000
     56 H21A       -0.5320   -0.8030    4.7290 h1        1 R2Z      0.045000
     57 H22         0.2620    2.9140    6.5270 h5        1 R2Z      0.121000
@<TRIPOS>BOND
     1    1   24 1   
     2    1   28 1   
     3    1   29 1   
     4    2   25 1   
     5    2   27 1   
     6    2   31 1   
     7    3   27 1   
     8    4    6 1   
     9    4   32 1   
    10    5   17 1   
    11    5   18 1   
    12    5   33 1   
    13    6    9 1   
    14    7   19 1   
    15    7   34 1   
    16    7   35 1   
    17    8   17 1   
    18    9   12 1   
    19    9   17 1   
    20    9   36 1   
    21   10   22 1   
    22   10   23 1   
    23   10   37 1   
    24   11   19 1   
    25   12   14 1   
    26   12   38 1   
    27   12   39 1   
    28   13   23 1   
    29   14   16 1   
    30   14   41 1   
    31   14   42 1   
    32   15   23 1   
    33   15   43 1   
    34   15   44 1   
    35   16   45 1   
    36   16   46 1   
    37   18   19 1   
    38   18   20 1   
    39   18   47 1   
    40   20   21 1   
    41   20   48 1   
    42   20   49 1   
    43   21   22 1   
    44   21   50 1   
    45   21   51 1   
    46   22   52 1   
    47   22   53 1   
    48   25   26 1   
    49   25   54 1   
    50   26   30 1   
    51   26   55 1   
    52   26   56 1   
    53   27   57 1   
@<TRIPOS>SUBSTRUCTURE
     1 R2Z         1 TEMP              0 ****  ****    0 ROOT
