@<TRIPOS>MOLECULE
R2Z
   57    57     1     0     0
SMALL
bcc


@<TRIPOS>ATOM
      1 P          -1.9060    0.3820   -1.4850 p5        1 R2Z      1.371900
      2 N0         -0.3090    2.0080    2.1690 n         1 R2Z     -0.507900
      3 O0          0.5650    3.9890    3.0750 o         1 R2Z     -0.675100
      4 C1          1.6210    2.6240    0.6850 c2        1 R2Z     -0.138200
      5 N1          1.9440   -1.4110   -0.6040 n         1 R2Z     -0.546900
      6 C2          2.5720    2.1820   -0.1470 c2        1 R2Z     -0.125400
      7 C3          2.4980    0.9630   -1.0160 c3        1 R2Z     -0.113500
      8 N3         -3.0340   -2.8620    0.8900 nh        1 R2Z     -0.794200
      9 C4          3.6110    1.1140   -2.0610 c3        1 R2Z     -0.062400
     10 N4         -4.3960   -4.6210    0.0270 n2        1 R2Z     -0.937100
     11 C5          4.4440    2.3330   -1.6810 c3        1 R2Z     -0.072400
     12 N5         -5.0920   -2.3130   -0.3150 nh        1 R2Z     -0.932800
     13 C6          3.8450    2.9220   -0.4080 c3        1 R2Z     -0.032200
     14 C7          2.7160   -0.3310   -0.2290 c         1 R2Z      0.673100
     15 C9          1.9290   -2.6340    0.1580 c3        1 R2Z      0.050700
     16 C10         3.0800   -3.5860   -0.2620 c         1 R2Z      0.643100
     17 C11         0.6120   -3.4150    0.0260 c3        1 R2Z     -0.064400
     18 C12        -0.5840   -2.6230    0.5030 c3        1 R2Z     -0.143400
     19 C13        -1.7830   -3.5630    0.6680 c3        1 R2Z      0.207800
     20 C14        -4.1660   -3.3240    0.1380 c2        1 R2Z      0.771100
     21 O1P        -0.4680   -0.0960   -1.4840 o         1 R2Z     -0.937167
     22 C20         0.3210    1.9130    0.8610 c3        1 R2Z      0.051900
     23 C21        -0.6750    2.3450   -0.2770 c3        1 R2Z      0.219400
     24 O2P        -2.3490    1.1510   -2.6840 o         1 R2Z     -0.937167
     25 O3P        -2.8610   -0.6030   -0.8630 o         1 R2Z     -0.937167
     26 O4P        -1.8040    1.5690   -0.2350 os        1 R2Z     -0.576200
     27 HN0        -1.1710    1.4920    2.1570 hn        1 R2Z      0.327500
     28 H1          1.7640    3.5580    1.2520 ha        1 R2Z      0.141000
     29 HN1         1.0920   -1.2060   -1.1310 hn        1 R2Z      0.412500
     30 HN2         4.5500   -2.2420    0.2680 hn        1 R2Z      0.308500
     31 HN2A        5.1190   -3.7150   -0.3760 hn        1 R2Z      0.308500
     32 H3          1.4780    0.9200   -1.5200 hc        1 R2Z      0.172700
     33 HN3        -2.9050   -1.8610    0.7630 hn        1 R2Z      0.456800
     34 H4          4.2520    0.1980   -2.1000 hc        1 R2Z      0.039200
     35 H4A         3.1540    1.2500   -3.0730 hc        1 R2Z      0.039200
     36 HN4        -5.2420   -4.8330   -0.4570 hn        1 R2Z      0.345400
     37 H5          5.5120    2.0460   -1.5160 hc        1 R2Z      0.019200
     38 H5A         4.4260    3.0890   -2.5060 hc        1 R2Z      0.019200
     39 HN5        -5.4150   -2.5260   -1.2370 hn        1 R2Z      0.401800
     40 HN5A       -4.6840   -1.3850   -0.3190 hn        1 R2Z      0.401800
     41 H6          3.6580    4.0190   -0.5210 hc        1 R2Z      0.035200
     42 H6A         4.5460    2.7840    0.4560 hc        1 R2Z      0.035200
     43 H9          2.1000   -2.3970    1.2550 h1        1 R2Z      0.060700
     44 H11         0.4650   -3.7200   -1.0430 hc        1 R2Z      0.047700
     45 H11A        0.7250   -4.3560    0.6270 hc        1 R2Z      0.047700
     46 H12        -0.3530   -2.1310    1.4820 hc        1 R2Z      0.092700
     47 H12A       -0.8390   -1.7910   -0.2370 hc        1 R2Z      0.092700
     48 H13        -1.6150   -4.2300    1.5620 h1        1 R2Z      0.022200
     49 H13A       -1.8250   -4.2340   -0.2370 h1        1 R2Z      0.022200
     50 H20         0.5040    0.7970    0.7150 h1        1 R2Z      0.096700
     51 H21        -0.9480    3.4270   -0.1110 h1        1 R2Z      0.007200
     52 H21A       -0.1370    2.2430   -1.2600 h1        1 R2Z      0.007200
     53 H22        -1.0320    2.9650    3.8570 h5        1 R2Z     -0.021800
     54 N2          4.3680   -3.1690   -0.0390 n         1 R2Z     -0.679000
     55 O2          3.6160   -0.4380    0.6430 o         1 R2Z     -0.700100
     56 O3          2.8810   -4.7260   -0.7360 o         1 R2Z     -0.659100
     57 C22        -0.2650    3.0530    3.0420 c         1 R2Z      0.644900
@<TRIPOS>BOND
     1    1   21 1   
     2    1   24 1   
     3    1   25 1   
     4    1   26 1   
     5    2   22 1   
     6    2   27 1   
     7    2   57 1   
     8    3   57 2   
     9    4    6 2   
    10    4   22 1   
    11    4   28 1   
    12    5   14 1   
    13    5   15 1   
    14    5   29 1   
    15    6    7 1   
    16    6   13 1   
    17    7    9 1   
    18    7   14 1   
    19    7   32 1   
    20    8   19 1   
    21    8   20 1   
    22    8   33 1   
    23    9   11 1   
    24    9   34 1   
    25    9   35 1   
    26   10   20 2   
    27   10   36 1   
    28   11   13 1   
    29   11   37 1   
    30   11   38 1   
    31   12   20 1   
    32   12   39 1   
    33   12   40 1   
    34   13   41 1   
    35   13   42 1   
    36   14   55 2   
    37   15   16 1   
    38   15   17 1   
    39   15   43 1   
    40   16   54 1   
    41   16   56 2   
    42   17   18 1   
    43   17   44 1   
    44   17   45 1   
    45   18   19 1   
    46   18   46 1   
    47   18   47 1   
    48   19   48 1   
    49   19   49 1   
    50   22   23 1   
    51   22   50 1   
    52   23   26 1   
    53   23   51 1   
    54   23   52 1   
    55   30   54 1   
    56   31   54 1   
    57   53   57 1   
@<TRIPOS>SUBSTRUCTURE
     1 R2Z         1 TEMP              0 ****  ****    0 ROOT
