@<TRIPOS>MOLECULE
R2Z
   62    57     1     0     0
SMALL
bcc


@<TRIPOS>ATOM
      1 P         625.8610  179.8880   41.9230 p5        1 R2Z      2.538000
      2 N0        623.7190  182.9790   39.4890 n4        1 R2Z     -0.107000
      3 O0        620.4620  185.0630   38.4800 o         1 R2Z     -0.046000
      4 C1        625.2670  184.5030   40.7400 c2        1 R2Z      0.163000
      5 N1       -422.5150  374.0280 -112.8440 n4        1 R2Z     -0.172000
      6 C2        625.4960  185.1540   39.6250 c1        1 R2Z     -0.627000
      7 C3       -422.2720  375.1050 -110.5810 c1        1 R2Z     -0.291000
      8 N3       -160.5560 -690.7240   91.3660 n3        1 R2Z     -0.316000
      9 C4       -422.7500  375.3910 -109.5210 c1        1 R2Z      0.035000
     10 N4       -162.1560 -688.9090   91.9880 n2        1 R2Z     -0.220000
     11 C5          1.4730   13.1130    4.4820 c3        1 R2Z     -0.266000
     12 N5       -160.0350 -688.3560   91.1120 n4        1 R2Z     -0.055000
     13 C6        625.8070  185.8750   38.6000 c1        1 R2Z      0.360000
     14 C7       -421.6260  374.7730 -111.8100 cx        1 R2Z      0.348000
     15 C9       -422.1210  375.4320 -113.0810 cx        1 R2Z     -0.130000
     16 C10      -421.2710  375.6950 -114.3220 c2        1 R2Z      0.309000
     17 C11      -419.3980  374.2290 -112.6030 c3        1 R2Z     -0.105000
     18 C12      -162.0850 -692.3380   92.5620 c3        1 R2Z     -0.261000
     19 C13      -161.5490 -691.7780   91.2570 c3        1 R2Z     -0.074000
     20 C14      -161.0400 -689.4060   91.5850 c2        1 R2Z      0.092000
     21 O1P       626.8580  179.3140   40.7810 os        1 R2Z     -0.498500
     22 C20       624.3340  183.3150   40.8110 c3        1 R2Z     -0.187000
     23 C21       625.0700  182.2160   41.5450 c1        1 R2Z      0.113000
     24 O2P       627.4070  180.2540   41.6070 os        1 R2Z     -0.498500
     25 O3P       625.0660  179.3720   42.9980 o         1 R2Z     -0.910000
     26 O4P       625.0140  181.0180   41.0300 os        1 R2Z     -0.613000
     27 HN0       623.4630  181.9890   39.4720 hn        1 R2Z      0.270000
     28 H1        625.7240  184.7640   41.7180 ha        1 R2Z      0.195000
     29 HN1      -423.4820  373.8250 -112.6310 hn        1 R2Z      0.276500
     30 HN2      -422.9410  376.1920 -112.9700 hx        1 R2Z      0.200000
     31 HN2A     -420.3670  377.1710 -115.3900 hn        1 R2Z      0.261500
     32 H3       -423.1890  375.6540 -108.5820 ha        1 R2Z      0.266000
     33 HN3      -162.6600 -691.5760   93.1400 hc        1 R2Z      0.101000
     34 H4       -423.0100  379.0340 -112.9190 ha        1 R2Z      0.000750
     35 H4A      -422.9220  378.3650 -112.8550 ha        1 R2Z      0.000750
     36 HN4      -162.8630 -689.5280   92.3280 hn        1 R2Z      0.239000
     37 H5          0.5260   12.9290    5.0340 hc        1 R2Z      0.066000
     38 H5A         1.6210   14.2070    4.3540 hc        1 R2Z      0.066000
     39 HN5      -159.1960 -688.4010   91.6950 hn        1 R2Z      0.271333
     40 HN5A     -160.4480 -687.4160   91.1800 hn        1 R2Z      0.271333
     41 H6          1.4220   12.6260    3.4840 hc        1 R2Z      0.066000
     42 H6A         2.3250   12.6890    5.0570 hc        1 R2Z      0.066000
     43 H9       -418.5060  373.7960 -112.0740 h1        1 R2Z      0.123000
     44 H11      -419.7100  373.5780 -113.4560 h1        1 R2Z      0.123000
     45 H11A     -419.1900  375.2720 -112.9420 h1        1 R2Z      0.123000
     46 H12      -161.2600 -692.7260   93.2090 hc        1 R2Z      0.101000
     47 H12A     -162.7720 -693.1900   92.3290 hc        1 R2Z      0.101000
     48 H13      -161.0270 -692.6050   90.6880 h1        1 R2Z      0.128000
     49 H13A     -162.4030 -691.4130   90.6180 h1        1 R2Z      0.128000
     50 H20       623.4870  183.6010   41.5250 hx        1 R2Z      0.204000
     51 H21        -7.0300    2.1610    5.0190 ha        1 R2Z      0.000750
     52 H21A       -7.0590    2.0490    5.6850 ha        1 R2Z      0.000750
     53 H22       624.3960  183.1610   38.7390 hn        1 R2Z      0.270000
     54 N2       -420.8830  376.9730 -114.5610 n         1 R2Z     -0.384000
     55 O2       -420.3880  374.2240 -111.5690 os        1 R2Z     -0.179000
     56 O3       -420.9800  374.7320 -115.0610 o         1 R2Z     -0.346000
     57 H02       622.8560  183.5710   39.3060 hn        1 R2Z      0.270000
     58 H121     -422.0890  373.3340 -113.4560 hn        1 R2Z      0.276500
     59 H32      -159.7840 -690.9700   91.9590 hn        1 R2Z      0.222000
     60 H53      -159.7860 -688.5510   90.1360 hn        1 R2Z      0.271333
     61 H23      -421.1840  377.7270 -113.9920 hn        1 R2Z      0.261500
     62 C22       621.3950  184.4590   38.8130 c1        1 R2Z      0.105000
@<TRIPOS>BOND
     1    1   21 1   
     2    1   24 1   
     3    1   25 1   
     4    1   26 1   
     5    2   22 1   
     6    2   27 1   
     7    2   53 1   
     8    2   57 1   
     9    3   62 1   
    10    4    6 1   
    11    4   22 1   
    12    4   28 1   
    13    5   14 1   
    14    5   15 1   
    15    5   29 1   
    16    5   58 1   
    17    6   13 1   
    18    7    9 1   
    19    7   14 1   
    20    8   19 1   
    21    8   20 1   
    22    8   59 1   
    23    9   32 1   
    24   10   20 1   
    25   10   36 1   
    26   11   37 1   
    27   11   38 1   
    28   11   41 1   
    29   11   42 1   
    30   12   20 1   
    31   12   39 1   
    32   12   40 1   
    33   12   60 1   
    34   14   15 1   
    35   14   55 1   
    36   15   16 1   
    37   15   30 1   
    38   16   54 1   
    39   16   56 1   
    40   17   43 1   
    41   17   44 1   
    42   17   45 1   
    43   17   55 1   
    44   18   19 1   
    45   18   33 1   
    46   18   46 1   
    47   18   47 1   
    48   19   48 1   
    49   19   49 1   
    50   21   24 1   
    51   22   23 1   
    52   22   50 1   
    53   23   26 1   
    54   31   54 1   
    55   34   35 1   
    56   51   52 1   
    57   54   61 1   
@<TRIPOS>SUBSTRUCTURE
     1 R2Z         1 TEMP              0 ****  ****    0 ROOT
