@<TRIPOS>MOLECULE
R30
   51    54     1     0     0
SMALL
bcc


@<TRIPOS>ATOM
      1 O01        -0.1310   -0.0010   -0.0040 o         1 R30     -0.567100
      2 C02         1.1110   -0.0300   -0.0130 c         1 R30      0.638100
      3 N03         1.8540   -0.0290    1.1710 n         1 R30     -0.379000
      4 C04         1.2120    0.1410    2.4290 ca        1 R30      0.019600
      5 C05         0.0320   -0.5680    2.7400 ca        1 R30     -0.115500
      6 C06        -0.5710   -0.4300    3.9800 ca        1 R30     -0.158000
      7 C07        -0.0210    0.4170    4.9720 ca        1 R30      0.061600
      8 N08        -0.6770    0.5150    6.2090 ns        1 R30     -0.474100
      9 C09        -0.2580    1.2020    7.3420 c         1 R30      0.664100
     10 C10        -1.1980    1.1200    8.5370 c3        1 R30     -0.152400
     11 C11        -0.6510    1.8890    9.7110 c3        1 R30     -0.087100
     12 O12         0.8070    1.8410    7.3900 o         1 R30     -0.587100
     13 C13         1.1550    1.1290    4.6590 ca        1 R30     -0.158000
     14 C14         1.7520    0.9960    3.4110 ca        1 R30     -0.115500
     15 C15         3.2980    0.0350    1.1420 c3        1 R30      0.160300
     16 C16         3.9140    1.3340    0.7520 cc        1 R30     -0.168300
     17 C17         3.3470    2.5920    0.8180 cd        1 R30     -0.163100
     18 S18         4.4120    3.7730    0.3260 ss        1 R30      0.063200
     19 C19         5.6470    2.6960    0.0150 cd        1 R30     -0.175100
     20 C20         5.2680    1.3980    0.2790 cc        1 R30     -0.154000
     21 C21         1.9050   -0.1260   -1.3290 c3        1 R30     -0.010700
     22 N22         1.1180   -0.0000   -2.5270 na        1 R30      0.052900
     23 N23         0.5260    1.1750   -2.9260 nc        1 R30     -0.119400
     24 N24        -0.3630    0.9900   -3.7930 nd        1 R30     -0.198400
     25 C25        -0.5160   -0.4150   -4.0270 ca        1 R30      0.015400
     26 C26         0.4420   -1.0730   -3.1620 ca        1 R30     -0.061200
     27 C27         0.5700   -2.4620   -3.1510 ca        1 R30     -0.129000
     28 C28        -0.2670   -3.1790   -4.0010 ca        1 R30     -0.095000
     29 C29        -1.1960   -2.5460   -4.8420 ca        1 R30     -0.157000
     30 C30        -1.3340   -1.1620   -4.8730 ca        1 R30     -0.043000
     31 H051       -0.4370   -1.2210    1.9850 ha        1 R30      0.150500
     32 H061       -1.4950   -0.9950    4.1790 ha        1 R30      0.153500
     33 H081       -1.5380    0.0200    6.2730 hn        1 R30      0.314500
     34 H101       -1.3410    0.0430    8.8190 hc        1 R30      0.062700
     35 H102       -2.1990    1.5350    8.2430 hc        1 R30      0.062700
     36 H111       -0.5110    2.9650    9.4430 hc        1 R30      0.048033
     37 H112        0.3430    1.4810   10.0170 hc        1 R30      0.048033
     38 H113       -1.3550    1.8180   10.5740 hc        1 R30      0.048033
     39 H131        1.6180    1.8050    5.3970 ha        1 R30      0.153500
     40 H141        2.6620    1.5810    3.1990 ha        1 R30      0.150500
     41 H151        3.6690   -0.7620    0.4300 h1        1 R30      0.064200
     42 H152        3.6820   -0.2370    2.1720 h1        1 R30      0.064200
     43 H171        2.3300    2.8110    1.1460 h4        1 R30      0.186000
     44 H191        6.6250    3.0040   -0.3530 h4        1 R30      0.175000
     45 H201        5.8990    0.5160    0.1560 ha        1 R30      0.153000
     46 H211        2.4100   -1.1330   -1.3650 h1        1 R30      0.095200
     47 H212        2.6880    0.6900   -1.3370 h1        1 R30      0.095200
     48 H271        1.2930   -2.9700   -2.5000 ha        1 R30      0.139000
     49 H281       -0.2000   -4.2780   -4.0140 ha        1 R30      0.136000
     50 H291       -1.8330   -3.1650   -5.4920 ha        1 R30      0.138000
     51 H301       -2.0600   -0.6700   -5.5370 ha        1 R30      0.154000
@<TRIPOS>BOND
     1    1    2 2   
     2    2    3 1   
     3    2   21 1   
     4    3    4 1   
     5    3   15 1   
     6    4    5 ar  
     7    4   14 ar  
     8    5    6 ar  
     9    5   31 1   
    10    6    7 ar  
    11    6   32 1   
    12    7    8 1   
    13    7   13 ar  
    14    8    9 1   
    15    8   33 1   
    16    9   10 1   
    17    9   12 2   
    18   10   11 1   
    19   10   34 1   
    20   10   35 1   
    21   11   36 1   
    22   11   37 1   
    23   11   38 1   
    24   13   14 ar  
    25   13   39 1   
    26   14   40 1   
    27   15   16 1   
    28   15   41 1   
    29   15   42 1   
    30   16   17 2   
    31   16   20 1   
    32   17   18 1   
    33   17   43 1   
    34   18   19 1   
    35   19   20 2   
    36   19   44 1   
    37   20   45 1   
    38   21   22 1   
    39   21   46 1   
    40   21   47 1   
    41   22   23 1   
    42   22   26 1   
    43   23   24 2   
    44   24   25 1   
    45   25   26 ar  
    46   25   30 ar  
    47   26   27 ar  
    48   27   28 ar  
    49   27   48 1   
    50   28   29 ar  
    51   28   49 1   
    52   29   30 ar  
    53   29   50 1   
    54   30   51 1   
@<TRIPOS>SUBSTRUCTURE
     1 R30         1 TEMP              0 ****  ****    0 ROOT
