@<TRIPOS>MOLECULE
R30
   51    54     1     0     0
SMALL
bcc


@<TRIPOS>ATOM
      1 O01        -0.1230    0.0230   -0.0130 o         1 R30     -0.567100
      2 C02         1.1170   -0.0300   -0.0130 c         1 R30      0.638100
      3 N03         1.8510   -0.0440    1.1770 n         1 R30     -0.379000
      4 C04         1.2040    0.1360    2.4310 ca        1 R30      0.019600
      5 C05         0.0080   -0.5490    2.7310 ca        1 R30     -0.115000
      6 C06        -0.6020   -0.4010    3.9670 ca        1 R30     -0.158000
      7 C07        -0.0420    0.4350    4.9640 ca        1 R30      0.061600
      8 N08        -0.7060    0.5440    6.1960 n         1 R30     -0.474100
      9 C09        -0.2830    1.2210    7.3340 c         1 R30      0.664100
     10 C10        -1.2340    1.1570    8.5210 c3        1 R30     -0.152400
     11 C11        -0.6790    1.9130    9.7000 c3        1 R30     -0.087100
     12 O12         0.7950    1.8390    7.3900 o         1 R30     -0.587100
     13 C13         1.1500    1.1230    4.6600 ca        1 R30     -0.158000
     14 C14         1.7520    0.9800    3.4170 ca        1 R30     -0.115000
     15 C15         3.2970   -0.0090    1.1590 c3        1 R30      0.160300
     16 C16         3.9410    1.2790    0.7740 cc        1 R30     -0.168300
     17 C17         3.3980    2.5470    0.8390 cd        1 R30     -0.163100
     18 S18         4.4890    3.7090    0.3540 ss        1 R30      0.063200
     19 C19         5.7050    2.6070    0.0500 cd        1 R30     -0.175100
     20 C20         5.2980    1.3170    0.3100 cc        1 R30     -0.154000
     21 C21         1.9200   -0.1410   -1.3220 c3        1 R30     -0.010700
     22 N22         1.1440    0.0010   -2.5270 na        1 R30      0.052900
     23 N23         0.5780    1.1870   -2.9300 nc        1 R30     -0.119400
     24 N24        -0.3070    1.0210   -3.8030 nd        1 R30     -0.198400
     25 C25        -0.4860   -0.3810   -4.0380 ca        1 R30      0.015400
     26 C26         0.4510   -1.0580   -3.1670 ca        1 R30     -0.061200
     27 C27         0.5510   -2.4500   -3.1560 ca        1 R30     -0.129000
     28 C28        -0.2930   -3.1500   -4.0120 ca        1 R30     -0.095000
     29 C29        -1.2040   -2.4980   -4.8590 ca        1 R30     -0.157000
     30 C30        -1.3140   -1.1110   -4.8910 ca        1 R30     -0.043000
     31 H051       -0.4680   -1.1920    1.9730 ha        1 R30      0.150500
     32 H061       -1.5380   -0.9480    4.1580 ha        1 R30      0.153500
     33 H081       -1.5780    0.0660    6.2530 hn        1 R30      0.314500
     34 H101       -1.4000    0.0830    8.8000 hc        1 R30      0.062700
     35 H102       -2.2230    1.5920    8.2200 hc        1 R30      0.062700
     36 H111       -1.3920    1.8550   10.5570 hc        1 R30      0.048033
     37 H112        0.3030    1.4840   10.0130 hc        1 R30      0.048033
     38 H113       -0.5150    2.9860    9.4350 hc        1 R30      0.048033
     39 H131        1.6200    1.7890    5.4040 ha        1 R30      0.153500
     40 H141        2.6760    1.5470    3.2130 ha        1 R30      0.150500
     41 H151        3.6670   -0.2890    2.1910 h1        1 R30      0.064200
     42 H152        3.6580   -0.8120    0.4490 h1        1 R30      0.064200
     43 H171        2.3830    2.7860    1.1590 h4        1 R30      0.186000
     44 H191        6.6900    2.8970   -0.3110 h4        1 R30      0.175000
     45 H201        5.9130    0.4240    0.1900 ha        1 R30      0.153000
     46 H211        2.4050   -1.1580   -1.3560 h1        1 R30      0.095200
     47 H212        2.7190    0.6600   -1.3250 h1        1 R30      0.095200
     48 H271        1.2600   -2.9710   -2.4990 ha        1 R30      0.139000
     49 H281       -0.2480   -4.2500   -4.0240 ha        1 R30      0.136000
     50 H291       -1.8470   -3.1040   -5.5150 ha        1 R30      0.138000
     51 H301       -2.0240   -0.6050   -5.5600 ha        1 R30      0.154000
@<TRIPOS>BOND
     1    1    2 2   
     2    2    3 1   
     3    2   21 1   
     4    3    4 1   
     5    3   15 1   
     6    4    5 ar  
     7    4   14 ar  
     8    5    6 ar  
     9    5   31 1   
    10    6    7 ar  
    11    6   32 1   
    12    7    8 1   
    13    7   13 ar  
    14    8    9 1   
    15    8   33 1   
    16    9   10 1   
    17    9   12 2   
    18   10   11 1   
    19   10   34 1   
    20   10   35 1   
    21   11   36 1   
    22   11   37 1   
    23   11   38 1   
    24   13   14 ar  
    25   13   39 1   
    26   14   40 1   
    27   15   16 1   
    28   15   41 1   
    29   15   42 1   
    30   16   17 2   
    31   16   20 1   
    32   17   18 1   
    33   17   43 1   
    34   18   19 1   
    35   19   20 2   
    36   19   44 1   
    37   20   45 1   
    38   21   22 1   
    39   21   46 1   
    40   21   47 1   
    41   22   23 1   
    42   22   26 1   
    43   23   24 2   
    44   24   25 1   
    45   25   26 ar  
    46   25   30 ar  
    47   26   27 ar  
    48   27   28 ar  
    49   27   48 1   
    50   28   29 ar  
    51   28   49 1   
    52   29   30 ar  
    53   29   50 1   
    54   30   51 1   
@<TRIPOS>SUBSTRUCTURE
     1 R30         1 TEMP              0 ****  ****    0 ROOT
