@<TRIPOS>MOLECULE
R31
   89    90     1     0     0
SMALL
bcc


@<TRIPOS>ATOM
      1 C1         -0.2610   -0.1580    0.3810 c3        1 R31      0.076800
      2 N2          1.1920   -0.1340    0.3530 n3        1 R31     -0.787600
      3 C3          1.7390   -0.1220    1.7040 c3        1 R31      0.159800
      4 C4          1.2610   -1.3360    2.5310 c3        1 R31      0.088000
      5 N5         -0.1060   -1.7600    2.2970 n         1 R31     -0.355000
      6 C6         -0.7890   -1.3800    1.1530 c         1 R31      0.692500
      7 C7         -0.5050   -2.9450    2.9900 ca        1 R31     -0.000400
      8 C8          0.0730   -4.2090    2.7120 ca        1 R31      0.078100
      9 C9         -0.3360   -5.3550    3.4030 ca        1 R31     -0.137000
     10 C10        -1.3200   -5.2540    4.3830 ca        1 R31     -0.090000
     11 C11        -1.8940   -4.0160    4.6720 ca        1 R31     -0.117000
     12 C12        -1.4950   -2.8690    3.9890 ca        1 R31     -0.087000
     13 O13         1.1420   -4.2940    1.8230 os        1 R31     -0.357900
     14 C14         0.8420   -4.9600    0.5910 c3        1 R31      0.136400
     15 C15         0.9940   -3.9350   -0.5240 c3        1 R31     -0.118400
     16 C16         0.8390   -4.5880   -1.8810 c3        1 R31      0.126400
     17 O17         1.1500   -3.5810   -2.8610 os        1 R31     -0.529600
     18 C18         0.9660   -4.0550   -4.1890 c3        1 R31      0.120700
     19 C19         1.7550    0.8280   -0.5590 c3        1 R31      0.172800
     20 C20         1.7200    0.3090   -2.0360 c3        1 R31      0.072500
     21 C21         2.6030    1.2500   -2.9020 c3        1 R31      0.128100
     22 N22         2.1420   -1.1190   -2.1300 n4        1 R31     -0.817600
     23 C23         2.2080    1.1790   -4.3800 c3        1 R31     -0.098400
     24 O24         3.9610    0.8560   -2.8020 oh        1 R31     -0.607800
     25 C25         2.7790    2.3410   -5.2020 c3        1 R31     -0.107700
     26 C26         1.8970    2.5270   -6.4240 c         1 R31      0.557100
     27 N27         2.1070    3.8450   -7.1940 n4        1 R31     -0.687800
     28 O28         1.0410    1.7910   -6.8720 o         1 R31     -0.385100
     29 C29         4.2360    2.0850   -5.6150 c3        1 R31     -0.097700
     30 C30         1.6940    3.7430   -8.6170 c3        1 R31      0.091800
     31 C31         1.7950    5.0630   -9.4280 c3        1 R31     -0.113000
     32 C32         1.1090    4.7610  -10.7620 c         1 R31      0.531100
     33 N33         1.2460    5.7710  -11.8660 n4        1 R31     -0.748400
     34 C34         1.0460    6.1910   -8.7340 c3        1 R31     -0.141100
     35 C35         3.2490    5.4380   -9.6640 c3        1 R31     -0.141100
     36 O36         0.4470    3.7730  -11.0310 o         1 R31     -0.360100
     37 C37         4.3430    1.2130   -6.8470 c3        1 R31     -0.114100
     38 C38         5.0310    3.3620   -5.7850 c3        1 R31     -0.114100
     39 O39        -1.8290   -1.9200    0.7420 o         1 R31     -0.599500
     40 H1         -0.6550   -0.2290   -0.6700 h1        1 R31      0.068200
     41 H2         -0.7030    0.7630    0.8620 h1        1 R31      0.068200
     42 H4          2.8620   -0.1710    1.6480 h1        1 R31      0.059700
     43 H5          1.4560    0.8270    2.2460 h1        1 R31      0.059700
     44 H6          1.3530   -1.0600    3.6220 h1        1 R31      0.082200
     45 H7          1.9560   -2.2050    2.3300 h1        1 R31      0.082200
     46 H8          0.1320   -6.3230    3.1710 ha        1 R31      0.156000
     47 H9         -1.6430   -6.1540    4.9310 ha        1 R31      0.160000
     48 H10        -2.6720   -3.9390    5.4490 ha        1 R31      0.159000
     49 H11        -1.9660   -1.9030    4.2290 ha        1 R31      0.153000
     50 H12        -0.1840   -5.4080    0.5940 h1        1 R31      0.071700
     51 H13         1.6130   -5.7700    0.4940 h1        1 R31      0.071700
     52 H14         0.2220   -3.1290   -0.3920 hc        1 R31      0.042200
     53 H15         2.0100   -3.4660   -0.4380 hc        1 R31      0.042200
     54 H16         1.5510   -5.4460   -2.0080 h1        1 R31      0.064700
     55 H17        -0.2130   -4.9450   -2.0410 h1        1 R31      0.064700
     56 H18         1.2540   -3.1930   -4.8400 h1        1 R31      0.045367
     57 H19         1.6290   -4.9340   -4.3840 h1        1 R31      0.045367
     58 H20        -0.1040   -4.3340   -4.3570 h1        1 R31      0.045367
     59 H21         1.2000    1.8120   -0.5690 h1        1 R31      0.067200
     60 H22         2.8270    1.0300   -0.2790 h1        1 R31      0.067200
     61 H23         0.6530    0.3570   -2.4070 hx        1 R31      0.113700
     62 H24         2.4540    2.2980   -2.5150 h1        1 R31      0.081700
     63 H25         3.1160   -1.2140   -1.8240 hn        1 R31      0.476467
     64 H26         1.5430   -1.7180   -1.5270 hn        1 R31      0.476467
     65 H28         2.5720    0.2110   -4.8190 hc        1 R31      0.086200
     66 H29         1.0860    1.1890   -4.4430 hc        1 R31      0.086200
     67 H30         4.3530    1.3030   -2.0390 ho        1 R31      0.447000
     68 H31         2.7290    3.2820   -4.5810 hc        1 R31      0.098700
     69 H32         1.5550    4.5770   -6.7290 hn        1 R31      0.466300
     70 H33         4.7030    1.5160   -4.7490 hc        1 R31      0.131700
     71 H34         0.6230    3.3710   -8.6390 hx        1 R31      0.139700
     72 H35         2.3440    2.9580   -9.1080 hx        1 R31      0.139700
     73 H36         0.7500    5.4360  -12.7120 hn        1 R31      0.490800
     74 H37         0.8360    6.6720  -11.5830 hn        1 R31      0.490800
     75 H38         1.6000    6.5220   -7.8190 hc        1 R31      0.084200
     76 H39         0.9670    7.0940   -9.3900 hc        1 R31      0.084200
     77 H40         0.0130    5.8740   -8.4450 hc        1 R31      0.084200
     78 H41         3.8030    5.4940   -8.6940 hc        1 R31      0.084200
     79 H42         3.3340    6.4500  -10.1330 hc        1 R31      0.084200
     80 H43         3.7640    4.6860  -10.3130 hc        1 R31      0.084200
     81 H44         5.4190    0.9780   -7.0500 hc        1 R31      0.055533
     82 H45         3.8000    0.2470   -6.7070 hc        1 R31      0.055533
     83 H46         3.9260    1.7290   -7.7470 hc        1 R31      0.055533
     84 H47         6.1180    3.1440   -5.6110 hc        1 R31      0.055533
     85 H48         4.7240    4.1460   -5.0520 hc        1 R31      0.055533
     86 H49         4.9560    3.7730   -6.8230 hc        1 R31      0.055533
     87 H223        2.0580   -1.4700   -3.0900 hn        1 R31      0.476467
     88 H272        3.1030    4.1000   -7.1300 hn        1 R31      0.466300
     89 H333        2.2370    5.9160  -12.0990 hn        1 R31      0.490800
@<TRIPOS>BOND
     1    1    2 1   
     2    1    6 1   
     3    1   40 1   
     4    1   41 1   
     5    2    3 1   
     6    2   19 1   
     7    3    4 1   
     8    3   42 1   
     9    3   43 1   
    10    4    5 1   
    11    4   44 1   
    12    4   45 1   
    13    5    6 1   
    14    5    7 1   
    15    6   39 2   
    16    7    8 ar  
    17    7   12 ar  
    18    8    9 ar  
    19    8   13 1   
    20    9   10 ar  
    21    9   46 1   
    22   10   11 ar  
    23   10   47 1   
    24   11   12 ar  
    25   11   48 1   
    26   12   49 1   
    27   13   14 1   
    28   14   15 1   
    29   14   50 1   
    30   14   51 1   
    31   15   16 1   
    32   15   52 1   
    33   15   53 1   
    34   16   17 1   
    35   16   54 1   
    36   16   55 1   
    37   17   18 1   
    38   18   56 1   
    39   18   57 1   
    40   18   58 1   
    41   19   20 1   
    42   19   59 1   
    43   19   60 1   
    44   20   21 1   
    45   20   22 1   
    46   20   61 1   
    47   21   23 1   
    48   21   24 1   
    49   21   62 1   
    50   22   63 1   
    51   22   64 1   
    52   22   87 1   
    53   23   25 1   
    54   23   65 1   
    55   23   66 1   
    56   24   67 1   
    57   25   26 1   
    58   25   29 1   
    59   25   68 1   
    60   26   27 1   
    61   26   28 2   
    62   27   30 1   
    63   27   69 1   
    64   27   88 1   
    65   29   37 1   
    66   29   38 1   
    67   29   70 1   
    68   30   31 1   
    69   30   71 1   
    70   30   72 1   
    71   31   32 1   
    72   31   34 1   
    73   31   35 1   
    74   32   33 1   
    75   32   36 2   
    76   33   73 1   
    77   33   74 1   
    78   33   89 1   
    79   34   75 1   
    80   34   76 1   
    81   34   77 1   
    82   35   78 1   
    83   35   79 1   
    84   35   80 1   
    85   37   81 1   
    86   37   82 1   
    87   37   83 1   
    88   38   84 1   
    89   38   85 1   
    90   38   86 1   
@<TRIPOS>SUBSTRUCTURE
     1 R31         1 TEMP              0 ****  ****    0 ROOT
