@<TRIPOS>MOLECULE
R31
   89    90     1     0     0
SMALL
bcc


@<TRIPOS>ATOM
      1 C1         -0.1910   -0.1220    0.4270 c3        1 R31      0.076800
      2 N2          1.2610   -0.1370    0.3600 n3        1 R31     -0.787600
      3 C3          1.8430   -0.1460    1.6960 c3        1 R31      0.159800
      4 C4          1.3550   -1.3510    2.5310 c3        1 R31      0.088000
      5 N5         -0.0290   -1.7360    2.3320 n         1 R31     -0.355000
      6 C6         -0.7320   -1.3320    1.2080 c         1 R31      0.692500
      7 C7         -0.4420   -2.9130    3.0310 ca        1 R31     -0.000400
      8 C8          0.0940   -4.1910    2.7330 ca        1 R31      0.078100
      9 C9         -0.3280   -5.3280    3.4300 ca        1 R31     -0.137000
     10 C10        -1.2830   -5.2050    4.4360 ca        1 R31     -0.090000
     11 C11        -1.8150   -3.9530    4.7450 ca        1 R31     -0.117000
     12 C12        -1.4020   -2.8150    4.0560 ca        1 R31     -0.087000
     13 O13         1.1360   -4.3010    1.8150 os        1 R31     -0.357900
     14 C14         0.7850   -4.9530    0.5890 c3        1 R31      0.136400
     15 C15         0.9350   -3.9280   -0.5260 c3        1 R31     -0.118400
     16 C16         0.7280   -4.5700   -1.8810 c3        1 R31      0.126400
     17 O17         1.0400   -3.5690   -2.8640 os        1 R31     -0.529600
     18 C18         0.8110   -4.0330   -4.1890 c3        1 R31      0.120700
     19 C19         1.8250    0.8140   -0.5640 c3        1 R31      0.172800
     20 C20         1.7360    0.3020   -2.0400 c3        1 R31      0.072500
     21 C21         2.6210    1.2230   -2.9270 c3        1 R31      0.128100
     22 N22         2.1160   -1.1360   -2.1520 nz        1 R31     -0.817600
     23 C23         2.1780    1.1730   -4.3930 c3        1 R31     -0.098400
     24 O24         3.9680    0.7890   -2.8700 oh        1 R31     -0.607800
     25 C25         2.7770    2.3110   -5.2290 c3        1 R31     -0.107700
     26 C26         1.8630    2.5520   -6.4170 c         1 R31      0.559100
     27 N27         2.0930    3.8740   -7.1730 ny        1 R31     -0.687800
     28 O28         0.9630    1.8570   -6.8480 o         1 R31     -0.387100
     29 C29         4.2030    1.9840   -5.6980 c3        1 R31     -0.096700
     30 C30         1.7610    3.7650   -8.6170 c3        1 R31      0.091800
     31 C31         1.8200    5.1020   -9.4050 c3        1 R31     -0.113000
     32 C32         1.7420    4.7000  -10.8800 c         1 R31      0.532100
     33 N33         1.4260    5.7720  -11.8830 nz        1 R31     -0.747400
     34 C34         0.6460    5.9910   -9.0340 c3        1 R31     -0.140600
     35 C35         3.1420    5.8190   -9.1720 c3        1 R31     -0.140600
     36 O36         1.9260    3.5850  -11.3380 o         1 R31     -0.362100
     37 C37         4.2200    1.0950   -6.9220 c3        1 R31     -0.114100
     38 C38         5.0450    3.2230   -5.9200 c3        1 R31     -0.114100
     39 O39        -1.7970   -1.8420    0.8230 o         1 R31     -0.599500
     40 H1         -0.5940    0.8090    0.9240 h1        1 R31      0.068200
     41 H2         -0.6160   -0.1750   -0.6130 h1        1 R31      0.068200
     42 H4          1.6020    0.8070    2.2490 h1        1 R31      0.059700
     43 H5          2.9630   -0.2260    1.6090 h1        1 R31      0.059700
     44 H6          1.4840   -1.0820    3.6190 h1        1 R31      0.082200
     45 H7          2.0200   -2.2380    2.3080 h1        1 R31      0.082200
     46 H8          0.1070   -6.3080    3.1810 ha        1 R31      0.156000
     47 H9         -1.6150   -6.0980    4.9890 ha        1 R31      0.160000
     48 H10        -2.5700   -3.8590    5.5430 ha        1 R31      0.159000
     49 H11        -1.8410   -1.8370    4.3120 ha        1 R31      0.153000
     50 H12        -0.2520   -5.3740    0.6180 h1        1 R31      0.071700
     51 H13         1.5320   -5.7840    0.4690 h1        1 R31      0.071700
     52 H14         1.9660   -3.4860   -0.4640 hc        1 R31      0.042700
     53 H15         0.1890   -3.1030   -0.3710 hc        1 R31      0.042700
     54 H16         1.4130   -5.4470   -2.0290 h1        1 R31      0.064700
     55 H17        -0.3370   -4.8990   -2.0150 h1        1 R31      0.064700
     56 H18         1.4460   -4.9270   -4.4040 h1        1 R31      0.045367
     57 H19        -0.2700   -4.2830   -4.3310 h1        1 R31      0.045367
     58 H20         1.1050   -3.1760   -4.8450 h1        1 R31      0.045367
     59 H21         1.2970    1.8120   -0.5550 h1        1 R31      0.067200
     60 H22         2.9100    0.9850   -0.3120 h1        1 R31      0.067200
     61 H23         0.6610    0.3810   -2.3820 hx        1 R31      0.113700
     62 H24         2.5130    2.2720   -2.5300 h1        1 R31      0.081700
     63 H25         3.0950   -1.2600   -1.8730 hn        1 R31      0.476467
     64 H26         1.9950   -1.4810   -3.1100 hn        1 R31      0.476467
     65 H28         1.0570    1.2340   -4.4220 hc        1 R31      0.086200
     66 H29         2.4860    0.1910   -4.8430 hc        1 R31      0.086200
     67 H30         4.3960    1.2200   -2.1160 ho        1 R31      0.447000
     68 H31         2.8000    3.2480   -4.6010 hc        1 R31      0.097700
     69 H32         1.5050    4.5950   -6.7370 hn        1 R31      0.465800
     70 H33         4.6790    1.4060   -4.8440 hc        1 R31      0.130700
     71 H34         0.7170    3.3350   -8.7060 hx        1 R31      0.140200
     72 H35         2.4850    3.0240   -9.0740 hx        1 R31      0.140200
     73 H36         0.4970    6.1740  -11.6950 hn        1 R31      0.491133
     74 H37         2.1270    6.5230  -11.8430 hn        1 R31      0.491133
     75 H38        -0.3280    5.5310   -9.3360 hc        1 R31      0.084533
     76 H39         0.7400    7.0030   -9.5040 hc        1 R31      0.084533
     77 H40         0.6170    6.1640   -7.9280 hc        1 R31      0.084533
     78 H41         3.2710    6.6760   -9.8790 hc        1 R31      0.084533
     79 H42         4.0080    5.1230   -9.3010 hc        1 R31      0.084533
     80 H43         3.1710    6.2550   -8.1410 hc        1 R31      0.084533
     81 H44         3.6440    0.1530   -6.7470 hc        1 R31      0.055867
     82 H45         3.7840    1.6190   -7.8080 hc        1 R31      0.055867
     83 H46         5.2760    0.8140   -7.1690 hc        1 R31      0.055867
     84 H47         4.9380    3.6240   -6.9590 hc        1 R31      0.055867
     85 H48         6.1280    2.9580   -5.7930 hc        1 R31      0.055867
     86 H49         4.8070    4.0270   -5.1840 hc        1 R31      0.055867
     87 H223        1.5170   -1.7220   -1.5340 hn        1 R31      0.476467
     88 H272        3.0800    4.1490   -7.0610 hn        1 R31      0.465800
     89 H333        1.4260    5.3700  -12.8380 hn        1 R31      0.491133
@<TRIPOS>BOND
     1    1    2 1   
     2    1    6 1   
     3    1   40 1   
     4    1   41 1   
     5    2    3 1   
     6    2   19 1   
     7    3    4 1   
     8    3   42 1   
     9    3   43 1   
    10    4    5 1   
    11    4   44 1   
    12    4   45 1   
    13    5    6 1   
    14    5    7 1   
    15    6   39 2   
    16    7    8 ar  
    17    7   12 ar  
    18    8    9 ar  
    19    8   13 1   
    20    9   10 ar  
    21    9   46 1   
    22   10   11 ar  
    23   10   47 1   
    24   11   12 ar  
    25   11   48 1   
    26   12   49 1   
    27   13   14 1   
    28   14   15 1   
    29   14   50 1   
    30   14   51 1   
    31   15   16 1   
    32   15   52 1   
    33   15   53 1   
    34   16   17 1   
    35   16   54 1   
    36   16   55 1   
    37   17   18 1   
    38   18   56 1   
    39   18   57 1   
    40   18   58 1   
    41   19   20 1   
    42   19   59 1   
    43   19   60 1   
    44   20   21 1   
    45   20   22 1   
    46   20   61 1   
    47   21   23 1   
    48   21   24 1   
    49   21   62 1   
    50   22   63 1   
    51   22   64 1   
    52   22   87 1   
    53   23   25 1   
    54   23   65 1   
    55   23   66 1   
    56   24   67 1   
    57   25   26 1   
    58   25   29 1   
    59   25   68 1   
    60   26   27 1   
    61   26   28 2   
    62   27   30 1   
    63   27   69 1   
    64   27   88 1   
    65   29   37 1   
    66   29   38 1   
    67   29   70 1   
    68   30   31 1   
    69   30   71 1   
    70   30   72 1   
    71   31   32 1   
    72   31   34 1   
    73   31   35 1   
    74   32   33 1   
    75   32   36 2   
    76   33   73 1   
    77   33   74 1   
    78   33   89 1   
    79   34   75 1   
    80   34   76 1   
    81   34   77 1   
    82   35   78 1   
    83   35   79 1   
    84   35   80 1   
    85   37   81 1   
    86   37   82 1   
    87   37   83 1   
    88   38   84 1   
    89   38   85 1   
    90   38   86 1   
@<TRIPOS>SUBSTRUCTURE
     1 R31         1 TEMP              0 ****  ****    0 ROOT
