@<TRIPOS>MOLECULE
R31
   86    87     1     0     0
SMALL
bcc


@<TRIPOS>ATOM
      1 C1          2.0500   -0.8460   -0.9350 c3        1 R31      0.098800
      2 N2          1.9430   -0.5350    0.4780 n3        1 R31     -0.727600
      3 C3          2.9930   -1.1370    1.2830 c3        1 R31      0.152800
      4 C4          4.3890   -0.7800    0.7420 c3        1 R31      0.101000
      5 N5          4.5510   -1.1150   -0.6570 n         1 R31     -0.374000
      6 C6          3.4520   -1.0610   -1.5090 c         1 R31      0.701500
      7 C7          5.8630   -1.3350   -1.1450 ca        1 R31      0.048600
      8 C8          6.9920   -0.6180   -0.6570 ca        1 R31      0.089100
      9 C9          8.2770   -0.8870   -1.1410 ca        1 R31     -0.176000
     10 C10         8.4680   -1.8540   -2.1230 ca        1 R31     -0.118000
     11 C11         7.3760   -2.5600   -2.6190 ca        1 R31     -0.138000
     12 C12         6.0940   -2.3130   -2.1370 ca        1 R31     -0.108000
     13 O13         6.7840    0.2980    0.3630 os        1 R31     -0.345900
     14 C14         7.6400    1.4490    0.3250 c3        1 R31      0.133400
     15 C15         6.9280    2.5210    1.1310 c3        1 R31     -0.093400
     16 C16         7.7460    3.7990    1.1150 c3        1 R31      0.130400
     17 O17         7.0610    4.7280    1.9530 os        1 R31     -0.419600
     18 C18         7.7050    5.9890    2.0030 c3        1 R31      0.115700
     19 C19         0.6230   -0.8000    1.0250 c3        1 R31      0.169800
     20 C20        -0.5460   -0.1070    0.2790 c3        1 R31      0.143500
     21 C21        -1.8270   -0.3950    1.1180 c3        1 R31      0.095100
     22 N22        -0.3060    1.2850   -0.0190 n3        1 R31     -0.907800
     23 C23        -3.0760    0.0750    0.3810 c3        1 R31     -0.108400
     24 O24        -1.7210    0.1780    2.4120 oh        1 R31     -0.597800
     25 C25        -4.3150   -0.7350    0.7390 c3        1 R31     -0.119700
     26 C26        -5.4210   -0.3860   -0.2590 c         1 R31      0.656100
     27 N27        -6.3370   -1.3810   -0.5600 n         1 R31     -0.556900
     28 O28        -5.4680    0.7240   -0.8280 o         1 R31     -0.615100
     29 C29        -4.7720   -0.4970    2.1800 c3        1 R31     -0.074700
     30 C30        -7.4560   -1.1490   -1.4250 c3        1 R31      0.089000
     31 C31        -8.7930   -0.8140   -0.7180 c3        1 R31     -0.144000
     32 C32        -9.8210   -0.5520   -1.8290 c         1 R31      0.660100
     33 N33        -9.7490    0.6320   -2.5170 n         1 R31     -0.673000
     34 C34        -9.2700   -2.0010    0.1030 c3        1 R31     -0.092100
     35 C35        -8.6460    0.4050    0.1760 c3        1 R31     -0.092100
     36 O36       -10.6990   -1.3890   -2.1220 o         1 R31     -0.614100
     37 C37        -5.3720    0.8780    2.3860 c3        1 R31     -0.095600
     38 C38        -5.7450   -1.5660    2.6370 c3        1 R31     -0.095600
     39 O39         3.5610   -1.2290   -2.7390 o         1 R31     -0.638500
     40 H1          1.4700   -1.7760   -1.2140 h1        1 R31      0.078200
     41 H2          1.6060    0.0260   -1.5000 h1        1 R31      0.078200
     42 H4          2.9180   -0.7210    2.3270 h1        1 R31      0.042700
     43 H5          2.8910   -2.2590    1.3500 h1        1 R31      0.042700
     44 H6          4.5720    0.3250    0.8870 h1        1 R31      0.067200
     45 H7          5.1590   -1.3420    1.3420 h1        1 R31      0.067200
     46 H8          9.1380   -0.3300   -0.7440 ha        1 R31      0.137000
     47 H9          9.4800   -2.0550   -2.5050 ha        1 R31      0.134000
     48 H10         7.5190   -3.3200   -3.4010 ha        1 R31      0.137000
     49 H11         5.2420   -2.8700   -2.5590 ha        1 R31      0.159000
     50 H12         8.6220    1.1780    0.7960 h1        1 R31      0.040700
     51 H13         7.8090    1.7780   -0.7330 h1        1 R31      0.040700
     52 H14         5.9100    2.7110    0.7000 hc        1 R31      0.070200
     53 H15         6.7820    2.1750    2.1860 hc        1 R31      0.070200
     54 H16         8.7790    3.6230    1.5170 h1        1 R31      0.027200
     55 H17         7.8250    4.2150    0.0750 h1        1 R31      0.027200
     56 H18         7.0650    6.6010    2.6870 h1        1 R31      0.033700
     57 H19         8.7380    5.8890    2.4180 h1        1 R31      0.033700
     58 H20         7.7470    6.4530    0.9870 h1        1 R31      0.033700
     59 H21         0.3890   -1.9060    1.0360 h1        1 R31      0.043700
     60 H22         0.6220   -0.4370    2.0930 h1        1 R31      0.043700
     61 H23        -0.6880   -0.6240   -0.7180 h1        1 R31      0.064700
     62 H24        -1.8800   -1.5020    1.3220 h1        1 R31      0.079700
     63 H25        -1.1690    1.7790   -0.1390 hn        1 R31      0.358300
     64 H26         0.2440    1.7270    0.6900 hn        1 R31      0.358300
     65 H28        -3.2720    1.1590    0.5960 hc        1 R31      0.068200
     66 H29        -2.9060   -0.0130   -0.7270 hc        1 R31      0.068200
     67 H30        -1.7870    1.1360    2.3170 ho        1 R31      0.398000
     68 H31        -4.0560   -1.8280    0.6340 hc        1 R31      0.063700
     69 H32        -6.3960   -2.1610    0.0520 hn        1 R31      0.308500
     70 H33        -3.8440   -0.5740    2.8220 hc        1 R31      0.080700
     71 H34        -7.1910   -0.3020   -2.1220 h1        1 R31      0.071200
     72 H35        -7.6170   -2.0840   -2.0370 h1        1 R31      0.071200
     73 H36        -9.0700    1.3120   -2.2930 hn        1 R31      0.315000
     74 H37       -10.4040    0.8210   -3.2340 hn        1 R31      0.315000
     75 H38        -8.5560   -2.2180    0.9330 hc        1 R31      0.046867
     76 H39       -10.2730   -1.7790    0.5430 hc        1 R31      0.046867
     77 H40        -9.3680   -2.9050   -0.5450 hc        1 R31      0.046867
     78 H41        -7.9800    1.1700   -0.2960 hc        1 R31      0.046867
     79 H42        -9.6430    0.8620    0.3840 hc        1 R31      0.046867
     80 H43        -8.1880    0.1100    1.1530 hc        1 R31      0.046867
     81 H44        -6.2200    1.0540    1.6790 hc        1 R31      0.038367
     82 H45        -5.7510    0.9750    3.4310 hc        1 R31      0.038367
     83 H46        -4.6030    1.6690    2.2140 hc        1 R31      0.038367
     84 H47        -5.3870   -2.5830    2.3480 hc        1 R31      0.038367
     85 H48        -5.8430   -1.5320    3.7500 hc        1 R31      0.038367
     86 H49        -6.7600   -1.4030    2.1990 hc        1 R31      0.038367
@<TRIPOS>BOND
     1    1    2 1   
     2    1    6 1   
     3    1   40 1   
     4    1   41 1   
     5    2    3 1   
     6    2   19 1   
     7    3    4 1   
     8    3   42 1   
     9    3   43 1   
    10    4    5 1   
    11    4   44 1   
    12    4   45 1   
    13    5    6 1   
    14    5    7 1   
    15    6   39 2   
    16    7    8 ar  
    17    7   12 ar  
    18    8    9 ar  
    19    8   13 1   
    20    9   10 ar  
    21    9   46 1   
    22   10   11 ar  
    23   10   47 1   
    24   11   12 ar  
    25   11   48 1   
    26   12   49 1   
    27   13   14 1   
    28   14   15 1   
    29   14   50 1   
    30   14   51 1   
    31   15   16 1   
    32   15   52 1   
    33   15   53 1   
    34   16   17 1   
    35   16   54 1   
    36   16   55 1   
    37   17   18 1   
    38   18   56 1   
    39   18   57 1   
    40   18   58 1   
    41   19   20 1   
    42   19   59 1   
    43   19   60 1   
    44   20   21 1   
    45   20   22 1   
    46   20   61 1   
    47   21   23 1   
    48   21   24 1   
    49   21   62 1   
    50   22   63 1   
    51   22   64 1   
    52   23   25 1   
    53   23   65 1   
    54   23   66 1   
    55   24   67 1   
    56   25   26 1   
    57   25   29 1   
    58   25   68 1   
    59   26   27 1   
    60   26   28 2   
    61   27   30 1   
    62   27   69 1   
    63   29   37 1   
    64   29   38 1   
    65   29   70 1   
    66   30   31 1   
    67   30   71 1   
    68   30   72 1   
    69   31   32 1   
    70   31   34 1   
    71   31   35 1   
    72   32   33 1   
    73   32   36 2   
    74   33   73 1   
    75   33   74 1   
    76   34   75 1   
    77   34   76 1   
    78   34   77 1   
    79   35   78 1   
    80   35   79 1   
    81   35   80 1   
    82   37   81 1   
    83   37   82 1   
    84   37   83 1   
    85   38   84 1   
    86   38   85 1   
    87   38   86 1   
@<TRIPOS>SUBSTRUCTURE
     1 R31         1 TEMP              0 ****  ****    0 ROOT
