@<TRIPOS>MOLECULE
R31
   89    90     1     0     0
SMALL
bcc


@<TRIPOS>ATOM
      1 C1         -0.3140   -0.1720    0.3530 c3        1 R31      0.076800
      2 N2          1.1390   -0.1200    0.3490 n3        1 R31     -0.787600
      3 C3          1.6620   -0.0910    1.7100 c3        1 R31      0.159800
      4 C4          1.1930   -1.3100    2.5350 c3        1 R31      0.088000
      5 N5         -0.1620   -1.7610    2.2800 n         1 R31     -0.355000
      6 C6         -0.8320   -1.3990    1.1220 c         1 R31      0.692500
      7 C7         -0.5500   -2.9490    2.9730 ca        1 R31     -0.000400
      8 C8          0.0560   -4.2030    2.7120 ca        1 R31      0.078100
      9 C9         -0.3440   -5.3530    3.4020 ca        1 R31     -0.137000
     10 C10        -1.3470   -5.2650    4.3640 ca        1 R31     -0.090000
     11 C11        -1.9480   -4.0370    4.6370 ca        1 R31     -0.117000
     12 C12        -1.5590   -2.8860    3.9540 ca        1 R31     -0.087000
     13 O13         1.1410   -4.2720    1.8420 os        1 R31     -0.357900
     14 C14         0.8740   -4.9500    0.6080 c3        1 R31      0.136400
     15 C15         1.0280   -3.9290   -0.5100 c3        1 R31     -0.118400
     16 C16         0.9080   -4.5910   -1.8650 c3        1 R31      0.126400
     17 O17         1.2170   -3.5840   -2.8450 os        1 R31     -0.529600
     18 C18         1.0650   -4.0680   -4.1740 c3        1 R31      0.120700
     19 C19         1.6990    0.8480   -0.5590 c3        1 R31      0.172800
     20 C20         1.7000    0.3200   -2.0320 c3        1 R31      0.072500
     21 C21         2.5800    1.2730   -2.8890 c3        1 R31      0.128100
     22 N22         2.1510   -1.1000   -2.1110 n4        1 R31     -0.817600
     23 C23         2.2110    1.1850   -4.3730 c3        1 R31     -0.098400
     24 O24         3.9420    0.9060   -2.7630 oh        1 R31     -0.607800
     25 C25         2.7730    2.3550   -5.1920 c3        1 R31     -0.107700
     26 C26         1.9100    2.5150   -6.4300 c         1 R31      0.557100
     27 N27         2.1060    3.8330   -7.2050 n4        1 R31     -0.687800
     28 O28         1.0770    1.7580   -6.8900 o         1 R31     -0.385100
     29 C29         4.2430    2.1260   -5.5770 c3        1 R31     -0.097700
     30 C30         1.7230    3.7130   -8.6350 c3        1 R31      0.091800
     31 C31         1.8090    5.0310   -9.4510 c3        1 R31     -0.113000
     32 C32         1.1550    4.7060  -10.7970 c         1 R31      0.531100
     33 N33         1.2900    5.7130  -11.9030 n4        1 R31     -0.748400
     34 C34         1.0220    6.1450   -8.7780 c3        1 R31     -0.141100
     35 C35         3.2580    5.4370   -9.6620 c3        1 R31     -0.141100
     36 O36         0.5200    3.7020  -11.0710 o         1 R31     -0.360100
     37 C37         4.3900    1.2500   -6.8010 c3        1 R31     -0.114100
     38 C38         5.0140    3.4200   -5.7410 c3        1 R31     -0.114100
     39 O39        -1.8550   -1.9610    0.6970 o         1 R31     -0.599500
     40 H1         -0.6890   -0.2540   -0.7050 h1        1 R31      0.068200
     41 H2         -0.7810    0.7430    0.8220 h1        1 R31      0.068200
     42 H4          1.3530    0.8550    2.2410 h1        1 R31      0.059700
     43 H5          2.7860   -0.1190    1.6730 h1        1 R31      0.059700
     44 H6          1.2610   -1.0260    3.6250 h1        1 R31      0.082200
     45 H7          1.9070   -2.1670    2.3500 h1        1 R31      0.082200
     46 H8          0.1460   -6.3140    3.1830 ha        1 R31      0.156000
     47 H9         -1.6620   -6.1680    4.9120 ha        1 R31      0.160000
     48 H10        -2.7420   -3.9710    5.3990 ha        1 R31      0.159000
     49 H11        -2.0530   -1.9280    4.1800 ha        1 R31      0.153000
     50 H12         1.6620   -5.7470    0.5300 h1        1 R31      0.071700
     51 H13        -0.1430   -5.4180    0.5960 h1        1 R31      0.071700
     52 H14         2.0340   -3.4410   -0.4080 hc        1 R31      0.042200
     53 H15         0.2390   -3.1360   -0.3950 hc        1 R31      0.042200
     54 H16         1.6380   -5.4370   -1.9760 h1        1 R31      0.064700
     55 H17        -0.1340   -4.9690   -2.0420 h1        1 R31      0.064700
     56 H18         1.3490   -3.2040   -4.8250 h1        1 R31      0.045367
     57 H19         0.0030   -4.3670   -4.3590 h1        1 R31      0.045367
     58 H20         1.7470   -4.9360   -4.3530 h1        1 R31      0.045367
     59 H21         1.1250    1.8200   -0.5840 h1        1 R31      0.067200
     60 H22         2.7630    1.0720   -0.2610 h1        1 R31      0.067200
     61 H23         0.6380    0.3450   -2.4220 hx        1 R31      0.113700
     62 H24         2.4030    2.3200   -2.5110 h1        1 R31      0.081700
     63 H25         2.0890   -1.4580   -3.0700 hn        1 R31      0.476467
     64 H26         3.1210   -1.1750   -1.7890 hn        1 R31      0.476467
     65 H28         2.6030    0.2230   -4.7990 hc        1 R31      0.086700
     66 H29         1.0910    1.1730   -4.4560 hc        1 R31      0.086700
     67 H30         4.3130    1.3650   -1.9950 ho        1 R31      0.447000
     68 H31         2.6930    3.2980   -4.5770 hc        1 R31      0.098700
     69 H32         1.5300    4.5550   -6.7540 hn        1 R31      0.466300
     70 H33         4.7050    1.5730   -4.6990 hc        1 R31      0.131700
     71 H34         2.3990    2.9400   -9.1090 hx        1 R31      0.139700
     72 H35         0.6600    3.3170   -8.6750 hx        1 R31      0.139700
     73 H36         0.8560    6.6050  -11.6340 hn        1 R31      0.490800
     74 H37         2.2820    5.8770  -12.1190 hn        1 R31      0.490800
     75 H38        -0.0090    5.8060   -8.5060 hc        1 R31      0.084200
     76 H39         0.9340    7.0420   -9.4420 hc        1 R31      0.084200
     77 H40         1.5510    6.4940   -7.8560 hc        1 R31      0.084200
     78 H41         3.7920    5.5120   -8.6820 hc        1 R31      0.084200
     79 H42         3.3290    6.4490  -10.1360 hc        1 R31      0.084200
     80 H43         3.8020    4.6940  -10.2970 hc        1 R31      0.084200
     81 H44         3.8640    0.2740   -6.6650 hc        1 R31      0.055533
     82 H45         3.9790    1.7520   -7.7120 hc        1 R31      0.055533
     83 H46         5.4740    1.0360   -6.9830 hc        1 R31      0.055533
     84 H47         4.6770    4.2010   -5.0180 hc        1 R31      0.055533
     85 H48         6.1020    3.2250   -5.5460 hc        1 R31      0.055533
     86 H49         4.9490    3.8230   -6.7820 hc        1 R31      0.055533
     87 H223        1.5540   -1.7070   -1.5150 hn        1 R31      0.476467
     88 H272        3.0950    4.1100   -7.1240 hn        1 R31      0.466300
     89 H333        0.8180    5.3620  -12.7560 hn        1 R31      0.490800
@<TRIPOS>BOND
     1    1    2 1   
     2    1    6 1   
     3    1   40 1   
     4    1   41 1   
     5    2    3 1   
     6    2   19 1   
     7    3    4 1   
     8    3   42 1   
     9    3   43 1   
    10    4    5 1   
    11    4   44 1   
    12    4   45 1   
    13    5    6 1   
    14    5    7 1   
    15    6   39 2   
    16    7    8 ar  
    17    7   12 ar  
    18    8    9 ar  
    19    8   13 1   
    20    9   10 ar  
    21    9   46 1   
    22   10   11 ar  
    23   10   47 1   
    24   11   12 ar  
    25   11   48 1   
    26   12   49 1   
    27   13   14 1   
    28   14   15 1   
    29   14   50 1   
    30   14   51 1   
    31   15   16 1   
    32   15   52 1   
    33   15   53 1   
    34   16   17 1   
    35   16   54 1   
    36   16   55 1   
    37   17   18 1   
    38   18   56 1   
    39   18   57 1   
    40   18   58 1   
    41   19   20 1   
    42   19   59 1   
    43   19   60 1   
    44   20   21 1   
    45   20   22 1   
    46   20   61 1   
    47   21   23 1   
    48   21   24 1   
    49   21   62 1   
    50   22   63 1   
    51   22   64 1   
    52   22   87 1   
    53   23   25 1   
    54   23   65 1   
    55   23   66 1   
    56   24   67 1   
    57   25   26 1   
    58   25   29 1   
    59   25   68 1   
    60   26   27 1   
    61   26   28 2   
    62   27   30 1   
    63   27   69 1   
    64   27   88 1   
    65   29   37 1   
    66   29   38 1   
    67   29   70 1   
    68   30   31 1   
    69   30   71 1   
    70   30   72 1   
    71   31   32 1   
    72   31   34 1   
    73   31   35 1   
    74   32   33 1   
    75   32   36 2   
    76   33   73 1   
    77   33   74 1   
    78   33   89 1   
    79   34   75 1   
    80   34   76 1   
    81   34   77 1   
    82   35   78 1   
    83   35   79 1   
    84   35   80 1   
    85   37   81 1   
    86   37   82 1   
    87   37   83 1   
    88   38   84 1   
    89   38   85 1   
    90   38   86 1   
@<TRIPOS>SUBSTRUCTURE
     1 R31         1 TEMP              0 ****  ****    0 ROOT
