@<TRIPOS>MOLECULE
R32
   81    82     1     0     0
SMALL
bcc


@<TRIPOS>ATOM
      1 C1          0.1870    0.6400    0.4020 ca        1 R32     -0.106000
      2 C2          1.5290    0.2390    0.2570 ca        1 R32      0.010600
      3 C3          2.2440   -0.1730    1.4050 ca        1 R32      0.023400
      4 C4          1.6180   -0.1980    2.6540 ca        1 R32     -0.109000
      5 C5          0.2870    0.1960    2.7760 ca        1 R32     -0.094000
      6 C6         -0.4230    0.6170    1.6530 ca        1 R32     -0.114000
      7 N7          2.1630    0.2590   -1.0210 n         1 R32     -0.380000
      8 Cl1         3.8760   -0.6440    1.3020 cl        1 R32     -0.089400
      9 C9          2.2960   -1.0030   -1.7040 c3        1 R32      0.111000
     10 C10         3.3710   -1.0470   -2.8420 c3        1 R32      0.177200
     11 N11         3.2420    0.1680   -3.6800 n3        1 R32     -0.776600
     12 C12         3.3310    1.3980   -2.9070 c3        1 R32      0.078800
     13 C13         2.4240    1.4510   -1.6700 c         1 R32      0.705500
     14 O14         2.0310    2.5630   -1.2860 o         1 R32     -0.584500
     15 C15         3.0720   -2.3240   -3.6460 c3        1 R32     -0.114100
     16 C16         4.7550   -1.2070   -2.2020 c3        1 R32     -0.114100
     17 C17         4.0750    0.2080   -4.8610 c3        1 R32      0.160800
     18 C18         3.2870    0.8090   -6.0720 c3        1 R32      0.071500
     19 C19         4.1700    0.7140   -7.3460 c3        1 R32      0.128100
     20 C20         3.7260    1.7290   -8.4030 c3        1 R32     -0.100400
     21 C21         4.7930    1.9800   -9.4760 c3        1 R32     -0.108700
     22 C22         4.5130    3.3340  -10.1020 c         1 R32      0.556100
     23 N23         5.6460    3.9130  -10.9670 ny        1 R32     -0.686800
     24 C24         5.1540    4.8990  -11.9640 c3        1 R32      0.091800
     25 C25         6.2590    5.5950  -12.8030 c3        1 R32     -0.112000
     26 N26         1.9690    0.1190   -6.2360 nz        1 R32     -0.822600
     27 O27         4.0450   -0.5800   -7.9090 oh        1 R32     -0.609800
     28 C28         4.8000    0.8740  -10.5430 c3        1 R32     -0.097700
     29 O29         3.5210    4.0310  -10.0030 o         1 R32     -0.384100
     30 C30         3.7450    1.0910  -11.6060 c3        1 R32     -0.114100
     31 C31         6.1640    0.6710  -11.1680 c3        1 R32     -0.114100
     32 C32         5.5340    6.7040  -13.5690 c         1 R32      0.531100
     33 C33         7.3150    6.2250  -11.9060 c3        1 R32     -0.141600
     34 C34         6.8880    4.6140  -13.7790 c3        1 R32     -0.141600
     35 N35         6.2890    7.4170  -14.6550 nz        1 R32     -0.748400
     36 O36         4.3890    7.0830  -13.3860 o         1 R32     -0.360100
     37 H1         -0.3790    0.9970   -0.4720 ha        1 R32      0.140000
     38 H2          2.1820   -0.5220    3.5450 ha        1 R32      0.168000
     39 H3         -0.2000    0.1790    3.7650 ha        1 R32      0.162000
     40 H4         -1.4720    0.9390    1.7530 ha        1 R32      0.155000
     41 H5          2.5780   -1.7930   -0.9480 h1        1 R32      0.068700
     42 H6          1.2980   -1.2850   -2.1530 h1        1 R32      0.068700
     43 H8          3.0320    2.2550   -3.5740 h1        1 R32      0.068200
     44 H9          4.3790    1.5940   -2.5310 h1        1 R32      0.068200
     45 H10         3.9500   -2.6260   -4.2640 hc        1 R32      0.054367
     46 H11         2.8590   -3.1580   -2.9310 hc        1 R32      0.054367
     47 H12         2.1820   -2.1960   -4.3070 hc        1 R32      0.054367
     48 H13         4.8080   -2.1920   -1.6760 hc        1 R32      0.054367
     49 H14         5.5580   -1.1790   -2.9770 hc        1 R32      0.054367
     50 H15         4.9440   -0.4030   -1.4500 hc        1 R32      0.054367
     51 H16         4.4270   -0.8230   -5.1450 h1        1 R32      0.073700
     52 H17         4.9870    0.8630   -4.7350 h1        1 R32      0.073700
     53 H18         3.0620    1.8950   -5.8510 hx        1 R32      0.117700
     54 H19         5.2320    0.9240   -7.0320 h1        1 R32      0.086700
     55 H20         3.4860    2.6960   -7.8850 hc        1 R32      0.085700
     56 H21         2.7910    1.3600   -8.9050 hc        1 R32      0.085700
     57 H22         5.8060    2.0220   -8.9780 hc        1 R32      0.098700
     58 H23         6.3240    4.3660  -10.3420 hn        1 R32      0.466800
     59 H24         4.5590    5.6870  -11.4040 hx        1 R32      0.140200
     60 H25         4.4450    4.3600  -12.6600 hx        1 R32      0.140200
     61 H26         1.4680    0.1190   -5.3320 hn        1 R32      0.472133
     62 H27         2.1300   -0.8540   -6.5250 hn        1 R32      0.472133
     63 H29         4.7390   -1.1450   -7.5370 ho        1 R32      0.450000
     64 H30         4.5390   -0.0840   -9.9920 hc        1 R32      0.127700
     65 H31         3.7260    0.2130  -12.3020 hc        1 R32      0.056533
     66 H32         3.9600    2.0060  -12.2110 hc        1 R32      0.056533
     67 H33         2.7290    1.1940  -11.1530 hc        1 R32      0.056533
     68 H34         6.9880    0.8200  -10.4290 hc        1 R32      0.056533
     69 H35         6.3310    1.3370  -12.0500 hc        1 R32      0.056533
     70 H36         6.2390   -0.3820  -11.5500 hc        1 R32      0.056533
     71 H37         7.9480    5.4330  -11.4330 hc        1 R32      0.084367
     72 H38         8.0160    6.8710  -12.4920 hc        1 R32      0.084367
     73 H39         6.8460    6.8490  -11.1060 hc        1 R32      0.084367
     74 H40         6.1480    4.2680  -14.5430 hc        1 R32      0.084367
     75 H41         7.2740    3.7140  -13.2380 hc        1 R32      0.084367
     76 H42         7.7690    5.0700  -14.2990 hc        1 R32      0.084367
     77 H43         5.6790    8.1270  -15.0980 hn        1 R32      0.491467
     78 H44         6.5970    6.7500  -15.3750 hn        1 R32      0.491467
     79 H232        6.1180    3.1310  -11.4450 hn        1 R32      0.466800
     80 H263        1.4030    0.5890   -6.9440 hn        1 R32      0.472133
     81 H353        7.1150    7.8920  -14.2670 hn        1 R32      0.491467
@<TRIPOS>BOND
     1    1    2 ar  
     2    1    6 ar  
     3    1   37 1   
     4    2    3 ar  
     5    2    7 1   
     6    3    4 ar  
     7    3    8 1   
     8    4    5 ar  
     9    4   38 1   
    10    5    6 ar  
    11    5   39 1   
    12    6   40 1   
    13    7    9 1   
    14    7   13 1   
    15    9   10 1   
    16    9   41 1   
    17    9   42 1   
    18   10   11 1   
    19   10   15 1   
    20   10   16 1   
    21   11   12 1   
    22   11   17 1   
    23   12   13 1   
    24   12   43 1   
    25   12   44 1   
    26   13   14 2   
    27   15   45 1   
    28   15   46 1   
    29   15   47 1   
    30   16   48 1   
    31   16   49 1   
    32   16   50 1   
    33   17   18 1   
    34   17   51 1   
    35   17   52 1   
    36   18   19 1   
    37   18   26 1   
    38   18   53 1   
    39   19   20 1   
    40   19   27 1   
    41   19   54 1   
    42   20   21 1   
    43   20   55 1   
    44   20   56 1   
    45   21   22 1   
    46   21   28 1   
    47   21   57 1   
    48   22   23 1   
    49   22   29 2   
    50   23   24 1   
    51   23   58 1   
    52   23   79 1   
    53   24   25 1   
    54   24   59 1   
    55   24   60 1   
    56   25   32 1   
    57   25   33 1   
    58   25   34 1   
    59   26   61 1   
    60   26   62 1   
    61   26   80 1   
    62   27   63 1   
    63   28   30 1   
    64   28   31 1   
    65   28   64 1   
    66   30   65 1   
    67   30   66 1   
    68   30   67 1   
    69   31   68 1   
    70   31   69 1   
    71   31   70 1   
    72   32   35 1   
    73   32   36 2   
    74   33   71 1   
    75   33   72 1   
    76   33   73 1   
    77   34   74 1   
    78   34   75 1   
    79   34   76 1   
    80   35   77 1   
    81   35   78 1   
    82   35   81 1   
@<TRIPOS>SUBSTRUCTURE
     1 R32         1 TEMP              0 ****  ****    0 ROOT
