@<TRIPOS>MOLECULE
R32
   78    79     1     0     0
SMALL
bcc


@<TRIPOS>ATOM
      1 C1         -6.7970   -1.6060    1.7390 ca        1 R32     -0.112000
      2 C2         -6.5600   -0.8970    0.5420 ca        1 R32      0.050600
      3 C3         -7.6450   -0.6940   -0.3420 ca        1 R32      0.016400
      4 C4         -8.9240   -1.1550   -0.0130 ca        1 R32     -0.123000
      5 C5         -9.1370   -1.8380    1.1810 ca        1 R32     -0.122000
      6 C6         -8.0720   -2.0690    2.0490 ca        1 R32     -0.121000
      7 N7         -5.2590   -0.4180    0.2260 n         1 R32     -0.383000
      8 CL1        -7.4380    0.1000   -1.8330 cl        1 R32     -0.092400
      9 C9         -5.0460    1.0070    0.3440 c3        1 R32      0.102000
     10 C10        -3.7340    1.5260   -0.3280 c3        1 R32      0.187200
     11 N11        -2.6000    0.6960    0.1230 n3        1 R32     -0.730600
     12 C12        -2.7980   -0.7170   -0.1500 c3        1 R32      0.095800
     13 C13        -4.1690   -1.2840    0.2130 c         1 R32      0.703500
     14 O14        -4.2880   -2.5070    0.4090 o         1 R32     -0.623500
     15 C15        -3.5960    2.9880    0.1350 c3        1 R32     -0.107600
     16 C16        -3.9380    1.5420   -1.8490 c3        1 R32     -0.107600
     17 C17        -1.3010    1.1550   -0.3480 c3        1 R32      0.122800
     18 C18        -0.1130    0.5890    0.4820 c3        1 R32      0.137500
     19 C19         1.1630    1.3200   -0.0220 c3        1 R32      0.147100
     20 C20         2.4170    0.6360    0.5080 c3        1 R32     -0.098400
     21 C21         3.6420    0.8870   -0.3640 c3        1 R32     -0.122700
     22 C22         4.7210   -0.1300    0.0090 c         1 R32      0.655100
     23 N23         5.5790   -0.5370   -1.0020 n         1 R32     -0.558900
     24 C24         6.6730   -1.4300   -0.7560 c3        1 R32      0.089000
     25 C25         8.0470   -0.7590   -0.5120 c3        1 R32     -0.144000
     26 N26        -0.2580    0.6850    1.9180 n3        1 R32     -0.895800
     27 O27         1.1140    2.7000    0.3020 oh        1 R32     -0.606800
     28 C28         4.1650    2.3200   -0.2410 c3        1 R32     -0.074700
     29 O29         4.7970   -0.6260    1.1510 o         1 R32     -0.610100
     30 C30         4.8130    2.5940    1.1000 c3        1 R32     -0.096600
     31 C31         5.1250    2.6600   -1.3640 c3        1 R32     -0.096600
     32 C32         9.0400   -1.8930   -0.2140 c         1 R32      0.660100
     33 C33         8.5130   -0.0330   -1.7640 c3        1 R32     -0.092100
     34 C34         7.9800    0.2130    0.6530 c3        1 R32     -0.092100
     35 N35         8.9840   -2.5030    1.0120 n         1 R32     -0.673000
     36 O36         9.8760   -2.2730   -1.0590 o         1 R32     -0.615100
     37 H1         -5.9570   -1.8180    2.4190 ha        1 R32      0.152000
     38 H2         -9.7610   -0.9840   -0.7080 ha        1 R32      0.148000
     39 H3        -10.1450   -2.2020    1.4310 ha        1 R32      0.139000
     40 H4         -8.2340   -2.6230    2.9860 ha        1 R32      0.140000
     41 H5         -5.9130    1.5410   -0.1390 h1        1 R32      0.055200
     42 H6         -5.0200    1.2910    1.4360 h1        1 R32      0.055200
     43 H8         -2.6380   -0.9780   -1.2400 h1        1 R32      0.069700
     44 H9         -2.0400   -1.2900    0.4590 h1        1 R32      0.069700
     45 H10        -2.8660    3.5380   -0.5050 hc        1 R32      0.046033
     46 H11        -4.5870    3.4940    0.0430 hc        1 R32      0.046033
     47 H12        -3.2630    3.0460    1.1980 hc        1 R32      0.046033
     48 H13        -4.1660    0.5190   -2.2340 hc        1 R32      0.046033
     49 H14        -4.7930    2.2130   -2.1030 hc        1 R32      0.046033
     50 H15        -3.0220    1.9240   -2.3620 hc        1 R32      0.046033
     51 H16        -1.1250    0.8820   -1.4290 h1        1 R32      0.050200
     52 H17        -1.2590    2.2780   -0.2680 h1        1 R32      0.050200
     53 H18         0.0100   -0.5050    0.2260 h1        1 R32      0.061700
     54 H19         1.1510    1.3100   -1.1500 h1        1 R32      0.067700
     55 H20         2.6240    0.9700    1.5580 hc        1 R32      0.075200
     56 H21         2.2370   -0.4710    0.5550 hc        1 R32      0.075200
     57 H22         3.3390    0.7240   -1.4390 hc        1 R32      0.060700
     58 H23         5.6340    0.0240   -1.8210 hn        1 R32      0.307500
     59 H24         6.4120   -2.0630    0.1410 h1        1 R32      0.070200
     60 H25         6.7760   -2.1040   -1.6560 h1        1 R32      0.070200
     61 H26        -0.5250    1.6150    2.1770 hn        1 R32      0.354800
     62 H27        -0.9640    0.0500    2.2380 hn        1 R32      0.354800
     63 H29         1.3230    2.7900    1.2410 ho        1 R32      0.409000
     64 H30         3.2630    2.9950   -0.3420 hc        1 R32      0.078700
     65 H31         5.6380    1.8670    1.3000 hc        1 R32      0.038367
     66 H32         5.2360    3.6280    1.1140 hc        1 R32      0.038367
     67 H33         4.0630    2.5070    1.9230 hc        1 R32      0.038367
     68 H34         4.7260    2.3160   -2.3490 hc        1 R32      0.038367
     69 H35         5.2690    3.7670   -1.4120 hc        1 R32      0.038367
     70 H36         6.1250    2.1920   -1.1970 hc        1 R32      0.038367
     71 H37         9.5390    0.3790   -1.6030 hc        1 R32      0.047367
     72 H38         8.5550   -0.7400   -2.6270 hc        1 R32      0.047367
     73 H39         7.8230    0.8100   -2.0090 hc        1 R32      0.047367
     74 H40         7.3250   -0.1840    1.4680 hc        1 R32      0.047367
     75 H41         9.0000    0.4090    1.0610 hc        1 R32      0.047367
     76 H42         7.5480    1.1870    0.3130 hc        1 R32      0.047367
     77 H43         8.3380   -2.2110    1.6990 hn        1 R32      0.315000
     78 H44         9.6160   -3.2340    1.2250 hn        1 R32      0.315000
@<TRIPOS>BOND
     1    1    2 ar  
     2    1    6 ar  
     3    1   37 1   
     4    2    3 ar  
     5    2    7 1   
     6    3    4 ar  
     7    3    8 1   
     8    4    5 ar  
     9    4   38 1   
    10    5    6 ar  
    11    5   39 1   
    12    6   40 1   
    13    7    9 1   
    14    7   13 1   
    15    9   10 1   
    16    9   41 1   
    17    9   42 1   
    18   10   11 1   
    19   10   15 1   
    20   10   16 1   
    21   11   12 1   
    22   11   17 1   
    23   12   13 1   
    24   12   43 1   
    25   12   44 1   
    26   13   14 2   
    27   15   45 1   
    28   15   46 1   
    29   15   47 1   
    30   16   48 1   
    31   16   49 1   
    32   16   50 1   
    33   17   18 1   
    34   17   51 1   
    35   17   52 1   
    36   18   19 1   
    37   18   26 1   
    38   18   53 1   
    39   19   20 1   
    40   19   27 1   
    41   19   54 1   
    42   20   21 1   
    43   20   55 1   
    44   20   56 1   
    45   21   22 1   
    46   21   28 1   
    47   21   57 1   
    48   22   23 1   
    49   22   29 2   
    50   23   24 1   
    51   23   58 1   
    52   24   25 1   
    53   24   59 1   
    54   24   60 1   
    55   25   32 1   
    56   25   33 1   
    57   25   34 1   
    58   26   61 1   
    59   26   62 1   
    60   27   63 1   
    61   28   30 1   
    62   28   31 1   
    63   28   64 1   
    64   30   65 1   
    65   30   66 1   
    66   30   67 1   
    67   31   68 1   
    68   31   69 1   
    69   31   70 1   
    70   32   35 1   
    71   32   36 2   
    72   33   71 1   
    73   33   72 1   
    74   33   73 1   
    75   34   74 1   
    76   34   75 1   
    77   34   76 1   
    78   35   77 1   
    79   35   78 1   
@<TRIPOS>SUBSTRUCTURE
     1 R32         1 TEMP              0 ****  ****    0 ROOT
