@<TRIPOS>MOLECULE
R32
   78    73     1     0     0
SMALL
bcc


@<TRIPOS>ATOM
      1 C1          0.7780   -2.4940    7.5980 c1        1 R32     -0.117000
      2 C2          1.0070   -3.2020    6.4180 c1        1 R32      0.059000
      3 C3          1.2330   -4.5830    6.4630 c1        1 R32     -0.062000
      4 C4          1.2290   -5.2540    7.6970 c2        1 R32     -0.123000
      5 C5          1.0020   -4.5540    8.8610 c1        1 R32     -0.123000
      6 C6          0.7740   -3.1580    8.8160 c1        1 R32     -0.117000
      7 N7          0.9940   -2.5100    5.1390 n2        1 R32     -0.286000
      8 CL1         1.6710   -5.4400    5.0090 cl        1 R32     -0.013000
      9 C9         -0.2490   -1.9560    4.6200 c3        1 R32     -0.014000
     10 C10        -0.2530   -1.7690    3.1900 c3        1 R32      0.029000
     11 N11         0.9190   -1.0190    2.7110 n3        1 R32     -0.257000
     12 C12         2.1490   -1.5800    3.1250 c3        1 R32     -0.092000
     13 C13         2.1280   -1.8160    4.7000 c2        1 R32      0.311000
     14 O14         3.1700   -1.8970    5.3170 o         1 R32     -0.349000
     15 C15        -1.5250   -1.0100    2.7920 c3        1 R32     -0.226000
     16 C16        -0.2670   -3.1400    2.5190 c3        1 R32     -0.226000
     17 C17         0.8830   -0.9210    1.2600 c3        1 R32     -0.114000
     18 C18         1.6470    0.3120    0.8190 c3        1 R32     -0.061000
     19 C19         0.7890    1.1260   -0.1710 c3        1 R32      0.031000
     20 C20         1.5340    1.2620   -1.4960 c3        1 R32     -0.181000
     21 C21         0.8260    2.2690   -2.3800 c3        1 R32     -0.120000
     22 C22         0.1320    1.5620   -3.4720 c1        1 R32      0.301000
     23 N23        -1.1930    1.9810   -3.8750 n2        1 R32     -0.370000
     24 C24        -2.1950    0.9830   -4.2160 c3        1 R32     -0.023000
     25 C25        -2.9480    1.4190   -5.5530 c3        1 R32     -0.092000
     26 N26         1.9460    1.1030    1.9450 n3        1 R32     -0.332000
     27 O27         0.5500    2.3790    0.3520 oh        1 R32     -0.333000
     28 C28         1.8750    3.2610   -2.9800 c3        1 R32     -0.098000
     29 O29         0.6050    0.5600   -3.9300 o         1 R32     -0.376000
     30 C30         1.1740    4.4690   -3.5110 c3        1 R32     -0.217500
     31 C31         2.6310    2.5790   -4.1090 c3        1 R32     -0.217500
     32 C32        -3.9260    0.3240   -5.9650 c1        1 R32      0.306000
     33 C33        -3.7210    2.7320   -5.3060 c3        1 R32     -0.212000
     34 C34        -1.9220    1.6310   -6.6710 c3        1 R32     -0.212000
     35 N35        -4.5180    0.3510   -7.2640 n2        1 R32     -0.431000
     36 O36        -4.1280   -0.6090   -5.2320 o         1 R32     -0.379000
     37 H1          0.6170   -1.5180    7.5660 ha        1 R32      0.145500
     38 H2          1.3900   -6.2390    7.7300 ha        1 R32      0.148000
     39 H3          1.0000   -5.0160    9.7080 ha        1 R32      0.139000
     40 H4          0.6140   -2.6640    9.6380 ha        1 R32      0.145500
     41 H5         -0.4090   -1.0770    5.0530 h1        1 R32      0.093000
     42 H6         -0.9860   -2.5630    4.8590 h1        1 R32      0.093000
     43 H8          2.9290   -1.0210    2.8920 h1        1 R32      0.110500
     44 H9          2.3400   -2.3990    2.6210 h1        1 R32      0.110500
     45 H10        -2.2480   -1.2560    3.3910 hc        1 R32      0.085333
     46 H11        -1.7710   -1.2430    1.8680 hc        1 R32      0.085333
     47 H12        -1.3620   -0.0360    2.8560 hc        1 R32      0.085333
     48 H13        -0.9260   -3.7390    2.9920 hc        1 R32      0.085333
     49 H14        -0.5260   -3.0440    1.5950 hc        1 R32      0.085333
     50 H15         0.6290   -3.5380    2.5680 hc        1 R32      0.085333
     51 H16        -0.0550   -0.8520    0.9580 h1        1 R32      0.092000
     52 H17         1.2990   -1.7250    0.8660 h1        1 R32      0.092000
     53 H18         2.4780    0.0410    0.3820 h1        1 R32      0.106000
     54 H19        -0.0740    0.6610   -0.3230 h1        1 R32      0.121000
     55 H20         1.5580    0.4080   -1.9390 hc        1 R32      0.112500
     56 H21         2.4540    1.5670   -1.3240 hc        1 R32      0.112500
     57 H22         0.1690    2.7690   -1.8460 hc        1 R32      0.111000
     58 H23        -1.4340    2.8700   -3.8090 hn        1 R32      0.221000
     59 H24        -2.8370    0.9110   -3.4930 h1        1 R32      0.122500
     60 H25        -1.7540    0.1070   -4.3550 h1        1 R32      0.122500
     61 H26         2.8430    0.9870    2.1770 hn        1 R32      0.149000
     62 H27         1.7950    1.9680    1.7530 hn        1 R32      0.149000
     63 H29        -0.3070    2.4790    0.4870 ho        1 R32      0.203000
     64 H30         2.5040    3.5300   -2.2830 hc        1 R32      0.093000
     65 H31         1.5630    4.7150   -4.3990 hc        1 R32      0.079500
     66 H32         1.2870    5.2070   -2.8930 hc        1 R32      0.079500
     67 H33         0.2290    4.2750   -3.6160 hc        1 R32      0.079500
     68 H34         2.2890    2.8970   -4.9670 hc        1 R32      0.079500
     69 H35         3.5930    2.7940   -4.0380 hc        1 R32      0.079500
     70 H36         2.5070    1.6170   -4.0470 hc        1 R32      0.079500
     71 H37        -4.3820    2.8570   -6.0100 hc        1 R32      0.084167
     72 H38        -3.1010    3.4780   -5.3090 hc        1 R32      0.084167
     73 H39        -4.1670    2.6870   -4.4480 hc        1 R32      0.084167
     74 H40        -1.2790    2.2990   -6.3970 hc        1 R32      0.084167
     75 H41        -1.4560    0.7830   -6.8540 hc        1 R32      0.084167
     76 H42        -2.3790    1.9320   -7.4780 hc        1 R32      0.084167
     77 H43        -4.5090    1.1100   -7.7470 hn        1 R32      0.225500
     78 H44        -4.9210   -0.4080   -7.6040 hn        1 R32      0.225500
@<TRIPOS>BOND
     1    1    6 1   
     2    1   37 1   
     3    2    3 1   
     4    3    4 1   
     5    4    5 1   
     6    4   38 1   
     7    5   39 1   
     8    6   40 1   
     9    7    9 1   
    10    7   13 1   
    11    9   10 1   
    12    9   41 1   
    13    9   42 1   
    14   10   11 1   
    15   10   15 1   
    16   10   16 1   
    17   11   12 1   
    18   11   17 1   
    19   12   13 1   
    20   12   43 1   
    21   12   44 1   
    22   13   14 1   
    23   15   45 1   
    24   15   46 1   
    25   15   47 1   
    26   16   48 1   
    27   16   49 1   
    28   16   50 1   
    29   17   18 1   
    30   17   51 1   
    31   17   52 1   
    32   18   19 1   
    33   18   26 1   
    34   18   53 1   
    35   19   20 1   
    36   19   27 1   
    37   19   54 1   
    38   20   21 1   
    39   20   55 1   
    40   20   56 1   
    41   21   22 1   
    42   21   28 1   
    43   21   57 1   
    44   22   29 1   
    45   23   24 1   
    46   23   58 1   
    47   24   25 1   
    48   24   59 1   
    49   24   60 1   
    50   25   32 1   
    51   25   33 1   
    52   25   34 1   
    53   26   61 1   
    54   26   62 1   
    55   27   63 1   
    56   28   30 1   
    57   28   31 1   
    58   28   64 1   
    59   30   65 1   
    60   30   66 1   
    61   30   67 1   
    62   31   68 1   
    63   31   69 1   
    64   31   70 1   
    65   32   36 1   
    66   33   71 1   
    67   33   72 1   
    68   33   73 1   
    69   34   74 1   
    70   34   75 1   
    71   34   76 1   
    72   35   77 1   
    73   35   78 1   
@<TRIPOS>SUBSTRUCTURE
     1 R32         1 TEMP              0 ****  ****    0 ROOT
