@<TRIPOS>MOLECULE
R32
   81    82     1     0     0
SMALL
bcc


@<TRIPOS>ATOM
      1 C1          0.2730    0.6680    0.4530 ca        1 R32     -0.106000
      2 C2          1.5970    0.2200    0.2780 ca        1 R32      0.010600
      3 C3          2.3140   -0.2380    1.4070 ca        1 R32      0.023400
      4 C4          1.7090   -0.2600    2.6660 ca        1 R32     -0.109000
      5 C5          0.3960    0.1800    2.8180 ca        1 R32     -0.094000
      6 C6         -0.3170    0.6460    1.7140 ca        1 R32     -0.114000
      7 N7          2.2100    0.2380   -1.0100 n         1 R32     -0.380000
      8 CL1         3.9260   -0.7670    1.2680 cl        1 R32     -0.089400
      9 C9          2.2840   -1.0160   -1.7160 c3        1 R32      0.111000
     10 C10         3.3370   -1.0800   -2.8730 c3        1 R32      0.177200
     11 N11         3.2410    0.1530   -3.6880 n3        1 R32     -0.776600
     12 C12         3.3870    1.3650   -2.8970 c3        1 R32      0.078800
     13 C13         2.5030    1.4310   -1.6430 c         1 R32      0.705500
     14 O14         2.1590    2.5500   -1.2350 o         1 R32     -0.584500
     15 C15         2.9780   -2.3310   -3.6920 c3        1 R32     -0.114100
     16 C16         4.7260   -1.3020   -2.2590 c3        1 R32     -0.114100
     17 C17         4.0550    0.1830   -4.8820 c3        1 R32      0.160800
     18 C18         3.2690    0.8320   -6.0690 c3        1 R32      0.071500
     19 C19         4.1280    0.7280   -7.3590 c3        1 R32      0.128100
     20 C20         3.7060    1.7800   -8.3900 c3        1 R32     -0.100400
     21 C21         4.7600    2.0010   -9.4830 c3        1 R32     -0.107700
     22 C22         4.5330    3.3800  -10.0760 c         1 R32      0.558100
     23 N23         5.6810    3.9310  -10.9410 n4        1 R32     -0.686800
     24 C24         5.2000    4.8590  -11.9980 c3        1 R32      0.090800
     25 C25         6.3190    5.5780  -12.7970 c3        1 R32     -0.113000
     26 N26         1.9250    0.1930   -6.2230 n4        1 R32     -0.822600
     27 O27         3.9460   -0.5490   -7.9440 oh        1 R32     -0.609800
     28 C28         4.6890    0.9190  -10.5710 c3        1 R32     -0.096700
     29 O29         3.5750    4.1190   -9.9500 o         1 R32     -0.386100
     30 C30         3.6080    1.1980  -11.5930 c3        1 R32     -0.114600
     31 C31         6.0230    0.6810  -11.2470 c3        1 R32     -0.114600
     32 C32         5.6070    6.2240  -13.9880 c         1 R32      0.532100
     33 C33         6.9890    6.6380  -11.9390 c3        1 R32     -0.141600
     34 C34         7.3400    4.5830  -13.3300 c3        1 R32     -0.141600
     35 N35         6.3460    7.2800  -14.7590 n4        1 R32     -0.747400
     36 O36         4.4880    5.9580  -14.3940 o         1 R32     -0.362100
     37 H1         -0.2940    1.0600   -0.4060 ha        1 R32      0.140000
     38 H2          2.2750   -0.6200    3.5420 ha        1 R32      0.168000
     39 H3         -0.0750    0.1640    3.8140 ha        1 R32      0.162000
     40 H4         -1.3510    1.0040    1.8370 ha        1 R32      0.155000
     41 H5          2.5490   -1.8290   -0.9780 h1        1 R32      0.068700
     42 H6          1.2700   -1.2530   -2.1520 h1        1 R32      0.068700
     43 H8          4.4480    1.5160   -2.5360 h1        1 R32      0.068200
     44 H9          3.1090    2.2440   -3.5440 h1        1 R32      0.068200
     45 H10         3.8340   -2.6550   -4.3310 hc        1 R32      0.054367
     46 H11         2.0820   -2.1590   -4.3350 hc        1 R32      0.054367
     47 H12         2.7460   -3.1690   -2.9870 hc        1 R32      0.054367
     48 H13         4.7500   -2.2970   -1.7500 hc        1 R32      0.054367
     49 H14         4.9560   -0.5180   -1.4970 hc        1 R32      0.054367
     50 H15         5.5160   -1.2900   -3.0470 hc        1 R32      0.054367
     51 H16         4.9920    0.8010   -4.7610 h1        1 R32      0.073700
     52 H17         4.3640   -0.8560   -5.1890 h1        1 R32      0.073700
     53 H18         3.0880    1.9230   -5.8270 hx        1 R32      0.117700
     54 H19         5.2020    0.8930   -7.0590 h1        1 R32      0.086700
     55 H20         3.5210    2.7470   -7.8510 hc        1 R32      0.085700
     56 H21         2.7450    1.4610   -8.8760 hc        1 R32      0.085700
     57 H22         5.7840    1.9830   -9.0080 hc        1 R32      0.098700
     58 H23         6.1770    3.1370  -11.3720 hn        1 R32      0.466800
     59 H24         4.5550    4.2550  -12.7070 hx        1 R32      0.140200
     60 H25         4.5420    5.6390  -11.5060 hx        1 R32      0.140200
     61 H26         1.3650    0.6960   -6.9130 hn        1 R32      0.472133
     62 H27         2.0460   -0.7800   -6.5320 hn        1 R32      0.472133
     63 H29         4.6240   -1.1460   -7.5940 ho        1 R32      0.450000
     64 H30         4.4120   -0.0400  -10.0300 hc        1 R32      0.127700
     65 H31         3.5350    0.3390  -12.3080 hc        1 R32      0.056700
     66 H32         2.6120    1.3250  -11.1050 hc        1 R32      0.056700
     67 H33         3.8370    2.1200  -12.1830 hc        1 R32      0.056700
     68 H34         6.0470   -0.3650  -11.6530 hc        1 R32      0.056700
     69 H35         6.8760    0.7850  -10.5360 hc        1 R32      0.056700
     70 H36         6.1800    1.3610  -12.1210 hc        1 R32      0.056700
     71 H37         7.8730    7.0830  -12.4620 hc        1 R32      0.084533
     72 H38         7.3820    6.1890  -10.9930 hc        1 R32      0.084533
     73 H39         6.2740    7.4520  -11.6620 hc        1 R32      0.084533
     74 H40         7.9770    4.1960  -12.4950 hc        1 R32      0.084533
     75 H41         8.0380    5.0670  -14.0590 hc        1 R32      0.084533
     76 H42         6.8400    3.7240  -13.8410 hc        1 R32      0.084533
     77 H43         5.7600    7.6140  -15.5460 hn        1 R32      0.491467
     78 H44         6.5640    8.0800  -14.1500 hn        1 R32      0.491467
     79 H232        6.3370    4.4230  -10.3210 hn        1 R32      0.466800
     80 H263        1.4400    0.1950   -5.3110 hn        1 R32      0.472133
     81 H353        7.2230    6.9030  -15.1390 hn        1 R32      0.491467
@<TRIPOS>BOND
     1    1    2 ar  
     2    1    6 ar  
     3    1   37 1   
     4    2    3 ar  
     5    2    7 1   
     6    3    4 ar  
     7    3    8 1   
     8    4    5 ar  
     9    4   38 1   
    10    5    6 ar  
    11    5   39 1   
    12    6   40 1   
    13    7    9 1   
    14    7   13 1   
    15    9   10 1   
    16    9   41 1   
    17    9   42 1   
    18   10   11 1   
    19   10   15 1   
    20   10   16 1   
    21   11   12 1   
    22   11   17 1   
    23   12   13 1   
    24   12   43 1   
    25   12   44 1   
    26   13   14 2   
    27   15   45 1   
    28   15   46 1   
    29   15   47 1   
    30   16   48 1   
    31   16   49 1   
    32   16   50 1   
    33   17   18 1   
    34   17   51 1   
    35   17   52 1   
    36   18   19 1   
    37   18   26 1   
    38   18   53 1   
    39   19   20 1   
    40   19   27 1   
    41   19   54 1   
    42   20   21 1   
    43   20   55 1   
    44   20   56 1   
    45   21   22 1   
    46   21   28 1   
    47   21   57 1   
    48   22   23 1   
    49   22   29 2   
    50   23   24 1   
    51   23   58 1   
    52   23   79 1   
    53   24   25 1   
    54   24   59 1   
    55   24   60 1   
    56   25   32 1   
    57   25   33 1   
    58   25   34 1   
    59   26   61 1   
    60   26   62 1   
    61   26   80 1   
    62   27   63 1   
    63   28   30 1   
    64   28   31 1   
    65   28   64 1   
    66   30   65 1   
    67   30   66 1   
    68   30   67 1   
    69   31   68 1   
    70   31   69 1   
    71   31   70 1   
    72   32   35 1   
    73   32   36 2   
    74   33   71 1   
    75   33   72 1   
    76   33   73 1   
    77   34   74 1   
    78   34   75 1   
    79   34   76 1   
    80   35   77 1   
    81   35   78 1   
    82   35   81 1   
@<TRIPOS>SUBSTRUCTURE
     1 R32         1 TEMP              0 ****  ****    0 ROOT
