@<TRIPOS>MOLECULE
R32
   81    82     1     0     0
SMALL
bcc


@<TRIPOS>ATOM
      1 C1         -0.0570    0.5180    0.1940 ca        1 R32     -0.106000
      2 C2          1.3370    0.3270    0.1410 ca        1 R32      0.010600
      3 C3          2.0420    0.1200    1.3490 ca        1 R32      0.023400
      4 C4          1.3590    0.0880    2.5680 ca        1 R32     -0.109000
      5 C5         -0.0220    0.2710    2.5990 ca        1 R32     -0.094000
      6 C6         -0.7250    0.4890    1.4150 ca        1 R32     -0.114000
      7 N7          2.0310    0.3540   -1.1050 n         1 R32     -0.380000
      8 CL1         3.7310   -0.0900    1.3560 cl        1 R32     -0.090400
      9 C9          2.3980   -0.9180   -1.6760 c3        1 R32      0.111000
     10 C10         3.5290   -0.8730   -2.7580 c3        1 R32      0.177200
     11 N11         3.2590    0.2400   -3.6980 n3        1 R32     -0.776600
     12 C12         3.1080    1.5220   -3.0270 c3        1 R32      0.078800
     13 C13         2.1370    1.5210   -1.8380 c         1 R32      0.705500
     14 O14         1.5550    2.5810   -1.5640 o         1 R32     -0.584500
     15 C15         3.4810   -2.2370   -3.4660 c3        1 R32     -0.114100
     16 C16         4.8830   -0.7590   -2.0470 c3        1 R32     -0.114100
     17 C17         4.1410    0.3260   -4.8400 c3        1 R32      0.160800
     18 C18         3.3370    0.6970   -6.1310 c3        1 R32      0.071500
     19 C19         4.2960    0.6550   -7.3520 c3        1 R32      0.128100
     20 C20         3.7560    1.5030   -8.5080 c3        1 R32     -0.100400
     21 C21         4.8250    1.8210   -9.5620 c3        1 R32     -0.107700
     22 C22         4.4230    3.0990  -10.2740 c         1 R32      0.557100
     23 N23         5.4200    3.6130  -11.3280 n4        1 R32     -0.682800
     24 C24         5.3720    5.0870  -11.5040 c3        1 R32      0.090800
     25 C25         6.1470    5.6230  -12.7380 c3        1 R32     -0.113000
     26 N26         2.1590   -0.2110   -6.2960 n4        1 R32     -0.822600
     27 O27         4.4150   -0.6800   -7.8130 oh        1 R32     -0.609800
     28 C28         5.0250    0.6580  -10.5400 c3        1 R32     -0.099700
     29 O29         3.4210    3.7740  -10.1320 o         1 R32     -0.387100
     30 C30         3.9260    0.5530  -11.5740 c3        1 R32     -0.115100
     31 C31         6.3890    0.6790  -11.2000 c3        1 R32     -0.115100
     32 C32         6.1940    7.1420  -12.5510 c         1 R32      0.532100
     33 C33         7.5750    5.0980  -12.7620 c3        1 R32     -0.141600
     34 C34         5.4160    5.2700  -14.0220 c3        1 R32     -0.141600
     35 N35         6.5740    7.9840  -13.7350 n4        1 R32     -0.747400
     36 O36         5.9650    7.7520  -11.5200 o         1 R32     -0.363100
     37 H1         -0.6220    0.7140   -0.7300 ha        1 R32      0.140000
     38 H2          1.9160   -0.0750    3.5060 ha        1 R32      0.168000
     39 H3         -0.5550    0.2490    3.5640 ha        1 R32      0.162000
     40 H4         -1.8150    0.6460    1.4420 ha        1 R32      0.155000
     41 H5          2.7570   -1.5940   -0.8460 h1        1 R32      0.068700
     42 H6          1.4840   -1.3880   -2.1440 h1        1 R32      0.068700
     43 H8          4.0900    1.9130   -2.6240 h1        1 R32      0.068200
     44 H9          2.7150    2.2680   -3.7750 h1        1 R32      0.068200
     45 H10         2.6190   -2.3040   -4.1730 hc        1 R32      0.054533
     46 H11         4.4280   -2.4390   -4.0190 hc        1 R32      0.054533
     47 H12         3.3620   -3.0390   -2.6950 hc        1 R32      0.054533
     48 H13         5.7140   -0.6600   -2.7860 hc        1 R32      0.054533
     49 H14         5.0590   -1.6800   -1.4380 hc        1 R32      0.054533
     50 H15         4.9000    0.1190   -1.3570 hc        1 R32      0.054533
     51 H16         4.6680   -0.6520   -5.0210 h1        1 R32      0.074200
     52 H17         4.9280    1.1290   -4.7290 h1        1 R32      0.074200
     53 H18         2.9280    1.7450   -6.0120 hx        1 R32      0.117700
     54 H19         5.2900    1.0600   -7.0080 h1        1 R32      0.086700
     55 H20         3.3560    2.4620   -8.0810 hc        1 R32      0.086700
     56 H21         2.9080    0.9600   -9.0030 hc        1 R32      0.086700
     57 H22         5.8020    2.0260   -9.0320 hc        1 R32      0.101700
     58 H23         5.1870    3.1450  -12.2170 hn        1 R32      0.467800
     59 H24         5.7900    5.5570  -10.5620 hx        1 R32      0.139700
     60 H25         4.2850    5.3950  -11.5970 hx        1 R32      0.139700
     61 H26         1.5640    0.1080   -7.0620 hn        1 R32      0.472133
     62 H27         2.4910   -1.1630   -6.5010 hn        1 R32      0.472133
     63 H29         5.1610   -1.0960   -7.3570 ho        1 R32      0.450000
     64 H30         4.9780   -0.2810   -9.9020 hc        1 R32      0.128700
     65 H31         4.1000   -0.3500  -12.2150 hc        1 R32      0.056033
     66 H32         2.9240    0.4420  -11.0920 hc        1 R32      0.056033
     67 H33         3.8980    1.4480  -12.2430 hc        1 R32      0.056033
     68 H34         6.3880    1.2620  -12.1530 hc        1 R32      0.056033
     69 H35         6.6820   -0.3700  -11.4720 hc        1 R32      0.056033
     70 H36         7.1760    1.0810  -10.5180 hc        1 R32      0.056033
     71 H37         8.0820    5.2590  -11.7780 hc        1 R32      0.084867
     72 H38         8.1800    5.6040  -13.5560 hc        1 R32      0.084867
     73 H39         7.5840    4.0070  -13.0080 hc        1 R32      0.084867
     74 H40         6.0180    5.5520  -14.9220 hc        1 R32      0.084867
     75 H41         4.4160    5.7690  -14.0730 hc        1 R32      0.084867
     76 H42         5.2520    4.1650  -14.0920 hc        1 R32      0.084867
     77 H43         5.8910    7.8600  -14.4950 hn        1 R32      0.491467
     78 H44         6.5910    8.9830  -13.4640 hn        1 R32      0.491467
     79 H232        6.3680    3.3170  -11.0610 hn        1 R32      0.467800
     80 H263        1.6170   -0.2300   -5.4160 hn        1 R32      0.472133
     81 H353        7.5060    7.7210  -14.0810 hn        1 R32      0.491467
@<TRIPOS>BOND
     1    1    2 ar  
     2    1    6 ar  
     3    1   37 1   
     4    2    3 ar  
     5    2    7 1   
     6    3    4 ar  
     7    3    8 1   
     8    4    5 ar  
     9    4   38 1   
    10    5    6 ar  
    11    5   39 1   
    12    6   40 1   
    13    7    9 1   
    14    7   13 1   
    15    9   10 1   
    16    9   41 1   
    17    9   42 1   
    18   10   11 1   
    19   10   15 1   
    20   10   16 1   
    21   11   12 1   
    22   11   17 1   
    23   12   13 1   
    24   12   43 1   
    25   12   44 1   
    26   13   14 2   
    27   15   45 1   
    28   15   46 1   
    29   15   47 1   
    30   16   48 1   
    31   16   49 1   
    32   16   50 1   
    33   17   18 1   
    34   17   51 1   
    35   17   52 1   
    36   18   19 1   
    37   18   26 1   
    38   18   53 1   
    39   19   20 1   
    40   19   27 1   
    41   19   54 1   
    42   20   21 1   
    43   20   55 1   
    44   20   56 1   
    45   21   22 1   
    46   21   28 1   
    47   21   57 1   
    48   22   23 1   
    49   22   29 2   
    50   23   24 1   
    51   23   58 1   
    52   23   79 1   
    53   24   25 1   
    54   24   59 1   
    55   24   60 1   
    56   25   32 1   
    57   25   33 1   
    58   25   34 1   
    59   26   61 1   
    60   26   62 1   
    61   26   80 1   
    62   27   63 1   
    63   28   30 1   
    64   28   31 1   
    65   28   64 1   
    66   30   65 1   
    67   30   66 1   
    68   30   67 1   
    69   31   68 1   
    70   31   69 1   
    71   31   70 1   
    72   32   35 1   
    73   32   36 2   
    74   33   71 1   
    75   33   72 1   
    76   33   73 1   
    77   34   74 1   
    78   34   75 1   
    79   34   76 1   
    80   35   77 1   
    81   35   78 1   
    82   35   81 1   
@<TRIPOS>SUBSTRUCTURE
     1 R32         1 TEMP              0 ****  ****    0 ROOT
