@<TRIPOS>MOLECULE
R35
   24    22     1     0     0
SMALL
bcc


@<TRIPOS>ATOM
      1 C1          0.9650   -0.7010    0.9400 c         1 R35      0.906600
      2 O1          1.3430   -1.8780    1.2200 o         1 R35     -0.877300
      3 C2          1.6600    0.1140   -0.1760 c3        1 R35     -0.121500
      4 C3          2.7720    0.9230    0.4150 c2        1 R35     -0.054400
      5 C4         -0.7430   -2.5620    3.7120 c3        1 R35     -0.127800
      6 C5          3.9390    1.1560   -0.1960 c2        1 R35     -0.298000
      7 C6          2.4830    1.4860    1.7620 c3        1 R35     -0.061900
      8 C7          2.0840   -0.7780   -1.3280 c3        1 R35     -0.154400
      9 C8          2.2860   -0.0540   -2.6620 c         1 R35      0.897600
     10 O2          1.3150    0.5480   -3.2130 o         1 R35     -0.885800
     11 O3          3.4300   -0.1150   -3.2190 o         1 R35     -0.885800
     12 H1          0.8950    0.8460   -0.5710 hc        1 R35      0.067700
     13 H2         -0.2390   -2.0150    2.8650 hc        1 R35      0.029450
     14 H3         -1.4030   -3.3560    3.3010 hc        1 R35      0.029450
     15 H4         -1.3510   -1.8470    4.3070 hc        1 R35      0.029450
     16 H5          0.0270   -3.0260    4.3660 hc        1 R35      0.029450
     17 H6          4.7230    1.7700    0.2650 ha        1 R35      0.107000
     18 H7          4.1660    0.7560   -1.1970 ha        1 R35      0.107000
     19 H8          3.2190    2.2760    2.0520 hc        1 R35      0.027700
     20 H9          2.5140    0.6630    2.5200 hc        1 R35      0.027700
     21 H10         1.4500    1.9150    1.7800 hc        1 R35      0.027700
     22 H11         3.0240   -1.3210   -1.0550 hc        1 R35      0.029200
     23 H12         1.2820   -1.5480   -1.4800 hc        1 R35      0.029200
     24 O4          0.0080   -0.1550    1.5770 o         1 R35     -0.877300
@<TRIPOS>BOND
     1    1    2 1   
     2    1    3 1   
     3    1   24 1   
     4    3    4 1   
     5    3    8 1   
     6    3   12 1   
     7    4    6 2   
     8    4    7 1   
     9    5   13 1   
    10    5   14 1   
    11    5   15 1   
    12    5   16 1   
    13    6   17 1   
    14    6   18 1   
    15    7   19 1   
    16    7   20 1   
    17    7   21 1   
    18    8    9 1   
    19    8   22 1   
    20    8   23 1   
    21    9   10 1   
    22    9   11 1   
@<TRIPOS>SUBSTRUCTURE
     1 R35         1 TEMP              0 ****  ****    0 ROOT
