@<TRIPOS>MOLECULE
R35
   24    23     1     0     0
SMALL
bcc


@<TRIPOS>ATOM
      1 C1          0.6110   -1.6110   -0.5760 c         1 R35      0.904600
      2 O1          0.4060   -1.7600   -1.8190 o         1 R35     -0.881300
      3 C2          0.2900   -0.2690    0.1220 c3        1 R35     -0.141700
      4 C3          1.5010    0.6800    0.0370 c3        1 R35     -0.025000
      5 C4          1.9260    0.9120   -1.4050 c3        1 R35     -0.087100
      6 C5          1.1660    2.0180    0.6810 c3        1 R35     -0.087100
      7 C6          2.6650    0.0540    0.8000 c3        1 R35     -0.087100
      8 C7         -0.9940    0.3320   -0.4200 c3        1 R35     -0.154400
      9 C8         -1.6770    1.3560    0.4880 c         1 R35      0.896600
     10 O2         -1.8650    1.1090    1.7190 o         1 R35     -0.889300
     11 O3         -2.0890    2.4430   -0.0350 o         1 R35     -0.889300
     12 H1          0.1230   -0.4920    1.2140 hc        1 R35      0.057700
     13 H2          1.1420    1.4910   -1.9500 hc        1 R35      0.023478
     14 H3          2.8820    1.4900   -1.4440 hc        1 R35      0.023478
     15 H4          2.0620   -0.0690   -1.9240 hc        1 R35      0.023478
     16 H5          0.7070    1.8540    1.6870 hc        1 R35      0.023478
     17 H6          2.0870    2.6410    0.7910 hc        1 R35      0.023478
     18 H7          0.4210    2.5720    0.0580 hc        1 R35      0.023478
     19 H8          2.8370   -0.9900    0.4370 hc        1 R35      0.023478
     20 H9          3.5970    0.6550    0.6630 hc        1 R35      0.023478
     21 H10         2.4290    0.0120    1.8900 hc        1 R35      0.023478
     22 H11        -0.8040    0.7970   -1.4200 hc        1 R35      0.027200
     23 H12        -1.7240   -0.5050   -0.5800 hc        1 R35      0.027200
     24 O4          1.0940   -2.5550    0.1280 o         1 R35     -0.881300
@<TRIPOS>BOND
     1    1    2 1   
     2    1    3 1   
     3    1   24 1   
     4    3    4 1   
     5    3    8 1   
     6    3   12 1   
     7    4    5 1   
     8    4    6 1   
     9    4    7 1   
    10    5   13 1   
    11    5   14 1   
    12    5   15 1   
    13    6   16 1   
    14    6   17 1   
    15    6   18 1   
    16    7   19 1   
    17    7   20 1   
    18    7   21 1   
    19    8    9 1   
    20    8   22 1   
    21    8   23 1   
    22    9   10 1   
    23    9   11 1   
@<TRIPOS>SUBSTRUCTURE
     1 R35         1 TEMP              0 ****  ****    0 ROOT
