@<TRIPOS>MOLECULE
R35
   24    22     1     0     0
SMALL
bcc


@<TRIPOS>ATOM
      1 C1          1.1060   -0.8480    1.0650 c         1 R35      0.907600
      2 O1          1.6980   -1.9530    1.2440 o         1 R35     -0.875800
      3 C2          1.4580    0.0590   -0.1390 c3        1 R35     -0.118500
      4 C3          2.4600    1.0880    0.2800 c2        1 R35     -0.051400
      5 C4          0.1930   -2.9670    4.0240 c3        1 R35     -0.126800
      6 C5          3.6680    1.2370   -0.2740 c2        1 R35     -0.283000
      7 C6          2.0050    1.9940    1.3700 c3        1 R35     -0.069900
      8 C7          1.8750   -0.7780   -1.3340 c3        1 R35     -0.155400
      9 C8          1.9510   -0.0220   -2.6630 c         1 R35      0.899600
     10 O2          0.9070    0.5100   -3.1510 o         1 R35     -0.886800
     11 O3          3.0620    0.0070   -3.2830 o         1 R35     -0.886800
     12 H1          0.5160    0.6130   -0.4200 hc        1 R35      0.059700
     13 H2          0.4510   -2.3240    3.1350 hc        1 R35      0.029450
     14 H3         -0.8890   -3.2180    4.0010 hc        1 R35      0.029450
     15 H4          0.4230   -2.4160    4.9620 hc        1 R35      0.029450
     16 H5          0.7910   -3.9030    3.9910 hc        1 R35      0.029450
     17 H6          4.3720    2.0070    0.0670 ha        1 R35      0.102500
     18 H7          4.0030    0.6270   -1.1260 ha        1 R35      0.102500
     19 H8          2.8630    2.5190    1.8570 hc        1 R35      0.027033
     20 H9          1.4390    1.4120    2.1430 hc        1 R35      0.027033
     21 H10         1.3170    2.7680    0.9460 hc        1 R35      0.027033
     22 H11         2.8600   -1.2660   -1.1230 hc        1 R35      0.028700
     23 H12         1.1180   -1.5970   -1.4550 hc        1 R35      0.028700
     24 O4          0.2000   -0.4570    1.8720 o         1 R35     -0.875800
@<TRIPOS>BOND
     1    1    2 1   
     2    1    3 1   
     3    1   24 1   
     4    3    4 1   
     5    3    8 1   
     6    3   12 1   
     7    4    6 2   
     8    4    7 1   
     9    5   13 1   
    10    5   14 1   
    11    5   15 1   
    12    5   16 1   
    13    6   17 1   
    14    6   18 1   
    15    7   19 1   
    16    7   20 1   
    17    7   21 1   
    18    8    9 1   
    19    8   22 1   
    20    8   23 1   
    21    9   10 1   
    22    9   11 1   
@<TRIPOS>SUBSTRUCTURE
     1 R35         1 TEMP              0 ****  ****    0 ROOT
