@<TRIPOS>MOLECULE
R36
   80    74     1     0     0
SMALL
bcc


@<TRIPOS>ATOM
      1 C          -3.7940   -2.5520    6.1920 c1        1 R36     -0.062000
      2 C8         -2.5450   -2.7850    5.6080 c1        1 R36      0.037000
      3 C9         -1.4120   -2.8540    6.4000 c1        1 R36     -0.076000
      4 C10        -1.5130   -2.6920    7.7790 c1        1 R36     -0.132000
      5 C13        -2.7530   -2.4610    8.3610 c1        1 R36     -0.132000
      6 C14        -3.8980   -2.3900    7.5630 c1        1 R36     -0.130000
      7 C3         -0.0310   -3.1400    5.7560 c3        1 R36     -0.184000
      8 C2         -5.0960   -2.5890    5.3010 c3        1 R36     -0.177000
      9 C16         4.1860    3.6460   -1.6040 c1        1 R36     -0.080000
     10 C26         5.1650    2.7940   -2.0590 c1        1 R36     -0.153000
     11 C27         6.4900    3.2320   -2.1290 c1        1 R36     -0.132000
     12 C28         6.8170    4.5290   -1.7390 c1        1 R36     -0.132000
     13 C29         5.8330    5.3800   -1.2830 c1        1 R36      0.055000
     14 N1          6.1710    6.6690   -0.8560 n3        1 R36     -0.328000
     15 C30         4.5200    4.9510   -1.2120 c1        1 R36     -0.143000
     16 O1         -2.4380   -2.9480    4.1870 os        1 R36     -0.231000
     17 C34        -2.5140   -1.7240    3.4480 c3        1 R36     -0.043000
     18 C25        -1.8800   -1.9330    2.0280 c2        1 R36      0.301000
     19 O26        -1.3440   -2.9730    1.7600 o         1 R36     -0.384000
     20 N16        -2.0200   -0.8890    0.9980 n         1 R36     -0.331000
     21 C15        -0.5580    0.4090   -0.4290 c3        1 R36      0.015000
     22 O14        -0.1900    0.9460    0.7680 oh        1 R36     -0.330000
     23 C12         0.7160    0.2290   -1.3380 c3        1 R36     -0.213000
     24 C4          0.9560    1.4990   -2.1480 c3        1 R36      0.026000
     25 C5          0.5980    1.2560   -3.5910 c3        1 R36     -0.163000
     26 C6         -0.0950    2.5180   -4.1660 c3        1 R36     -0.109000
     27 C11         0.4960    2.8420   -5.5390 c3        1 R36     -0.210500
     28 C7         -1.6220    2.2550   -4.3040 c3        1 R36     -0.210500
     29 N3          2.3630    1.8780   -2.0480 n         1 R36     -0.377000
     30 C1          2.7220    3.1970   -1.5860 c2        1 R36      0.348000
     31 O2          1.8820    3.9170   -1.1240 o         1 R36     -0.383000
     32 C17        -1.2070   -0.9390   -0.2020 c3        1 R36     -0.015000
     33 C18        -2.0940   -1.2860   -1.3990 c3        1 R36     -0.125000
     34 C19        -1.5500   -2.5350   -2.1060 c2        1 R36     -0.066000
     35 C20        -0.3590   -2.4600   -2.8320 c2        1 R36     -0.135000
     36 C21         0.0590   -3.5530   -3.6120 c1        1 R36     -0.132000
     37 C22        -0.7240   -4.7270   -3.6600 c1        1 R36     -0.132000
     38 C23        -1.9180   -4.8060   -2.9340 c1        1 R36     -0.132000
     39 C24        -2.3370   -3.7180   -2.1570 c1        1 R36     -0.123000
     40 H101       -0.7250   -2.7410    8.3280 ha        1 R36      0.132833
     41 H131       -2.8240   -2.3460    9.3380 ha        1 R36      0.132833
     42 H141       -4.7650   -2.2290    7.9690 ha        1 R36      0.135000
     43 H31         0.6150   -3.3270    6.4480 hc        1 R36      0.089667
     44 H32         0.2500   -2.3820    5.2590 hc        1 R36      0.089667
     45 H33        -0.1020   -3.8980    5.1720 hc        1 R36      0.089667
     46 H21        -5.8610   -2.7980    5.8540 hc        1 R36      0.089333
     47 H22        -5.2270   -1.7170    4.8800 hc        1 R36      0.089333
     48 H23        -4.9990   -3.2680    4.6140 hc        1 R36      0.089333
     49 H261        4.9330    1.8790   -2.3350 ha        1 R36      0.133000
     50 H271        7.1660    2.6480   -2.4420 ha        1 R36      0.132833
     51 H281        7.7640    4.8430   -1.7900 ha        1 R36      0.132833
     52 H11         5.5170    7.2540   -0.6120 hn        1 R36      0.188500
     53 H12         7.0430    6.9040   -0.7740 hn        1 R36      0.188500
     54 H301        3.8200    5.5620   -0.8860 ha        1 R36      0.155000
     55 H341       -3.4240   -1.4670    3.3550 h1        1 R36      0.110500
     56 H342       -2.0260   -1.0240    3.9230 h1        1 R36      0.110500
     57 H161       -2.7210   -0.2750    1.0560 hn        1 R36      0.241000
     58 H151       -1.1930    1.0030   -0.8710 h1        1 R36      0.105000
     59 H14O       -0.7410    1.6260    0.9750 ho        1 R36      0.232000
     60 H121        1.5100    0.0470   -0.7640 hc        1 R36      0.099500
     61 H122        0.5770   -0.5230   -1.9470 hc        1 R36      0.099500
     62 H41         0.3920    2.2290   -1.7920 h1        1 R36      0.128000
     63 H51         1.4160    1.0650   -4.1080 hc        1 R36      0.087500
     64 H52         0.0000    0.5080   -3.6500 hc        1 R36      0.087500
     65 H61         0.0510    3.2760   -3.5600 hc        1 R36      0.091000
     66 H111       -0.0750    3.5300   -5.9970 hc        1 R36      0.075500
     67 H112        0.5270    2.0130   -6.0920 hc        1 R36      0.075500
     68 H113        1.4220    3.2010   -5.4250 hc        1 R36      0.075500
     69 H71        -1.9620    1.8800   -3.4760 hc        1 R36      0.075500
     70 H72        -2.0840    3.1030   -4.4950 hc        1 R36      0.075500
     71 H73        -1.7810    1.6220   -5.0400 hc        1 R36      0.075500
     72 HN31        3.0180    1.2610   -2.2350 hn        1 R36      0.229000
     73 H171       -0.5010   -1.6320   -0.0980 h1        1 R36      0.127000
     74 H181       -3.0130   -1.4620   -1.0860 hc        1 R36      0.089500
     75 H182       -2.1010   -0.5280   -2.0330 hc        1 R36      0.089500
     76 H201        0.1750   -1.6590   -2.8000 ha        1 R36      0.126000
     77 H211        0.9080   -3.4990   -4.1300 ha        1 R36      0.128000
     78 H221       -0.4380   -5.4710   -4.1910 ha        1 R36      0.132833
     79 H231       -2.4680   -5.6340   -2.9700 ha        1 R36      0.132833
     80 H241       -3.1500   -3.7720   -1.6620 ha        1 R36      0.155000
@<TRIPOS>BOND
     1    1    6 1   
     2    1    8 1   
     3    2    3 1   
     4    2   16 1   
     5    3    7 1   
     6    4    5 1   
     7    4   40 1   
     8    5   41 1   
     9    6   42 1   
    10    7   43 1   
    11    7   44 1   
    12    7   45 1   
    13    8   46 1   
    14    8   47 1   
    15    8   48 1   
    16    9   10 1   
    17    9   30 1   
    18   10   49 1   
    19   11   12 1   
    20   11   50 1   
    21   12   51 1   
    22   13   14 1   
    23   13   15 1   
    24   14   52 1   
    25   14   53 1   
    26   15   54 1   
    27   16   17 1   
    28   17   18 1   
    29   17   55 1   
    30   17   56 1   
    31   18   19 1   
    32   18   20 1   
    33   20   32 1   
    34   20   57 1   
    35   21   22 1   
    36   21   23 1   
    37   21   32 1   
    38   21   58 1   
    39   22   59 1   
    40   23   24 1   
    41   23   60 1   
    42   23   61 1   
    43   24   25 1   
    44   24   29 1   
    45   24   62 1   
    46   25   26 1   
    47   25   63 1   
    48   25   64 1   
    49   26   27 1   
    50   26   28 1   
    51   26   65 1   
    52   27   66 1   
    53   27   67 1   
    54   27   68 1   
    55   28   69 1   
    56   28   70 1   
    57   28   71 1   
    58   29   30 1   
    59   29   72 1   
    60   30   31 1   
    61   32   33 1   
    62   32   73 1   
    63   33   34 1   
    64   33   74 1   
    65   33   75 1   
    66   34   35 1   
    67   34   39 1   
    68   35   36 1   
    69   35   76 1   
    70   36   77 1   
    71   37   38 1   
    72   37   78 1   
    73   38   79 1   
    74   39   80 1   
@<TRIPOS>SUBSTRUCTURE
     1 R36         1 TEMP              0 ****  ****    0 ROOT
