@<TRIPOS>MOLECULE
R36
   82    84     1     0     0
SMALL
bcc


@<TRIPOS>ATOM
      1 C           0.1570    0.8510    0.6600 ca        1 R36     -0.067300
      2 C8          0.9300    0.1580   -0.2870 ca        1 R36      0.037100
      3 C9          0.8080   -1.2280   -0.4860 ca        1 R36     -0.067300
      4 C10        -0.1300   -1.9230    0.2850 ca        1 R36     -0.115000
      5 C13        -0.9120   -1.2530    1.2250 ca        1 R36     -0.088000
      6 C14        -0.7710    0.1210    1.4120 ca        1 R36     -0.115000
      7 C3          1.6380   -1.9570   -1.4710 c3        1 R36     -0.055800
      8 C2          0.2820    2.3120    0.8590 c3        1 R36     -0.055800
      9 C16         4.8060    9.0460   -4.5610 ca        1 R36     -0.149600
     10 C26         4.6170    9.9320   -3.4940 ca        1 R36     -0.168000
     11 C27         4.7750   11.3010   -3.7190 ca        1 R36     -0.065000
     12 C28         5.1170   11.7890   -4.9700 ca        1 R36     -0.142000
     13 C29         5.3060   10.9030   -6.0700 ca        1 R36      0.219600
     14 N1          5.6820   11.3730   -7.2990 nh        1 R36     -0.851200
     15 C30         5.1310    9.5130   -5.8410 ca        1 R36     -0.159000
     16 O1          1.7740    0.9030   -1.1260 os        1 R36     -0.381900
     17 C34         3.1370    0.8680   -0.7090 c3        1 R36      0.059400
     18 C25         3.9690    1.6610   -1.6950 c         1 R36      0.550100
     19 O26         5.1460    1.9600   -1.5510 o         1 R36     -0.442100
     20 N16         3.2800    2.1140   -2.9560 n4        1 R36     -0.666800
     21 C15         4.4180    4.1510   -3.9750 c3        1 R36      0.116100
     22 O14         3.2050    4.8200   -3.6520 oh        1 R36     -0.640800
     23 C12         5.4410    4.5320   -2.9100 c3        1 R36     -0.118400
     24 C4          6.0360    5.9280   -3.1290 c3        1 R36      0.140500
     25 C5          7.1490    6.1650   -2.1000 c3        1 R36     -0.113400
     26 C6          8.0470    7.3500   -2.4300 c3        1 R36     -0.072700
     27 C11         8.8440    7.7330   -1.1960 c3        1 R36     -0.101100
     28 C7          8.9870    7.0320   -3.5750 c3        1 R36     -0.101100
     29 N3          4.9820    7.0100   -3.0550 n4        1 R36     -0.689800
     30 C1          4.6390    7.6010   -4.4160 c         1 R36      0.599700
     31 O2          4.2620    6.7810   -5.2470 o         1 R36     -0.483100
     32 C17         4.1790    2.6180   -4.0460 c3        1 R36      0.098500
     33 C18         3.6030    2.2690   -5.4330 c3        1 R36     -0.048100
     34 C19         3.3030    0.8210   -5.5710 ca        1 R36     -0.172300
     35 C20         1.9810    0.3630   -5.4850 ca        1 R36     -0.129500
     36 C21         1.6950   -0.9880   -5.6730 ca        1 R36     -0.111500
     37 C22         2.7240   -1.8900   -5.9490 ca        1 R36     -0.092000
     38 C23         4.0420   -1.4380   -6.0350 ca        1 R36     -0.111500
     39 C24         4.3320   -0.0870   -5.8500 ca        1 R36     -0.129500
     40 H101       -0.2500   -3.0090    0.1430 ha        1 R36      0.158500
     41 H131       -1.6470   -1.8150    1.8260 ha        1 R36      0.163000
     42 H141       -1.3930    0.6430    2.1570 ha        1 R36      0.158500
     43 H31         2.5150   -2.4320   -0.9600 hc        1 R36      0.049367
     44 H32         1.0440   -2.7700   -1.9610 hc        1 R36      0.049367
     45 H33         2.0170   -1.2710   -2.2670 hc        1 R36      0.049367
     46 H21         0.1980    2.5710    1.9440 hc        1 R36      0.049367
     47 H22        -0.5370    2.8420    0.3100 hc        1 R36      0.049367
     48 H23         1.2620    2.6890    0.4780 hc        1 R36      0.049367
     49 H261        4.3040    9.5960   -2.4960 ha        1 R36      0.128000
     50 H271        4.6180   12.0080   -2.8850 ha        1 R36      0.168000
     51 H281        5.2390   12.8770   -5.1130 ha        1 R36      0.171000
     52 H11         5.7000   12.3500   -7.4620 hn        1 R36      0.448800
     53 H12         5.6860   10.7640   -8.0790 hn        1 R36      0.448800
     54 H301        5.2480    8.7950   -6.6690 ha        1 R36      0.159000
     55 H341        3.2520    1.3350    0.3090 h1        1 R36      0.122200
     56 H342        3.5200   -0.1930   -0.6960 h1        1 R36      0.122200
     57 H161        2.7320    1.3070   -3.3150 hn        1 R36      0.485300
     58 H151        4.7910    4.4730   -4.9920 h1        1 R36      0.103700
     59 H14O        2.7630    5.0500   -4.4830 ho        1 R36      0.453000
     60 H121        4.9780    4.4610   -1.8900 hc        1 R36      0.096200
     61 H122        6.2910    3.7950   -2.9410 hc        1 R36      0.096200
     62 H41         6.4840    5.9800   -4.1690 hx        1 R36      0.116700
     63 H51         7.7830    5.2360   -2.0680 hc        1 R36      0.083200
     64 H52         6.7060    6.2930   -1.0760 hc        1 R36      0.083200
     65 H61         7.4170    8.2360   -2.7240 hc        1 R36      0.032700
     66 H111        9.5170    8.5940   -1.4300 hc        1 R36      0.052867
     67 H112        9.4750    6.8770   -0.8550 hc        1 R36      0.052867
     68 H113        8.1650    8.0310   -0.3620 hc        1 R36      0.052867
     69 H71         9.6320    7.9180   -3.7940 hc        1 R36      0.052867
     70 H72         9.6530    6.1740   -3.3120 hc        1 R36      0.052867
     71 H73         8.4210    6.7730   -4.5020 hc        1 R36      0.052867
     72 HN31        5.3180    7.7600   -2.4370 hn        1 R36      0.466300
     73 H171        5.1750    2.0920   -3.9290 hx        1 R36      0.125700
     74 H181        4.3730    2.5680   -6.1960 hc        1 R36      0.084700
     75 H182        2.6820    2.8840   -5.6220 hc        1 R36      0.084700
     76 H201        1.1570    1.0730   -5.3110 ha        1 R36      0.136000
     77 H211        0.6520   -1.3400   -5.6220 ha        1 R36      0.161000
     78 H221        2.4950   -2.9560   -6.1120 ha        1 R36      0.164000
     79 H231        4.8540   -2.1470   -6.2680 ha        1 R36      0.161000
     80 H241        5.3700    0.2670   -5.9460 ha        1 R36      0.136000
     81 H162        2.6060    2.8520   -2.7000 hn        1 R36      0.485300
     82 H321        4.1210    6.6070   -2.6610 hn        1 R36      0.466300
@<TRIPOS>BOND
     1    1    2 ar  
     2    1    6 ar  
     3    1    8 1   
     4    2    3 ar  
     5    2   16 1   
     6    3    4 ar  
     7    3    7 1   
     8    4    5 ar  
     9    4   40 1   
    10    5    6 ar  
    11    5   41 1   
    12    6   42 1   
    13    7   43 1   
    14    7   44 1   
    15    7   45 1   
    16    8   46 1   
    17    8   47 1   
    18    8   48 1   
    19    9   10 ar  
    20    9   15 ar  
    21    9   30 1   
    22   10   11 ar  
    23   10   49 1   
    24   11   12 ar  
    25   11   50 1   
    26   12   13 ar  
    27   12   51 1   
    28   13   14 1   
    29   13   15 ar  
    30   14   52 1   
    31   14   53 1   
    32   15   54 1   
    33   16   17 1   
    34   17   18 1   
    35   17   55 1   
    36   17   56 1   
    37   18   19 2   
    38   18   20 1   
    39   20   32 1   
    40   20   57 1   
    41   20   81 1   
    42   21   22 1   
    43   21   23 1   
    44   21   32 1   
    45   21   58 1   
    46   22   59 1   
    47   23   24 1   
    48   23   60 1   
    49   23   61 1   
    50   24   25 1   
    51   24   29 1   
    52   24   62 1   
    53   25   26 1   
    54   25   63 1   
    55   25   64 1   
    56   26   27 1   
    57   26   28 1   
    58   26   65 1   
    59   27   66 1   
    60   27   67 1   
    61   27   68 1   
    62   28   69 1   
    63   28   70 1   
    64   28   71 1   
    65   29   30 1   
    66   29   72 1   
    67   29   82 1   
    68   30   31 2   
    69   32   33 1   
    70   32   73 1   
    71   33   34 1   
    72   33   74 1   
    73   33   75 1   
    74   34   35 ar  
    75   34   39 ar  
    76   35   36 ar  
    77   35   76 1   
    78   36   37 ar  
    79   36   77 1   
    80   37   38 ar  
    81   37   78 1   
    82   38   39 ar  
    83   38   79 1   
    84   39   80 1   
@<TRIPOS>SUBSTRUCTURE
     1 R36         1 TEMP              0 ****  ****    0 ROOT
