@<TRIPOS>MOLECULE
R36
   82    84     1     0     0
SMALL
bcc


@<TRIPOS>ATOM
      1 C           0.0310    0.8760    0.5320 ca        1 R36     -0.067300
      2 C8          0.8660    0.1710   -0.3510 ca        1 R36      0.037100
      3 C9          0.7800   -1.2220   -0.5150 ca        1 R36     -0.067300
      4 C10        -0.1860   -1.9120    0.2260 ca        1 R36     -0.115000
      5 C13        -1.0290   -1.2310    1.1030 ca        1 R36     -0.088000
      6 C14        -0.9220    0.1500    1.2560 ca        1 R36     -0.115000
      7 C3          1.6730   -1.9630   -1.4330 c3        1 R36     -0.055800
      8 C2          0.1190    2.3450    0.6940 c3        1 R36     -0.055800
      9 C16         4.7680    9.0180   -4.6690 ca        1 R36     -0.149600
     10 C26         4.4970    9.9280   -3.6400 ca        1 R36     -0.168000
     11 C27         4.6310   11.2930   -3.8960 ca        1 R36     -0.065000
     12 C28         5.0320   11.7560   -5.1390 ca        1 R36     -0.142000
     13 C29         5.3060   10.8450   -6.2000 ca        1 R36      0.219600
     14 N1          5.7400   11.2910   -7.4190 nv        1 R36     -0.851200
     15 C30         5.1540    9.4580   -5.9420 ca        1 R36     -0.159000
     16 O1          1.7400    0.9080   -1.1670 os        1 R36     -0.381900
     17 C34         3.0790    0.9120   -0.6770 c3        1 R36      0.059400
     18 C25         3.9460    1.6970   -1.6380 c         1 R36      0.550100
     19 O26         5.1060    2.0280   -1.4380 o         1 R36     -0.441100
     20 N16         3.3200    2.0970   -2.9490 ny        1 R36     -0.666800
     21 C15         4.4650    4.1320   -3.9630 c3        1 R36      0.116100
     22 O14         3.2210    4.7800   -3.7280 oh        1 R36     -0.640800
     23 C12         5.4170    4.5690   -2.8540 c3        1 R36     -0.118400
     24 C4          5.9910    5.9730   -3.0800 c3        1 R36      0.140500
     25 C5          7.0390    6.2660   -1.9980 c3        1 R36     -0.113400
     26 C6          7.9260    7.4640   -2.3130 c3        1 R36     -0.072700
     27 C11         8.6430    7.9010   -1.0490 c3        1 R36     -0.101100
     28 C7          8.9350    7.1370   -3.3940 c3        1 R36     -0.101100
     29 N3          4.9090    7.0300   -3.0970 ny        1 R36     -0.689800
     30 C1          4.6300    7.5740   -4.4920 c         1 R36      0.599700
     31 O2          4.3210    6.7210   -5.3190 o         1 R36     -0.483100
     32 C17         4.2660    2.5930   -4.0020 c3        1 R36      0.098500
     33 C18         3.7770    2.1910   -5.4070 c3        1 R36     -0.048100
     34 C19         3.5200    0.7320   -5.5180 ca        1 R36     -0.172300
     35 C20         2.2060    0.2440   -5.4920 ca        1 R36     -0.129500
     36 C21         1.9630   -1.1190   -5.6560 ca        1 R36     -0.111500
     37 C22         3.0270   -2.0020   -5.8460 ca        1 R36     -0.092000
     38 C23         4.3370   -1.5200   -5.8730 ca        1 R36     -0.111500
     39 C24         4.5840   -0.1580   -5.7120 ca        1 R36     -0.129500
     40 H101       -0.2780   -3.0040    0.1100 ha        1 R36      0.158500
     41 H131       -1.7840   -1.7890    1.6810 ha        1 R36      0.163000
     42 H141       -1.5920    0.6820    1.9510 ha        1 R36      0.158500
     43 H31         2.5300   -2.4070   -0.8630 hc        1 R36      0.049367
     44 H32         2.0820   -1.2920   -2.2280 hc        1 R36      0.049367
     45 H33         1.1200   -2.8000   -1.9290 hc        1 R36      0.049367
     46 H21        -0.0280    2.6330    1.7650 hc        1 R36      0.049367
     47 H22        -0.6790    2.8430    0.0870 hc        1 R36      0.049367
     48 H23         1.1120    2.7300    0.3540 hc        1 R36      0.049367
     49 H261        4.1350    9.6110   -2.6520 ha        1 R36      0.128000
     50 H271        4.4100   12.0180   -3.0930 ha        1 R36      0.168000
     51 H281        5.1340   12.8420   -5.3070 ha        1 R36      0.171000
     52 H11         5.8040   10.6610   -8.1800 hn        1 R36      0.448800
     53 H12         5.7420   12.2640   -7.6100 hn        1 R36      0.448800
     54 H301        5.3360    8.7210   -6.7400 ha        1 R36      0.159000
     55 H341        3.1300    1.4080    0.3330 h1        1 R36      0.122200
     56 H342        3.4810   -0.1390   -0.6150 h1        1 R36      0.122200
     57 H161        2.6150    2.8250   -2.7520 hn        1 R36      0.485300
     58 H151        4.8870    4.4350   -4.9660 h1        1 R36      0.103700
     59 H14O        2.8210    4.9750   -4.5880 ho        1 R36      0.453000
     60 H121        4.8990    4.5150   -1.8600 hc        1 R36      0.096200
     61 H122        6.2840    3.8530   -2.8160 hc        1 R36      0.096200
     62 H41         6.4950    6.0060   -4.0950 hx        1 R36      0.116700
     63 H51         7.6920    5.3550   -1.9040 hc        1 R36      0.083200
     64 H52         6.5360    6.4110   -1.0050 hc        1 R36      0.083200
     65 H61         7.2920    8.3250   -2.6680 hc        1 R36      0.032700
     66 H111        9.2740    7.0710   -0.6480 hc        1 R36      0.052867
     67 H112        7.9120    8.2060   -0.2630 hc        1 R36      0.052867
     68 H113        9.3080    8.7710   -1.2700 hc        1 R36      0.052867
     69 H71         9.5710    8.0330   -3.6040 hc        1 R36      0.052867
     70 H72         8.4290    6.8380   -4.3430 hc        1 R36      0.052867
     71 H73         9.6060    6.3040   -3.0700 hc        1 R36      0.052867
     72 HN31        4.0370    6.6160   -2.7390 hn        1 R36      0.466300
     73 H171        5.2660    2.0950   -3.8140 hx        1 R36      0.125700
     74 H181        4.5830    2.4870   -6.1350 hc        1 R36      0.084700
     75 H182        2.8550    2.7770   -5.6650 hc        1 R36      0.084700
     76 H201        1.3580    0.9370   -5.3860 ha        1 R36      0.136000
     77 H211        0.9270   -1.4960   -5.6520 ha        1 R36      0.161000
     78 H221        2.8320   -3.0780   -5.9910 ha        1 R36      0.164000
     79 H231        5.1760   -2.2150   -6.0380 ha        1 R36      0.161000
     80 H241        5.6170    0.2200   -5.7610 ha        1 R36      0.136000
     81 H162        2.8110    1.2670   -3.3130 hn        1 R36      0.485300
     82 H321        5.1920    7.8050   -2.4840 hn        1 R36      0.466300
@<TRIPOS>BOND
     1    1    2 ar  
     2    1    6 ar  
     3    1    8 1   
     4    2    3 ar  
     5    2   16 1   
     6    3    4 ar  
     7    3    7 1   
     8    4    5 ar  
     9    4   40 1   
    10    5    6 ar  
    11    5   41 1   
    12    6   42 1   
    13    7   43 1   
    14    7   44 1   
    15    7   45 1   
    16    8   46 1   
    17    8   47 1   
    18    8   48 1   
    19    9   10 ar  
    20    9   15 ar  
    21    9   30 1   
    22   10   11 ar  
    23   10   49 1   
    24   11   12 ar  
    25   11   50 1   
    26   12   13 ar  
    27   12   51 1   
    28   13   14 1   
    29   13   15 ar  
    30   14   52 1   
    31   14   53 1   
    32   15   54 1   
    33   16   17 1   
    34   17   18 1   
    35   17   55 1   
    36   17   56 1   
    37   18   19 2   
    38   18   20 1   
    39   20   32 1   
    40   20   57 1   
    41   20   81 1   
    42   21   22 1   
    43   21   23 1   
    44   21   32 1   
    45   21   58 1   
    46   22   59 1   
    47   23   24 1   
    48   23   60 1   
    49   23   61 1   
    50   24   25 1   
    51   24   29 1   
    52   24   62 1   
    53   25   26 1   
    54   25   63 1   
    55   25   64 1   
    56   26   27 1   
    57   26   28 1   
    58   26   65 1   
    59   27   66 1   
    60   27   67 1   
    61   27   68 1   
    62   28   69 1   
    63   28   70 1   
    64   28   71 1   
    65   29   30 1   
    66   29   72 1   
    67   29   82 1   
    68   30   31 2   
    69   32   33 1   
    70   32   73 1   
    71   33   34 1   
    72   33   74 1   
    73   33   75 1   
    74   34   35 ar  
    75   34   39 ar  
    76   35   36 ar  
    77   35   76 1   
    78   36   37 ar  
    79   36   77 1   
    80   37   38 ar  
    81   37   78 1   
    82   38   39 ar  
    83   38   79 1   
    84   39   80 1   
@<TRIPOS>SUBSTRUCTURE
     1 R36         1 TEMP              0 ****  ****    0 ROOT
