@<TRIPOS>MOLECULE
R36
   80    82     1     0     0
SMALL
bcc


@<TRIPOS>ATOM
      1 C          -4.9500    2.9800   -0.9650 ca        1 R36     -0.075800
      2 C8         -5.0210    1.8390   -0.1450 ca        1 R36      0.080100
      3 C9         -6.2380    1.4060    0.4110 ca        1 R36     -0.075800
      4 C10        -7.3960    2.1400    0.1300 ca        1 R36     -0.128500
      5 C13        -7.3400    3.2730   -0.6790 ca        1 R36     -0.122000
      6 C14        -6.1280    3.6890   -1.2240 ca        1 R36     -0.128500
      7 C3         -6.3120    0.2050    1.2730 c3        1 R36     -0.055800
      8 C2         -3.6690    3.4160   -1.5660 c3        1 R36     -0.055800
      9 C16         5.1640   -0.5060   -1.3620 ca        1 R36     -0.102600
     10 C26         4.3020   -0.4860   -2.4620 ca        1 R36     -0.152000
     11 C27         4.8400   -0.5360   -3.7470 ca        1 R36     -0.103000
     12 C28         6.2140   -0.6000   -3.9440 ca        1 R36     -0.174000
     13 C29         7.0950   -0.6170   -2.8370 ca        1 R36      0.128600
     14 N1          8.4820   -0.5910   -3.0250 nh        1 R36     -0.816200
     15 C30         6.5440   -0.5800   -1.5350 ca        1 R36     -0.142000
     16 O1         -3.8680    1.0720    0.0240 os        1 R36     -0.355900
     17 C34        -3.2250    1.3100    1.2820 c3        1 R36      0.056400
     18 C25        -2.0430    0.3600    1.4540 c         1 R36      0.652100
     19 O26        -1.5770    0.1990    2.6010 o         1 R36     -0.611100
     20 N16        -1.4650   -0.2170    0.3410 n         1 R36     -0.542900
     21 C15         0.9820   -0.7130    0.2320 c3        1 R36      0.131100
     22 O14         1.1520   -0.2410   -1.0960 oh        1 R36     -0.610800
     23 C12         1.3550    0.3520    1.2550 c3        1 R36     -0.138400
     24 C4          2.8700    0.4180    1.5260 c3        1 R36      0.094700
     25 C5          3.1180    1.6340    2.4360 c3        1 R36     -0.078400
     26 C6          4.5430    1.7420    2.9530 c3        1 R36     -0.063700
     27 C11         4.6960    3.0250    3.7470 c3        1 R36     -0.095600
     28 C7          4.9280    0.5490    3.8030 c3        1 R36     -0.095600
     29 N3          3.6490    0.4560    0.3060 n         1 R36     -0.545900
     30 C1          4.6250   -0.4850    0.0320 c         1 R36      0.666700
     31 O2          5.0710   -1.2470    0.9160 o         1 R36     -0.613100
     32 C17        -0.4580   -1.2490    0.4690 c3        1 R36      0.064700
     33 C18        -0.6830   -2.4250   -0.5000 c3        1 R36     -0.054100
     34 C19        -2.0250   -3.0450   -0.3500 ca        1 R36     -0.090300
     35 C20        -3.0450   -2.7620   -1.2660 ca        1 R36     -0.124500
     36 C21        -4.2970   -3.3600   -1.1320 ca        1 R36     -0.126000
     37 C22        -4.5410   -4.2450   -0.0820 ca        1 R36     -0.130000
     38 C23        -3.5290   -4.5310    0.8350 ca        1 R36     -0.126000
     39 C24        -2.2770   -3.9350    0.7020 ca        1 R36     -0.124500
     40 H101       -8.3580    1.8130    0.5540 ha        1 R36      0.136500
     41 H131       -8.2580    3.8410   -0.8890 ha        1 R36      0.135000
     42 H141       -6.0900    4.5830   -1.8640 ha        1 R36      0.136500
     43 H31        -7.2790   -0.3340    1.1170 hc        1 R36      0.049867
     44 H32        -5.4730   -0.4990    1.0490 hc        1 R36      0.049867
     45 H33        -6.2480    0.5010    2.3510 hc        1 R36      0.049867
     46 H21        -3.5470    2.9510   -2.5770 hc        1 R36      0.049867
     47 H22        -3.6410    4.5270   -1.6830 hc        1 R36      0.049867
     48 H23        -2.8040    3.0980   -0.9320 hc        1 R36      0.049867
     49 H261        3.2090   -0.4530   -2.3200 ha        1 R36      0.153000
     50 H271        4.1680   -0.5270   -4.6180 ha        1 R36      0.132000
     51 H281        6.6140   -0.6320   -4.9680 ha        1 R36      0.133000
     52 H11         8.7840   -0.9730   -3.8940 hn        1 R36      0.389300
     53 H12         9.0050   -0.9300   -2.2470 hn        1 R36      0.389300
     54 H301        7.1940   -0.6150   -0.6460 ha        1 R36      0.151000
     55 H341       -3.9490    1.1320    2.1220 h1        1 R36      0.072200
     56 H342       -2.8440    2.3650    1.3170 h1        1 R36      0.072200
     57 H161       -1.9990   -0.2230   -0.5010 hn        1 R36      0.323500
     58 H151        1.6880   -1.5910    0.2980 h1        1 R36      0.087700
     59 H14O        0.5810    0.5280   -1.2100 ho        1 R36      0.403000
     60 H121        0.8370    0.1350    2.2270 hc        1 R36      0.068200
     61 H122        0.9920    1.3520    0.8990 hc        1 R36      0.068200
     62 H41         3.1690   -0.5130    2.0990 h1        1 R36      0.085700
     63 H51         2.4160    1.5480    3.3080 hc        1 R36      0.042700
     64 H52         2.8590    2.5750    1.8840 hc        1 R36      0.042700
     65 H61         5.2450    1.7880    2.0730 hc        1 R36      0.056700
     66 H111        5.7490    3.1370    4.1000 hc        1 R36      0.035367
     67 H112        4.4360    3.9090    3.1170 hc        1 R36      0.035367
     68 H113        4.0240    3.0150    4.6390 hc        1 R36      0.035367
     69 H71         5.0210   -0.3680    3.1680 hc        1 R36      0.035367
     70 H72         5.9110    0.7310    4.3000 hc        1 R36      0.035367
     71 H73         4.1620    0.3640    4.5950 hc        1 R36      0.035367
     72 HN31        3.2270    0.9230   -0.4650 hn        1 R36      0.311500
     73 H171       -0.4870   -1.6480    1.5300 h1        1 R36      0.085700
     74 H181       -0.5290   -2.0660   -1.5540 hc        1 R36      0.066200
     75 H182        0.1110   -3.1910   -0.2900 hc        1 R36      0.066200
     76 H201       -2.8570   -2.0660   -2.0970 ha        1 R36      0.132000
     77 H211       -5.0930   -3.1320   -1.8570 ha        1 R36      0.133000
     78 H221       -5.5280   -4.7180    0.0210 ha        1 R36      0.132000
     79 H231       -3.7190   -5.2290    1.6630 ha        1 R36      0.133000
     80 H241       -1.4800   -4.1620    1.4260 ha        1 R36      0.132000
@<TRIPOS>BOND
     1    1    2 ar  
     2    1    6 ar  
     3    1    8 1   
     4    2    3 ar  
     5    2   16 1   
     6    3    4 ar  
     7    3    7 1   
     8    4    5 ar  
     9    4   40 1   
    10    5    6 ar  
    11    5   41 1   
    12    6   42 1   
    13    7   43 1   
    14    7   44 1   
    15    7   45 1   
    16    8   46 1   
    17    8   47 1   
    18    8   48 1   
    19    9   10 ar  
    20    9   15 ar  
    21    9   30 1   
    22   10   11 ar  
    23   10   49 1   
    24   11   12 ar  
    25   11   50 1   
    26   12   13 ar  
    27   12   51 1   
    28   13   14 1   
    29   13   15 ar  
    30   14   52 1   
    31   14   53 1   
    32   15   54 1   
    33   16   17 1   
    34   17   18 1   
    35   17   55 1   
    36   17   56 1   
    37   18   19 2   
    38   18   20 1   
    39   20   32 1   
    40   20   57 1   
    41   21   22 1   
    42   21   23 1   
    43   21   32 1   
    44   21   58 1   
    45   22   59 1   
    46   23   24 1   
    47   23   60 1   
    48   23   61 1   
    49   24   25 1   
    50   24   29 1   
    51   24   62 1   
    52   25   26 1   
    53   25   63 1   
    54   25   64 1   
    55   26   27 1   
    56   26   28 1   
    57   26   65 1   
    58   27   66 1   
    59   27   67 1   
    60   27   68 1   
    61   28   69 1   
    62   28   70 1   
    63   28   71 1   
    64   29   30 1   
    65   29   72 1   
    66   30   31 2   
    67   32   33 1   
    68   32   73 1   
    69   33   34 1   
    70   33   74 1   
    71   33   75 1   
    72   34   35 ar  
    73   34   39 ar  
    74   35   36 ar  
    75   35   76 1   
    76   36   37 ar  
    77   36   77 1   
    78   37   38 ar  
    79   37   78 1   
    80   38   39 ar  
    81   38   79 1   
    82   39   80 1   
@<TRIPOS>SUBSTRUCTURE
     1 R36         1 TEMP              0 ****  ****    0 ROOT
