@<TRIPOS>MOLECULE
R36
   83    85     1     0     0
SMALL
bcc


@<TRIPOS>ATOM
      1 C          -0.0820    1.0010    0.5500 ca        1 R36     -0.068300
      2 C8          0.7540    0.2760   -0.3160 ca        1 R36      0.031100
      3 C9          0.6710   -1.1210   -0.4460 ca        1 R36     -0.068300
      4 C10        -0.2950   -1.7950    0.3100 ca        1 R36     -0.112500
      5 C13        -1.1400   -1.0930    1.1690 ca        1 R36     -0.082000
      6 C14        -1.0360    0.2910    1.2890 ca        1 R36     -0.112500
      7 C3          1.5690   -1.8830   -1.3410 c3        1 R36     -0.054800
      8 C2          0.0050    2.4730    0.6810 c3        1 R36     -0.054800
      9 C16         5.0820    9.3720   -4.4070 ca        1 R36     -0.167600
     10 C26         4.2190    9.8280   -3.4020 ca        1 R36     -0.043000
     11 C27         4.0280   11.1990   -3.2160 ca        1 R36     -0.086000
     12 C28         4.6810   12.1290   -4.0230 ca        1 R36     -0.034000
     13 C29         5.5390   11.6680   -5.0430 ca        1 R36     -0.050400
     14 N1          6.2100   12.6440   -5.9050 n4        1 R36     -0.710000
     15 C30         5.7440   10.2940   -5.2390 ca        1 R36     -0.026000
     16 O1          1.6280    0.9940   -1.1490 os        1 R36     -0.384900
     17 C34         2.9660    1.0120   -0.6570 c3        1 R36      0.061400
     18 C25         3.8300    1.7670   -1.6450 c         1 R36      0.558100
     19 O26         4.9600    2.1880   -1.4430 o         1 R36     -0.451100
     20 N16         3.2350    2.0200   -3.0120 n4        1 R36     -0.672800
     21 C15         4.4400    3.9040   -4.2460 c3        1 R36      0.114100
     22 O14         3.2140    4.6240   -4.1920 oh        1 R36     -0.647800
     23 C12         5.3260    4.4810   -3.1460 c3        1 R36     -0.122400
     24 C4          5.9970    5.8020   -3.5390 c3        1 R36      0.137500
     25 C5          7.0850    6.1400   -2.5160 c3        1 R36     -0.117400
     26 C6          7.9730    7.3120   -2.9090 c3        1 R36     -0.064700
     27 C11         8.8610    7.6790   -1.7340 c3        1 R36     -0.107600
     28 C7          8.8190    6.9930   -4.1240 c3        1 R36     -0.107600
     29 N3          4.9750    6.9240   -3.6530 n4        1 R36     -0.677800
     30 C1          5.3170    7.9450   -4.7070 c         1 R36      0.565700
     31 O2          5.7600    7.5100   -5.7630 o         1 R36     -0.407100
     32 C17         4.2080    2.3770   -4.0930 c3        1 R36      0.089500
     33 C18         3.7530    1.8040   -5.4510 c3        1 R36     -0.044100
     34 C19         3.4980    0.3420   -5.3860 ca        1 R36     -0.183300
     35 C20         2.1850   -0.1420   -5.3160 ca        1 R36     -0.128500
     36 C21         1.9440   -1.5150   -5.3290 ca        1 R36     -0.108000
     37 C22         3.0110   -2.4130   -5.4110 ca        1 R36     -0.084000
     38 C23         4.3210   -1.9340   -5.4790 ca        1 R36     -0.108000
     39 C24         4.5650   -0.5620   -5.4680 ca        1 R36     -0.128500
     40 H101       -0.3860   -2.8900    0.2220 ha        1 R36      0.162000
     41 H131       -1.8960   -1.6390    1.7600 ha        1 R36      0.168000
     42 H141       -1.7070    0.8380    1.9720 ha        1 R36      0.162000
     43 H31         1.9650   -1.2370   -2.1630 hc        1 R36      0.048533
     44 H32         2.4340   -2.2960   -0.7600 hc        1 R36      0.048533
     45 H33         1.0250   -2.7450   -1.8030 hc        1 R36      0.048533
     46 H21        -0.8120    2.9560    0.0880 hc        1 R36      0.048533
     47 H22        -0.1130    2.7800    1.7510 hc        1 R36      0.048533
     48 H23         0.9860    2.8550    0.3070 hc        1 R36      0.048533
     49 H261        3.6560    9.1370   -2.7530 ha        1 R36      0.162000
     50 H271        3.3460   11.5570   -2.4190 ha        1 R36      0.209000
     51 H281        4.5090   13.2090   -3.8510 ha        1 R36      0.198000
     52 H11         5.5050   13.2000   -6.4130 hn        1 R36      0.484133
     53 H12         6.8160   12.1720   -6.5890 hn        1 R36      0.484133
     54 H301        6.4080    9.9130   -6.0400 ha        1 R36      0.191000
     55 H341        3.0180    1.5400    0.3360 h1        1 R36      0.126700
     56 H342        3.3700   -0.0370   -0.5630 h1        1 R36      0.126700
     57 H161        2.7290    1.1510   -3.2880 hn        1 R36      0.485300
     58 H151        4.9310    4.0530   -5.2530 h1        1 R36      0.091700
     59 H14O        2.7040    4.4130   -4.9880 ho        1 R36      0.452000
     60 H121        4.7350    4.6000   -2.1990 hc        1 R36      0.108200
     61 H122        6.1500    3.7430   -2.9260 hc        1 R36      0.108200
     62 H41         6.4700    5.6880   -4.5640 hx        1 R36      0.132700
     63 H51         7.7360    5.2260   -2.4080 hc        1 R36      0.093700
     64 H52         6.6240    6.3300   -1.5090 hc        1 R36      0.093700
     65 H61         7.3210    8.2010   -3.1480 hc        1 R36     -0.001300
     66 H111        9.5070    8.5510   -2.0000 hc        1 R36      0.058033
     67 H112        8.2480    7.9480   -0.8410 hc        1 R36      0.058033
     68 H113        9.5270    6.8230   -1.4640 hc        1 R36      0.058033
     69 H71         9.5430    7.8230   -4.3150 hc        1 R36      0.058033
     70 H72         9.4090    6.0580   -3.9630 hc        1 R36      0.058033
     71 H73         8.1830    6.8650   -5.0340 hc        1 R36      0.058033
     72 HN31        4.0600    6.5060   -3.8960 hn        1 R36      0.471800
     73 H171        5.1970    1.8940   -3.8210 hx        1 R36      0.132700
     74 H181        2.8360    2.3460   -5.8040 hc        1 R36      0.081200
     75 H182        4.5770    2.0070   -6.1900 hc        1 R36      0.081200
     76 H201        1.3340    0.5560   -5.2990 ha        1 R36      0.134500
     77 H211        0.9080   -1.8910   -5.2930 ha        1 R36      0.166500
     78 H221        2.8170   -3.4980   -5.4390 ha        1 R36      0.171000
     79 H231        5.1620   -2.6420   -5.5590 ha        1 R36      0.166500
     80 H241        5.5980   -0.1920   -5.5510 ha        1 R36      0.134500
     81 H13         6.7840   13.2800   -5.3320 hn        1 R36      0.484133
     82 H162        2.5300    2.7630   -2.9150 hn        1 R36      0.485300
     83 H321        4.8980    7.3830   -2.7390 hn        1 R36      0.471800
@<TRIPOS>BOND
     1    1    2 ar  
     2    1    6 ar  
     3    1    8 1   
     4    2    3 ar  
     5    2   16 1   
     6    3    4 ar  
     7    3    7 1   
     8    4    5 ar  
     9    4   40 1   
    10    5    6 ar  
    11    5   41 1   
    12    6   42 1   
    13    7   43 1   
    14    7   44 1   
    15    7   45 1   
    16    8   46 1   
    17    8   47 1   
    18    8   48 1   
    19    9   10 ar  
    20    9   15 ar  
    21    9   30 1   
    22   10   11 ar  
    23   10   49 1   
    24   11   12 ar  
    25   11   50 1   
    26   12   13 ar  
    27   12   51 1   
    28   13   14 1   
    29   13   15 ar  
    30   14   52 1   
    31   14   53 1   
    32   14   81 1   
    33   15   54 1   
    34   16   17 1   
    35   17   18 1   
    36   17   55 1   
    37   17   56 1   
    38   18   19 2   
    39   18   20 1   
    40   20   32 1   
    41   20   57 1   
    42   20   82 1   
    43   21   22 1   
    44   21   23 1   
    45   21   32 1   
    46   21   58 1   
    47   22   59 1   
    48   23   24 1   
    49   23   60 1   
    50   23   61 1   
    51   24   25 1   
    52   24   29 1   
    53   24   62 1   
    54   25   26 1   
    55   25   63 1   
    56   25   64 1   
    57   26   27 1   
    58   26   28 1   
    59   26   65 1   
    60   27   66 1   
    61   27   67 1   
    62   27   68 1   
    63   28   69 1   
    64   28   70 1   
    65   28   71 1   
    66   29   30 1   
    67   29   72 1   
    68   29   83 1   
    69   30   31 2   
    70   32   33 1   
    71   32   73 1   
    72   33   34 1   
    73   33   74 1   
    74   33   75 1   
    75   34   35 ar  
    76   34   39 ar  
    77   35   36 ar  
    78   35   76 1   
    79   36   37 ar  
    80   36   77 1   
    81   37   38 ar  
    82   37   78 1   
    83   38   39 ar  
    84   38   79 1   
    85   39   80 1   
@<TRIPOS>SUBSTRUCTURE
     1 R36         1 TEMP              0 ****  ****    0 ROOT
