@<TRIPOS>MOLECULE
R37
   83    85     1     0     0
SMALL
bcc


@<TRIPOS>ATOM
      1 C          -0.2360    0.7420    0.4970 ca        1 R37     -0.068300
      2 C8          0.6750    0.0450   -0.3150 ca        1 R37      0.032100
      3 C9          0.6870   -1.3580   -0.3970 ca        1 R37     -0.068300
      4 C10        -0.2590   -2.0680    0.3520 ca        1 R37     -0.112500
      5 C13        -1.1760   -1.3950    1.1580 ca        1 R37     -0.082000
      6 C14        -1.1660   -0.0040    1.2300 ca        1 R37     -0.112500
      7 C3          1.6630   -2.0900   -1.2350 c3        1 R37     -0.055300
      8 C2         -0.2500    2.2200    0.5750 c3        1 R37     -0.055300
      9 C16         5.0800    9.2900   -4.3860 ca        1 R37     -0.143600
     10 C26         5.9490   10.0790   -5.1580 ca        1 R37     -0.048500
     11 C27         6.0260   11.4560   -4.9480 ca        1 R37     -0.089000
     12 C28         5.2170   12.0480   -3.9640 ca        1 R37      0.005600
     13 C29         4.3470   11.2640   -3.1850 ca        1 R37     -0.089000
     14 N1          5.2670   13.4990   -3.7630 n4        1 R37     -0.717000
     15 C30         4.2840    9.8860   -3.4010 ca        1 R37     -0.048500
     16 O1          1.5270    0.7910   -1.1450 os        1 R37     -0.383900
     17 C34         2.8460    0.9100   -0.6160 c3        1 R37      0.061400
     18 C25         3.6890    1.6970   -1.5960 c         1 R37      0.557100
     19 O26         4.7920    2.1780   -1.3750 o         1 R37     -0.452100
     20 N16         3.1110    1.9040   -2.9770 n4        1 R37     -0.671800
     21 C15         4.2730    3.8130   -4.2170 c3        1 R37      0.114100
     22 O14         3.0240    4.4930   -4.1660 oh        1 R37     -0.646800
     23 C12         5.1430    4.4340   -3.1280 c3        1 R37     -0.121400
     24 C4          5.7670    5.7670   -3.5520 c3        1 R37      0.138500
     25 C5          6.8840    6.1630   -2.5770 c3        1 R37     -0.109400
     26 C6          8.1960    5.4570   -2.9130 c3        1 R37     -0.061700
     27 C11         8.8860    6.1010   -4.0970 c3        1 R37     -0.104600
     28 C7          9.1040    5.4850   -1.6990 c3        1 R37     -0.104600
     29 N3          4.7090    6.8600   -3.6430 n4        1 R37     -0.685800
     30 C1          5.0050    7.8560   -4.7360 c         1 R37      0.557700
     31 O2          5.1640    7.3900   -5.8560 o         1 R37     -0.386100
     32 C17         4.0910    2.2820   -4.0450 c3        1 R37      0.090500
     33 C18         3.6790    1.6760   -5.4040 c3        1 R37     -0.045100
     34 C19         3.4660    0.2080   -5.3250 ca        1 R37     -0.183300
     35 C20         2.1660   -0.3130   -5.2760 ca        1 R37     -0.128500
     36 C21         1.9660   -1.6930   -5.2770 ca        1 R37     -0.108000
     37 C22         3.0600   -2.5590   -5.3270 ca        1 R37     -0.085000
     38 C23         4.3560   -2.0440   -5.3740 ca        1 R37     -0.108000
     39 C24         4.5600   -0.6640   -5.3750 ca        1 R37     -0.128500
     40 H101       -0.2740   -3.1690    0.3010 ha        1 R37      0.162000
     41 H131       -1.9150   -1.9690    1.7430 ha        1 R37      0.168000
     42 H141       -1.8950    0.5200    1.8700 ha        1 R37      0.162000
     43 H31         2.0450   -1.4470   -2.0650 hc        1 R37      0.048533
     44 H32         1.1900   -3.0000   -1.6840 hc        1 R37      0.048533
     45 H33         2.5310   -2.4260   -0.6120 hc        1 R37      0.048533
     46 H21        -1.0670    2.6270   -0.0740 hc        1 R37      0.048533
     47 H22        -0.4390    2.5560    1.6250 hc        1 R37      0.048533
     48 H23         0.7220    2.6520    0.2320 hc        1 R37      0.048533
     49 H261        6.5690    9.6160   -5.9520 ha        1 R37      0.185500
     50 H271        6.7190   12.0520   -5.5740 ha        1 R37      0.194500
     51 H291        3.7000   11.7120   -2.4080 ha        1 R37      0.194500
     52 H11         5.0180   13.7370   -2.7920 hn        1 R37      0.486467
     53 H12         4.6000   13.9600   -4.4010 hn        1 R37      0.486467
     54 H301        3.5690    9.3020   -2.7960 ha        1 R37      0.185500
     55 H341        2.8320    1.4630    0.3650 h1        1 R37      0.126200
     56 H342        3.3140   -0.1080   -0.4830 h1        1 R37      0.126200
     57 H161        2.3770    2.6220   -2.9070 hn        1 R37      0.485800
     58 H151        4.7550    3.9660   -5.2270 h1        1 R37      0.092700
     59 H14O        2.5300    4.2790   -4.9710 ho        1 R37      0.452000
     60 H121        4.5510    4.5510   -2.1810 hc        1 R37      0.109700
     61 H122        5.9930    3.7310   -2.8930 hc        1 R37      0.109700
     62 H41         6.2000    5.6570   -4.5950 hx        1 R37      0.127700
     63 H51         6.5740    5.8940   -1.5310 hc        1 R37      0.069200
     64 H52         7.0680    7.2700   -2.6040 hc        1 R37      0.069200
     65 H61         7.9790    4.3800   -3.1660 hc        1 R37      0.053700
     66 H111        8.2380    6.0860   -5.0050 hc        1 R37      0.054700
     67 H112        9.1610    7.1600   -3.8680 hc        1 R37      0.054700
     68 H113        9.8280    5.5450   -4.3330 hc        1 R37      0.054700
     69 H71         9.3210    6.5360   -1.3910 hc        1 R37      0.054700
     70 H72        10.0740    4.9830   -1.9400 hc        1 R37      0.054700
     71 H73         8.6350    4.9490   -0.8390 hc        1 R37      0.054700
     72 HN31        4.6430    7.3350   -2.7380 hn        1 R37      0.470300
     73 H171        5.0910    1.8360   -3.7500 hx        1 R37      0.131700
     74 H181        2.7530    2.1870   -5.7810 hc        1 R37      0.081700
     75 H182        4.5110    1.8950   -6.1310 hc        1 R37      0.081700
     76 H201        1.2950    0.3600   -5.2840 ha        1 R37      0.134000
     77 H211        0.9410   -2.0990   -5.2580 ha        1 R37      0.166000
     78 H221        2.8990   -3.6510   -5.3470 ha        1 R37      0.171000
     79 H231        5.2200   -2.7270   -5.4290 ha        1 R37      0.166000
     80 H241        5.5840   -0.2650   -5.4420 ha        1 R37      0.134000
     81 H13         6.2140   13.8540   -3.9600 hn        1 R37      0.486467
     82 H162        2.6450    1.0120   -3.2490 hn        1 R37      0.485800
     83 H321        3.8000    6.4090   -3.8530 hn        1 R37      0.470300
@<TRIPOS>BOND
     1    1    2 ar  
     2    1    6 ar  
     3    1    8 1   
     4    2    3 ar  
     5    2   16 1   
     6    3    4 ar  
     7    3    7 1   
     8    4    5 ar  
     9    4   40 1   
    10    5    6 ar  
    11    5   41 1   
    12    6   42 1   
    13    7   43 1   
    14    7   44 1   
    15    7   45 1   
    16    8   46 1   
    17    8   47 1   
    18    8   48 1   
    19    9   10 ar  
    20    9   15 ar  
    21    9   30 1   
    22   10   11 ar  
    23   10   49 1   
    24   11   12 ar  
    25   11   50 1   
    26   12   13 ar  
    27   12   14 1   
    28   13   15 ar  
    29   13   51 1   
    30   14   52 1   
    31   14   53 1   
    32   14   81 1   
    33   15   54 1   
    34   16   17 1   
    35   17   18 1   
    36   17   55 1   
    37   17   56 1   
    38   18   19 2   
    39   18   20 1   
    40   20   32 1   
    41   20   57 1   
    42   20   82 1   
    43   21   22 1   
    44   21   23 1   
    45   21   32 1   
    46   21   58 1   
    47   22   59 1   
    48   23   24 1   
    49   23   60 1   
    50   23   61 1   
    51   24   25 1   
    52   24   29 1   
    53   24   62 1   
    54   25   26 1   
    55   25   63 1   
    56   25   64 1   
    57   26   27 1   
    58   26   28 1   
    59   26   65 1   
    60   27   66 1   
    61   27   67 1   
    62   27   68 1   
    63   28   69 1   
    64   28   70 1   
    65   28   71 1   
    66   29   30 1   
    67   29   72 1   
    68   29   83 1   
    69   30   31 2   
    70   32   33 1   
    71   32   73 1   
    72   33   34 1   
    73   33   74 1   
    74   33   75 1   
    75   34   35 ar  
    76   34   39 ar  
    77   35   36 ar  
    78   35   76 1   
    79   36   37 ar  
    80   36   77 1   
    81   37   38 ar  
    82   37   78 1   
    83   38   39 ar  
    84   38   79 1   
    85   39   80 1   
@<TRIPOS>SUBSTRUCTURE
     1 R37         1 TEMP              0 ****  ****    0 ROOT
