@<TRIPOS>MOLECULE
R37
   82    84     1     0     0
SMALL
bcc


@<TRIPOS>ATOM
      1 C          -0.1680    0.5200    0.4370 ca        1 R37     -0.067300
      2 C8          0.7400   -0.1320   -0.4140 ca        1 R37      0.038100
      3 C9          0.7400   -1.5280   -0.5850 ca        1 R37     -0.067300
      4 C10        -0.2140   -2.2750    0.1160 ca        1 R37     -0.116000
      5 C13        -1.1270   -1.6470    0.9610 ca        1 R37     -0.088000
      6 C14        -1.1060   -0.2630    1.1210 ca        1 R37     -0.116000
      7 C3          1.7100   -2.2120   -1.4680 c3        1 R37     -0.055800
      8 C2         -0.1700    1.9900    0.6050 c3        1 R37     -0.055800
      9 C16         4.8570    8.8350   -4.6770 ca        1 R37     -0.310600
     10 C26         4.4470    9.3740   -5.9270 ca        1 R37      0.009000
     11 C27         4.8150   10.6370   -6.3160 ca        1 R37     -0.231000
     12 C28         5.6350   11.4530   -5.4700 ca        1 R37      0.300600
     13 C29         6.0610   10.8930   -4.2180 ca        1 R37     -0.231000
     14 N1          5.9980   12.7010   -5.8370 nh        1 R37     -0.807200
     15 C30         5.6800    9.6280   -3.8450 ca        1 R37      0.009000
     16 O1          1.6020    0.6560   -1.1920 os        1 R37     -0.380900
     17 C34         2.9180    0.7350   -0.6490 c3        1 R37      0.059400
     18 C25         3.7770    1.5760   -1.5690 c         1 R37      0.550100
     19 O26         4.9170    1.9490   -1.3290 o         1 R37     -0.442100
     20 N16         3.1700    1.9810   -2.8860 n4        1 R37     -0.665800
     21 C15         4.2390    4.1000   -3.8040 c3        1 R37      0.117100
     22 O14         2.9600    4.6690   -3.5600 oh        1 R37     -0.640800
     23 C12         5.1560    4.5460   -2.6690 c3        1 R37     -0.119400
     24 C4          5.7060    5.9640   -2.8740 c3        1 R37      0.138500
     25 C5          6.7000    6.3020   -1.7540 c3        1 R37     -0.105400
     26 C6          8.0770    5.7000   -2.0190 c3        1 R37     -0.062700
     27 C11         8.8420    6.4980   -3.0550 c3        1 R37     -0.102100
     28 C7          8.8590    5.6490   -0.7200 c3        1 R37     -0.102100
     29 N3          4.5910    6.9820   -2.9530 n4        1 R37     -0.688800
     30 C1          4.3980    7.5130   -4.3720 c         1 R37      0.600700
     31 O2          3.8140    6.7040   -5.1010 o         1 R37     -0.541100
     32 C17         4.1190    2.5540   -3.8970 c3        1 R37      0.100500
     33 C18         3.6870    2.1750   -5.3260 c3        1 R37     -0.049100
     34 C19         3.4990    0.7100   -5.4890 ca        1 R37     -0.170300
     35 C20         2.2090    0.1630   -5.5160 ca        1 R37     -0.129000
     36 C21         2.0330   -1.2040   -5.7260 ca        1 R37     -0.112000
     37 C22         3.1410   -2.0320   -5.9110 ca        1 R37     -0.093000
     38 C23         4.4280   -1.4920   -5.8860 ca        1 R37     -0.112000
     39 C24         4.6080   -0.1250   -5.6780 ca        1 R37     -0.129000
     40 H101       -0.2390   -3.3700   -0.0060 ha        1 R37      0.158000
     41 H131       -1.8720   -2.2500    1.5060 ha        1 R37      0.162000
     42 H141       -1.8320    0.2260    1.7900 ha        1 R37      0.158000
     43 H31         2.5660   -2.6100   -0.8660 hc        1 R37      0.049533
     44 H32         2.1110   -1.5160   -2.2450 hc        1 R37      0.049533
     45 H33         1.2240   -3.0760   -1.9890 hc        1 R37      0.049533
     46 H21        -0.3810    2.2650    1.6690 hc        1 R37      0.049533
     47 H22        -0.9670    2.4450   -0.0370 hc        1 R37      0.049533
     48 H23         0.8130    2.4320    0.3110 hc        1 R37      0.049533
     49 H261        3.8150    8.7560   -6.5910 ha        1 R37      0.144000
     50 H271        4.4760   11.0290   -7.2900 ha        1 R37      0.168000
     51 H291        6.7070   11.4880   -3.5510 ha        1 R37      0.168000
     52 H11         6.5670   13.2600   -5.2440 hn        1 R37      0.462800
     53 H12         5.7000   13.0810   -6.7050 hn        1 R37      0.462800
     54 H301        6.0570    9.2450   -2.8820 ha        1 R37      0.144000
     55 H341        3.3780   -0.2920   -0.5770 h1        1 R37      0.121200
     56 H342        2.9000    1.2240    0.3650 h1        1 R37      0.121200
     57 H161        2.4240    2.6680   -2.6920 hn        1 R37      0.486300
     58 H151        4.6530    4.4580   -4.7920 h1        1 R37      0.101700
     59 H14O        2.5830    4.9390   -4.4130 ho        1 R37      0.459000
     60 H121        6.0380    3.8500   -2.6050 hc        1 R37      0.096200
     61 H122        4.6090    4.4760   -1.6910 hc        1 R37      0.096200
     62 H41         6.2490    6.0050   -3.8680 hx        1 R37      0.114700
     63 H51         6.3030    5.9130   -0.7780 hc        1 R37      0.068700
     64 H52         6.8240    7.4140   -1.6500 hc        1 R37      0.068700
     65 H61         7.9530    4.6470   -2.3970 hc        1 R37      0.047700
     66 H111        9.8400    6.0270   -3.2330 hc        1 R37      0.051533
     67 H112        9.0110    7.5450   -2.7030 hc        1 R37      0.051533
     68 H113        8.2940    6.5310   -4.0270 hc        1 R37      0.051533
     69 H71         8.9790    6.6730   -0.2910 hc        1 R37      0.051533
     70 H72         8.3390    5.0060    0.0300 hc        1 R37      0.051533
     71 H73         9.8760    5.2240   -0.9050 hc        1 R37      0.051533
     72 HN31        4.7780    7.7570   -2.3110 hn        1 R37      0.459300
     73 H171        5.1360    2.0990   -3.6960 hx        1 R37      0.123700
     74 H181        4.4970    2.5300   -6.0220 hc        1 R37      0.085200
     75 H182        2.7460    2.7270   -5.5920 hc        1 R37      0.085200
     76 H201        1.3280    0.8150   -5.4130 ha        1 R37      0.136000
     77 H211        1.0160   -1.6260   -5.7630 ha        1 R37      0.160500
     78 H221        2.9990   -3.1110   -6.0910 ha        1 R37      0.163000
     79 H231        5.3020   -2.1430   -6.0470 ha        1 R37      0.160500
     80 H241        5.6230    0.3000   -5.6860 ha        1 R37      0.136000
     81 H162        2.7140    1.1380   -3.2880 hn        1 R37      0.486300
     82 H321        3.7090    6.5270   -2.6720 hn        1 R37      0.459300
@<TRIPOS>BOND
     1    1    2 ar  
     2    1    6 ar  
     3    1    8 1   
     4    2    3 ar  
     5    2   16 1   
     6    3    4 ar  
     7    3    7 1   
     8    4    5 ar  
     9    4   40 1   
    10    5    6 ar  
    11    5   41 1   
    12    6   42 1   
    13    7   43 1   
    14    7   44 1   
    15    7   45 1   
    16    8   46 1   
    17    8   47 1   
    18    8   48 1   
    19    9   10 ar  
    20    9   15 ar  
    21    9   30 1   
    22   10   11 ar  
    23   10   49 1   
    24   11   12 ar  
    25   11   50 1   
    26   12   13 ar  
    27   12   14 1   
    28   13   15 ar  
    29   13   51 1   
    30   14   52 1   
    31   14   53 1   
    32   15   54 1   
    33   16   17 1   
    34   17   18 1   
    35   17   55 1   
    36   17   56 1   
    37   18   19 2   
    38   18   20 1   
    39   20   32 1   
    40   20   57 1   
    41   20   81 1   
    42   21   22 1   
    43   21   23 1   
    44   21   32 1   
    45   21   58 1   
    46   22   59 1   
    47   23   24 1   
    48   23   60 1   
    49   23   61 1   
    50   24   25 1   
    51   24   29 1   
    52   24   62 1   
    53   25   26 1   
    54   25   63 1   
    55   25   64 1   
    56   26   27 1   
    57   26   28 1   
    58   26   65 1   
    59   27   66 1   
    60   27   67 1   
    61   27   68 1   
    62   28   69 1   
    63   28   70 1   
    64   28   71 1   
    65   29   30 1   
    66   29   72 1   
    67   29   82 1   
    68   30   31 2   
    69   32   33 1   
    70   32   73 1   
    71   33   34 1   
    72   33   74 1   
    73   33   75 1   
    74   34   35 ar  
    75   34   39 ar  
    76   35   36 ar  
    77   35   76 1   
    78   36   37 ar  
    79   36   77 1   
    80   37   38 ar  
    81   37   78 1   
    82   38   39 ar  
    83   38   79 1   
    84   39   80 1   
@<TRIPOS>SUBSTRUCTURE
     1 R37         1 TEMP              0 ****  ****    0 ROOT
