@<TRIPOS>MOLECULE
R37
   80    82     1     0     0
SMALL
bcc


@<TRIPOS>ATOM
      1 C           4.7550    3.1990   -0.3770 ca        1 R37     -0.075800
      2 C8          4.8790    1.8060   -0.5260 ca        1 R37      0.080100
      3 C9          6.1280    1.1960   -0.7360 ca        1 R37     -0.075800
      4 C10         7.2650    2.0100   -0.7950 ca        1 R37     -0.128500
      5 C13         7.1570    3.3910   -0.6500 ca        1 R37     -0.122000
      6 C14         5.9130    3.9820   -0.4410 ca        1 R37     -0.128500
      7 C3          6.2580   -0.2710   -0.8920 c3        1 R37     -0.055800
      8 C2          3.4400    3.8320   -0.1330 c3        1 R37     -0.055800
      9 C16        -5.4570    0.2870    1.0570 ca        1 R37     -0.189600
     10 C26        -6.8510    0.3690    1.1500 ca        1 R37     -0.052500
     11 C27        -7.4530    0.9520    2.2560 ca        1 R37     -0.207000
     12 C28        -6.6630    1.4690    3.3120 ca        1 R37      0.164600
     13 C29        -5.2550    1.3590    3.2160 ca        1 R37     -0.207000
     14 N1         -7.2550    2.1350    4.3840 nh        1 R37     -0.826200
     15 C30        -4.6660    0.7800    2.0990 ca        1 R37     -0.052500
     16 O1          3.7410    1.0180   -0.3540 os        1 R37     -0.355900
     17 C34         3.1720    0.5880   -1.5970 c3        1 R37      0.056400
     18 C25         2.0050   -0.3600   -1.3390 c         1 R37      0.652100
     19 O26         1.6100   -1.0810   -2.2780 o         1 R37     -0.610100
     20 N16         1.3600   -0.3290   -0.1180 n         1 R37     -0.542900
     21 C15        -1.0890   -0.7730    0.1040 c3        1 R37      0.130100
     22 O14        -1.3320    0.2780    1.0280 oh        1 R37     -0.611800
     23 C12        -1.4060   -0.3470   -1.3240 c3        1 R37     -0.134400
     24 C4         -2.9050   -0.4580   -1.6530 c3        1 R37      0.099700
     25 C5         -3.1390    0.0580   -3.0870 c3        1 R37     -0.082400
     26 C6         -2.9040   -1.0360   -4.1200 c3        1 R37     -0.067700
     27 C11        -4.1110   -1.9460   -4.2280 c3        1 R37     -0.092600
     28 C7         -2.5890   -0.4210   -5.4680 c3        1 R37     -0.092600
     29 N3         -3.7260    0.2280   -0.6760 n         1 R37     -0.554900
     30 C1         -4.8570   -0.3630   -0.1400 c         1 R37      0.671700
     31 O2         -5.3740   -1.3700   -0.6690 o         1 R37     -0.616100
     32 C17         0.3620   -1.3190    0.2270 c3        1 R37      0.064700
     33 C18         0.5350   -1.8670    1.6560 c3        1 R37     -0.054100
     34 C19         1.8830   -2.4480    1.8900 ca        1 R37     -0.090300
     35 C20         2.8510   -1.7290    2.6000 ca        1 R37     -0.124500
     36 C21         4.1080   -2.2850    2.8340 ca        1 R37     -0.126000
     37 C22         4.4080   -3.5620    2.3600 ca        1 R37     -0.130000
     38 C23         3.4480   -4.2820    1.6500 ca        1 R37     -0.126000
     39 C24         2.1900   -3.7290    1.4160 ca        1 R37     -0.124500
     40 H101        8.2510    1.5480   -0.9550 ha        1 R37      0.136000
     41 H131        8.0590    4.0190   -0.7000 ha        1 R37      0.135000
     42 H141        5.8340    5.0730   -0.3250 ha        1 R37      0.136000
     43 H31         7.2150   -0.6330   -0.4440 hc        1 R37      0.050033
     44 H32         5.4090   -0.8010   -0.3940 hc        1 R37      0.050033
     45 H33         6.2560   -0.5430   -1.9780 hc        1 R37      0.050033
     46 H21         3.2610    3.9210    0.9690 hc        1 R37      0.050033
     47 H22         3.4000    4.8560   -0.5810 hc        1 R37      0.050033
     48 H23         2.6150    3.2160   -0.5690 hc        1 R37      0.050033
     49 H261       -7.4690   -0.0450    0.3360 ha        1 R37      0.150500
     50 H271       -8.5500    1.0120    2.3050 ha        1 R37      0.134000
     51 H291       -4.6150    1.7380    4.0270 ha        1 R37      0.134000
     52 H11        -8.2090    1.9060    4.5480 hn        1 R37      0.395800
     53 H12        -6.7020    2.1800    5.2100 hn        1 R37      0.395800
     54 H301       -3.5660    0.6960    2.0550 ha        1 R37      0.150500
     55 H341        3.9440    0.0440   -2.2040 h1        1 R37      0.072200
     56 H342        2.7920    1.4780   -2.1650 h1        1 R37      0.072200
     57 H161        1.8420    0.0970    0.6430 hn        1 R37      0.323500
     58 H151       -1.7900   -1.5910    0.4380 h1        1 R37      0.085700
     59 H14O       -0.7670    1.0200    0.7830 ho        1 R37      0.404000
     60 H121       -0.8410   -0.9950   -2.0460 hc        1 R37      0.069200
     61 H122       -1.0580    0.7080   -1.4810 hc        1 R37      0.069200
     62 H41        -3.1940   -1.5560   -1.6290 h1        1 R37      0.077700
     63 H51        -2.4530    0.9220   -3.2860 hc        1 R37      0.048700
     64 H52        -4.1900    0.4360   -3.1960 hc        1 R37      0.048700
     65 H61        -2.0170   -1.6540   -3.8000 hc        1 R37      0.047700
     66 H111       -4.9720   -1.3990   -4.6840 hc        1 R37      0.035533
     67 H112       -3.8730   -2.8270   -4.8710 hc        1 R37      0.035533
     68 H113       -4.4250   -2.3090   -3.2190 hc        1 R37      0.035533
     69 H71        -3.4160    0.2540   -5.7940 hc        1 R37      0.035533
     70 H72        -1.6450    0.1730   -5.4170 hc        1 R37      0.035533
     71 H73        -2.4620   -1.2220   -6.2360 hc        1 R37      0.035533
     72 HN31       -3.2770    0.9430   -0.1490 hn        1 R37      0.311500
     73 H171        0.4480   -2.1830   -0.5010 h1        1 R37      0.086700
     74 H181        0.3250   -1.0450    2.3920 hc        1 R37      0.066200
     75 H182       -0.2470   -2.6590    1.8100 hc        1 R37      0.066200
     76 H201        2.6190   -0.7230    2.9790 ha        1 R37      0.132000
     77 H211        4.8630   -1.7140    3.3940 ha        1 R37      0.133000
     78 H221        5.3990   -4.0000    2.5460 ha        1 R37      0.132000
     79 H231        3.6810   -5.2890    1.2740 ha        1 R37      0.133000
     80 H241        1.4340   -4.2990    0.8560 ha        1 R37      0.132000
@<TRIPOS>BOND
     1    1    2 ar  
     2    1    6 ar  
     3    1    8 1   
     4    2    3 ar  
     5    2   16 1   
     6    3    4 ar  
     7    3    7 1   
     8    4    5 ar  
     9    4   40 1   
    10    5    6 ar  
    11    5   41 1   
    12    6   42 1   
    13    7   43 1   
    14    7   44 1   
    15    7   45 1   
    16    8   46 1   
    17    8   47 1   
    18    8   48 1   
    19    9   10 ar  
    20    9   15 ar  
    21    9   30 1   
    22   10   11 ar  
    23   10   49 1   
    24   11   12 ar  
    25   11   50 1   
    26   12   13 ar  
    27   12   14 1   
    28   13   15 ar  
    29   13   51 1   
    30   14   52 1   
    31   14   53 1   
    32   15   54 1   
    33   16   17 1   
    34   17   18 1   
    35   17   55 1   
    36   17   56 1   
    37   18   19 2   
    38   18   20 1   
    39   20   32 1   
    40   20   57 1   
    41   21   22 1   
    42   21   23 1   
    43   21   32 1   
    44   21   58 1   
    45   22   59 1   
    46   23   24 1   
    47   23   60 1   
    48   23   61 1   
    49   24   25 1   
    50   24   29 1   
    51   24   62 1   
    52   25   26 1   
    53   25   63 1   
    54   25   64 1   
    55   26   27 1   
    56   26   28 1   
    57   26   65 1   
    58   27   66 1   
    59   27   67 1   
    60   27   68 1   
    61   28   69 1   
    62   28   70 1   
    63   28   71 1   
    64   29   30 1   
    65   29   72 1   
    66   30   31 2   
    67   32   33 1   
    68   32   73 1   
    69   33   34 1   
    70   33   74 1   
    71   33   75 1   
    72   34   35 ar  
    73   34   39 ar  
    74   35   36 ar  
    75   35   76 1   
    76   36   37 ar  
    77   36   77 1   
    78   37   38 ar  
    79   37   78 1   
    80   38   39 ar  
    81   38   79 1   
    82   39   80 1   
@<TRIPOS>SUBSTRUCTURE
     1 R37         1 TEMP              0 ****  ****    0 ROOT
