@<TRIPOS>MOLECULE
R37
   82    84     1     0     0
SMALL
bcc


@<TRIPOS>ATOM
      1 C           0.3810    1.0880   -0.0910 ca        1 R37     -0.069800
      2 C8          0.9040   -0.1110   -0.6090 ca        1 R37      0.033100
      3 C9          0.4210   -1.3690   -0.2160 ca        1 R37     -0.069800
      4 C10        -0.6230   -1.4090    0.7200 ca        1 R37     -0.112000
      5 C13        -1.1550   -0.2330    1.2410 ca        1 R37     -0.090000
      6 C14        -0.6570    1.0080    0.8400 ca        1 R37     -0.112000
      7 C3          0.9610   -2.6300   -0.7720 c3        1 R37     -0.051800
      8 C2          0.8960    2.4050   -0.5280 c3        1 R37     -0.051800
      9 C16         4.6810    8.7900   -4.3270 ca        1 R37     -0.310600
     10 C26         4.2610    9.4090   -5.5360 ca        1 R37      0.009000
     11 C27         4.5940   10.7080   -5.8270 ca        1 R37     -0.231000
     12 C28         5.3870   11.4820   -4.9180 ca        1 R37      0.300600
     13 C29         5.8240   10.8410   -3.7080 ca        1 R37     -0.231000
     14 N1          5.7150   12.7630   -5.1880 nv        1 R37     -0.807200
     15 C30         5.4770    9.5420   -3.4330 ca        1 R37      0.009000
     16 O1          1.8590   -0.0530   -1.6340 os        1 R37     -0.359900
     17 C34         3.2010    0.0270   -1.1780 c3        1 R37      0.066400
     18 C25         3.9060    1.1970   -1.8460 c         1 R37      0.534100
     19 O26         4.9630    1.6970   -1.4900 o         1 R37     -0.444100
     20 N16         3.2490    1.7600   -3.0810 ny        1 R37     -0.671800
     21 C15         4.2250    3.9900   -3.8260 c3        1 R37      0.117100
     22 O14         2.9230    4.4860   -3.5450 oh        1 R37     -0.640800
     23 C12         5.1190    4.3770   -2.6510 c3        1 R37     -0.119400
     24 C4          5.6160    5.8260   -2.7380 c3        1 R37      0.138500
     25 C5          6.5890    6.1100   -1.5840 c3        1 R37     -0.105400
     26 C6          7.9900    5.5840   -1.8820 c3        1 R37     -0.061700
     27 C11         8.7310    6.4890   -2.8430 c3        1 R37     -0.102100
     28 C7          8.7630    5.4580   -0.5830 c3        1 R37     -0.102100
     29 N3          4.4650    6.8060   -2.7480 ny        1 R37     -0.688800
     30 C1          4.2600    7.4360   -4.1240 c         1 R37      0.600700
     31 O2          3.7010    6.6690   -4.9150 o         1 R37     -0.541100
     32 C17         4.1670    2.4530   -4.0440 c3        1 R37      0.102500
     33 C18         3.7480    2.1720   -5.5000 c3        1 R37     -0.049100
     34 C19         3.6210    0.7180   -5.7770 ca        1 R37     -0.169300
     35 C20         2.3550    0.1210   -5.8430 ca        1 R37     -0.130000
     36 C21         2.2350   -1.2340   -6.1500 ca        1 R37     -0.111000
     37 C22         3.3760   -2.0000   -6.3940 ca        1 R37     -0.093000
     38 C23         4.6390   -1.4080   -6.3330 ca        1 R37     -0.111000
     39 C24         4.7620   -0.0530   -6.0280 ca        1 R37     -0.130000
     40 H101       -1.0210   -2.3860    1.0400 ha        1 R37      0.157500
     41 H131       -1.9750   -0.2810    1.9760 ha        1 R37      0.163000
     42 H141       -1.0880    1.9310    1.2600 ha        1 R37      0.157500
     43 H31         1.9540   -2.4670   -1.2580 hc        1 R37      0.046700
     44 H32         1.0760   -3.3980    0.0330 hc        1 R37      0.046700
     45 H33         0.2560   -3.0360   -1.5430 hc        1 R37      0.046700
     46 H21         0.5450    3.2210    0.1520 hc        1 R37      0.046700
     47 H22         0.5380    2.6340   -1.5650 hc        1 R37      0.046700
     48 H23         2.0160    2.4050   -0.5300 hc        1 R37      0.046700
     49 H261        3.6510    8.8250   -6.2480 ha        1 R37      0.144000
     50 H271        4.2480   11.1610   -6.7710 ha        1 R37      0.168000
     51 H291        6.4490   11.4040   -2.9940 ha        1 R37      0.168000
     52 H11         6.2650   13.2920   -4.5520 hn        1 R37      0.462800
     53 H12         5.4110   13.1980   -6.0280 hn        1 R37      0.462800
     54 H301        5.8610    9.0990   -2.4990 ha        1 R37      0.144000
     55 H341        3.7310   -0.9130   -1.5100 h1        1 R37      0.127700
     56 H342        3.2850    0.1530   -0.0640 h1        1 R37      0.127700
     57 H161        2.7790    0.9720   -3.5700 hn        1 R37      0.484300
     58 H151        4.6280    4.4440   -4.7780 h1        1 R37      0.100700
     59 H14O        2.5380    4.8060   -4.3760 ho        1 R37      0.459000
     60 H121        6.0250    3.7120   -2.6350 hc        1 R37      0.097200
     61 H122        4.5700    4.2090   -1.6860 hc        1 R37      0.097200
     62 H41         6.1660    5.9660   -3.7200 hx        1 R37      0.113700
     63 H51         6.1990    5.6310   -0.6470 hc        1 R37      0.068200
     64 H52         6.6700    7.2150   -1.3910 hc        1 R37      0.068200
     65 H61         7.9080    4.5590   -2.3430 hc        1 R37      0.047700
     66 H111        8.8570    7.5100   -2.4080 hc        1 R37      0.051533
     67 H112        8.1900    6.5790   -3.8150 hc        1 R37      0.051533
     68 H113        9.7480    6.0710   -3.0480 hc        1 R37      0.051533
     69 H71         9.7970    5.0870   -0.7910 hc        1 R37      0.051533
     70 H72         8.8410    6.4480   -0.0730 hc        1 R37      0.051533
     71 H73         8.2620    4.7380    0.1080 hc        1 R37      0.051533
     72 HN31        4.6200    7.5360   -2.0480 hn        1 R37      0.459300
     73 H171        5.2040    2.0270   -3.8810 hx        1 R37      0.120700
     74 H181        4.5400    2.6150   -6.1640 hc        1 R37      0.085200
     75 H182        2.7840    2.7050   -5.7210 hc        1 R37      0.085200
     76 H201        1.4470    0.7260   -5.6940 ha        1 R37      0.135500
     77 H211        1.2370   -1.6960   -6.2140 ha        1 R37      0.160500
     78 H221        3.2800   -3.0680   -6.6480 ha        1 R37      0.164000
     79 H231        5.5400   -2.0080   -6.5420 ha        1 R37      0.160500
     80 H241        5.7590    0.4140   -6.0060 ha        1 R37      0.135500
     81 H162        2.5120    2.4170   -2.7750 hn        1 R37      0.484300
     82 H321        3.5990    6.2980   -2.5100 hn        1 R37      0.459300
@<TRIPOS>BOND
     1    1    2 ar  
     2    1    6 ar  
     3    1    8 1   
     4    2    3 ar  
     5    2   16 1   
     6    3    4 ar  
     7    3    7 1   
     8    4    5 ar  
     9    4   40 1   
    10    5    6 ar  
    11    5   41 1   
    12    6   42 1   
    13    7   43 1   
    14    7   44 1   
    15    7   45 1   
    16    8   46 1   
    17    8   47 1   
    18    8   48 1   
    19    9   10 ar  
    20    9   15 ar  
    21    9   30 1   
    22   10   11 ar  
    23   10   49 1   
    24   11   12 ar  
    25   11   50 1   
    26   12   13 ar  
    27   12   14 1   
    28   13   15 ar  
    29   13   51 1   
    30   14   52 1   
    31   14   53 1   
    32   15   54 1   
    33   16   17 1   
    34   17   18 1   
    35   17   55 1   
    36   17   56 1   
    37   18   19 2   
    38   18   20 1   
    39   20   32 1   
    40   20   57 1   
    41   20   81 1   
    42   21   22 1   
    43   21   23 1   
    44   21   32 1   
    45   21   58 1   
    46   22   59 1   
    47   23   24 1   
    48   23   60 1   
    49   23   61 1   
    50   24   25 1   
    51   24   29 1   
    52   24   62 1   
    53   25   26 1   
    54   25   63 1   
    55   25   64 1   
    56   26   27 1   
    57   26   28 1   
    58   26   65 1   
    59   27   66 1   
    60   27   67 1   
    61   27   68 1   
    62   28   69 1   
    63   28   70 1   
    64   28   71 1   
    65   29   30 1   
    66   29   72 1   
    67   29   82 1   
    68   30   31 2   
    69   32   33 1   
    70   32   73 1   
    71   33   34 1   
    72   33   74 1   
    73   33   75 1   
    74   34   35 ar  
    75   34   39 ar  
    76   35   36 ar  
    77   35   76 1   
    78   36   37 ar  
    79   36   77 1   
    80   37   38 ar  
    81   37   78 1   
    82   38   39 ar  
    83   38   79 1   
    84   39   80 1   
@<TRIPOS>SUBSTRUCTURE
     1 R37         1 TEMP              0 ****  ****    0 ROOT
