@<TRIPOS>MOLECULE
R39
   70    73     1     0     0
SMALL
bcc


@<TRIPOS>ATOM
      1 CAR        -0.4250    0.5420    0.4710 c3        1 R39      0.137300
      2 CAO         1.0530    0.9230    0.6080 c3        1 R39      0.126400
      3 OAX         1.5470    0.6450    1.9130 os        1 R39     -0.415600
      4 CAP         1.3660   -0.7200    2.2730 c3        1 R39      0.126400
      5 CAS        -0.1040   -1.1440    2.1740 c3        1 R39      0.137300
      6 NBG        -0.6840   -0.8330    0.8750 n3        1 R39     -0.731600
      7 CAT        -2.0880   -1.1960    0.7800 c3        1 R39      0.171800
      8 CAQ        -2.5060   -1.6180   -0.6360 c3        1 R39      0.128400
      9 OAY        -2.2670   -3.0280   -0.7040 os        1 R39     -0.322900
     10 CBC        -2.4460   -3.6100   -1.9420 ca        1 R39      0.116100
     11 CAK        -2.0180   -4.9470   -2.0380 ca        1 R39     -0.162500
     12 CAI        -2.1790   -5.6440   -3.2260 ca        1 R39     -0.116500
     13 CAJ        -3.0250   -2.9760   -3.0460 ca        1 R39     -0.162500
     14 CAH        -3.1740   -3.6720   -4.2410 ca        1 R39     -0.116500
     15 CBB        -2.7630   -5.0170   -4.3490 ca        1 R39      0.011600
     16 NAV        -3.0120   -5.7210   -5.5510 ns        1 R39     -0.447100
     17 CAZ        -2.0780   -6.6440   -6.0760 c         1 R39      0.758100
     18 OAE        -1.1490   -7.1190   -5.3920 o         1 R39     -0.590100
     19 NAW        -2.2450   -7.0150   -7.4380 ns        1 R39     -0.439100
     20 CBE        -1.5850   -8.1400   -7.9350 cc        1 R39      0.022300
     21 CAN        -0.2820   -8.6020   -7.6780 cd        1 R39     -0.270300
     22 CBF        -0.1190   -9.7670   -8.5290 cd        1 R39      0.334600
     23 CBI         1.1240  -10.6000   -8.5760 c3        1 R39     -0.076300
     24 CAC         1.3700  -11.1860   -7.1880 c3        1 R39     -0.084767
     25 CAD         1.0100  -11.7380   -9.5820 c3        1 R39     -0.084767
     26 CAB         2.2970   -9.7070   -8.9650 c3        1 R39     -0.084767
     27 NAU        -1.2460   -9.9830   -9.2570 nc        1 R39     -0.496800
     28 NBH        -2.1590   -9.0680   -8.8710 na        1 R39      0.125300
     29 CBD        -3.3610   -8.8190   -9.5940 ca        1 R39      0.007800
     30 CAL        -4.5640   -8.6050   -8.8890 ca        1 R39     -0.130000
     31 CAF        -5.7420   -8.3610   -9.5870 ca        1 R39     -0.122500
     32 CBA        -5.7590   -8.3390  -10.9860 ca        1 R39     -0.074300
     33 CAA        -7.0160   -8.0680  -11.7200 c3        1 R39     -0.055800
     34 CAG        -4.5680   -8.5740  -11.6810 ca        1 R39     -0.122500
     35 CAM        -3.3770   -8.8110  -11.0030 ca        1 R39     -0.130000
     36 HAR        -1.0380    1.2750    1.0750 h1        1 R39      0.039450
     37 HARA       -0.7250    0.6470   -0.6080 h1        1 R39      0.039450
     38 HAO         1.6750    0.3810   -0.1530 h1        1 R39      0.055200
     39 HAOA        1.1790    2.0310    0.4910 h1        1 R39      0.055200
     40 HAP         1.7120   -0.7760    3.3380 h1        1 R39      0.055200
     41 HAPA        2.0100   -1.3680    1.6220 h1        1 R39      0.055200
     42 HAS        -0.1630   -2.2590    2.3190 h1        1 R39      0.039450
     43 HASA       -0.6750   -0.6500    3.0130 h1        1 R39      0.039450
     44 HAT        -2.2920   -2.0650    1.4700 h1        1 R39      0.050200
     45 HATA       -2.7630   -0.3440    1.0880 h1        1 R39      0.050200
     46 HAQ        -1.9270   -1.0900   -1.4360 h1        1 R39      0.043700
     47 HAQA       -3.6040   -1.4290   -0.7730 h1        1 R39      0.043700
     48 HAK        -1.5580   -5.4300   -1.1630 ha        1 R39      0.146000
     49 HAI        -1.8310   -6.6890   -3.2920 ha        1 R39      0.149500
     50 HAJ        -3.3640   -1.9320   -2.9870 ha        1 R39      0.146000
     51 HAH        -3.6290   -3.1530   -5.1000 ha        1 R39      0.149500
     52 HNAV       -3.5610   -5.2080   -6.2080 hn        1 R39      0.301500
     53 HNAW       -3.1030   -6.7790   -7.8930 hn        1 R39      0.314500
     54 HAN         0.4300   -8.1910   -6.9690 ha        1 R39      0.190000
     55 HAC         0.5310  -11.8610   -6.8990 hc        1 R39      0.039256
     56 HACA        2.3200  -11.7720   -7.1890 hc        1 R39      0.039256
     57 HACB        1.4510  -10.3690   -6.4310 hc        1 R39      0.039256
     58 HAD         0.1650  -12.4160   -9.3140 hc        1 R39      0.039256
     59 HADA        1.9570  -12.3310   -9.5850 hc        1 R39      0.039256
     60 HADB        0.8370  -11.3370  -10.6090 hc        1 R39      0.039256
     61 HAB         2.3990   -8.8620   -8.2420 hc        1 R39      0.039256
     62 HABA        3.2420  -10.3010   -8.9600 hc        1 R39      0.039256
     63 HABB        2.1430   -9.2870   -9.9880 hc        1 R39      0.039256
     64 HAL        -4.5890   -8.6580   -7.7900 ha        1 R39      0.150500
     65 HAF        -6.6760   -8.1960   -9.0280 ha        1 R39      0.138000
     66 HAA        -7.0910   -6.9760  -11.9560 hc        1 R39      0.047700
     67 HAAA       -7.0450   -8.6360  -12.6820 hc        1 R39      0.047700
     68 HAAB       -7.9080   -8.3570  -11.1110 hc        1 R39      0.047700
     69 HAG        -4.5710   -8.5740  -12.7830 ha        1 R39      0.138000
     70 HAM        -2.4540   -9.0020  -11.5730 ha        1 R39      0.150500
@<TRIPOS>BOND
     1    1    2 1   
     2    1    6 1   
     3    1   36 1   
     4    1   37 1   
     5    2    3 1   
     6    2   38 1   
     7    2   39 1   
     8    3    4 1   
     9    4    5 1   
    10    4   40 1   
    11    4   41 1   
    12    5    6 1   
    13    5   42 1   
    14    5   43 1   
    15    6    7 1   
    16    7    8 1   
    17    7   44 1   
    18    7   45 1   
    19    8    9 1   
    20    8   46 1   
    21    8   47 1   
    22    9   10 1   
    23   10   11 ar  
    24   10   13 ar  
    25   11   12 ar  
    26   11   48 1   
    27   12   15 ar  
    28   12   49 1   
    29   13   14 ar  
    30   13   50 1   
    31   14   15 ar  
    32   14   51 1   
    33   15   16 1   
    34   16   17 1   
    35   16   52 1   
    36   17   18 2   
    37   17   19 1   
    38   19   20 1   
    39   19   53 1   
    40   20   21 2   
    41   20   28 1   
    42   21   22 1   
    43   21   54 1   
    44   22   23 1   
    45   22   27 2   
    46   23   24 1   
    47   23   25 1   
    48   23   26 1   
    49   24   55 1   
    50   24   56 1   
    51   24   57 1   
    52   25   58 1   
    53   25   59 1   
    54   25   60 1   
    55   26   61 1   
    56   26   62 1   
    57   26   63 1   
    58   27   28 1   
    59   28   29 1   
    60   29   30 ar  
    61   29   35 ar  
    62   30   31 ar  
    63   30   64 1   
    64   31   32 ar  
    65   31   65 1   
    66   32   33 1   
    67   32   34 ar  
    68   33   66 1   
    69   33   67 1   
    70   33   68 1   
    71   34   35 ar  
    72   34   69 1   
    73   35   70 1   
@<TRIPOS>SUBSTRUCTURE
     1 R39         1 TEMP              0 ****  ****    0 ROOT
