@<TRIPOS>MOLECULE
R39
   70    73     1     0     0
SMALL
bcc


@<TRIPOS>ATOM
      1 CAR        -0.4210    0.6350    0.3890 c3        1 R39      0.137300
      2 CAO         1.0540    1.0390    0.4990 c3        1 R39      0.126400
      3 OAX         1.5700    0.7820    1.8000 os        1 R39     -0.415600
      4 CAP         1.4150   -0.5810    2.1770 c3        1 R39      0.126400
      5 CAS        -0.0500   -1.0280    2.1040 c3        1 R39      0.137300
      6 NBG        -0.6540   -0.7390    0.8100 n3        1 R39     -0.731600
      7 CAT        -2.0530   -1.1230    0.7410 c3        1 R39      0.171800
      8 CAQ        -2.4860   -1.5670   -0.6650 c3        1 R39      0.128400
      9 OAY        -2.2290   -2.9740   -0.7210 os        1 R39     -0.322900
     10 CBC        -2.4170   -3.5720   -1.9500 ca        1 R39      0.116100
     11 CAK        -1.9740   -4.9050   -2.0370 ca        1 R39     -0.162500
     12 CAI        -2.1420   -5.6170   -3.2150 ca        1 R39     -0.116500
     13 CAJ        -3.0200   -2.9570   -3.0520 ca        1 R39     -0.162500
     14 CAH        -3.1770   -3.6690   -4.2380 ca        1 R39     -0.116500
     15 CBB        -2.7500   -5.0100   -4.3370 ca        1 R39      0.011600
     16 NAV        -3.0070   -5.7300   -5.5270 n         1 R39     -0.447100
     17 CAZ        -2.0690   -6.6470   -6.0550 c         1 R39      0.758100
     18 OAE        -1.1250   -7.1040   -5.3790 o         1 R39     -0.590100
     19 NAW        -2.2490   -7.0350   -7.4110 n         1 R39     -0.439100
     20 CBE        -1.5830   -8.1580   -7.9040 cc        1 R39      0.019300
     21 CAN        -0.2690   -8.5990   -7.6630 cd        1 R39     -0.267300
     22 CBF        -0.1050   -9.7720   -8.4990 cd        1 R39      0.334600
     23 CBI         1.1290  -10.6170   -8.5870 c3        1 R39     -0.074300
     24 CAC         0.8070  -12.0400   -8.1460 c3        1 R39     -0.086100
     25 CAD         1.6380  -10.6350  -10.0240 c3        1 R39     -0.086100
     26 CAB         2.2140  -10.0470   -7.6810 c3        1 R39     -0.086100
     27 NAU        -1.2430  -10.0140   -9.2050 nc        1 R39     -0.500800
     28 NBH        -2.1600   -9.1060   -8.8170 na        1 R39      0.127300
     29 CBD        -3.3830   -8.8890   -9.5150 ca        1 R39      0.007800
     30 CAL        -4.5730   -8.6830   -8.7870 ca        1 R39     -0.129500
     31 CAF        -5.7710   -8.4700   -9.4610 ca        1 R39     -0.122500
     32 CBA        -5.8200   -8.4720  -10.8590 ca        1 R39     -0.074300
     33 CAA        -7.0970   -8.2340  -11.5690 c3        1 R39     -0.055800
     34 CAG        -4.6410   -8.7000  -11.5780 ca        1 R39     -0.122500
     35 CAM        -3.4310   -8.9050  -10.9240 ca        1 R39     -0.129500
     36 HAR        -1.0360    1.3660    0.9930 h1        1 R39      0.039450
     37 HARA       -0.7380    0.7240   -0.6870 h1        1 R39      0.039450
     38 HAO         1.6710    0.4980   -0.2640 h1        1 R39      0.055200
     39 HAOA        1.1610    2.1480    0.3690 h1        1 R39      0.055200
     40 HAP         2.0580   -1.2270    1.5240 h1        1 R39      0.055200
     41 HAPA        1.7770   -0.6210    3.2370 h1        1 R39      0.055200
     42 HAS        -0.6160   -0.5330    2.9460 h1        1 R39      0.039450
     43 HASA       -0.0900   -2.1420    2.2620 h1        1 R39      0.039450
     44 HAT        -2.7360   -0.2790    1.0490 h1        1 R39      0.050200
     45 HATA       -2.2350   -1.9880    1.4420 h1        1 R39      0.050200
     46 HAQ        -3.5880   -1.3940   -0.7880 h1        1 R39      0.043700
     47 HAQA       -1.9250   -1.0400   -1.4790 h1        1 R39      0.043700
     48 HAK        -1.4950   -5.3720   -1.1640 ha        1 R39      0.146000
     49 HAI        -1.7820   -6.6580   -3.2750 ha        1 R39      0.149500
     50 HAJ        -3.3720   -1.9180   -3.0000 ha        1 R39      0.146000
     51 HAH        -3.6500   -3.1650   -5.0950 ha        1 R39      0.149500
     52 HNAV       -3.5700   -5.2310   -6.1830 hn        1 R39      0.301500
     53 HNAW       -3.1160   -6.8150   -7.8560 hn        1 R39      0.314500
     54 HAN         0.4460   -8.1650   -6.9720 ha        1 R39      0.191000
     55 HAC         1.7350  -12.6620   -8.1710 hc        1 R39      0.039478
     56 HACA        0.0510  -12.5000   -8.8250 hc        1 R39      0.039478
     57 HACB        0.4030  -12.0410   -7.1060 hc        1 R39      0.039478
     58 HAD         2.5830  -11.2270  -10.0820 hc        1 R39      0.039478
     59 HADA        1.8440   -9.5960  -10.3760 hc        1 R39      0.039478
     60 HADB        0.8840  -11.1010  -10.7020 hc        1 R39      0.039478
     61 HAB         1.8710  -10.0380   -6.6190 hc        1 R39      0.039478
     62 HABA        2.4700   -9.0040   -7.9860 hc        1 R39      0.039478
     63 HABB        3.1340  -10.6770   -7.7550 hc        1 R39      0.039478
     64 HAL        -4.5720   -8.7170   -7.6860 ha        1 R39      0.150500
     65 HAF        -6.6940   -8.3100   -8.8830 ha        1 R39      0.138500
     66 HAA        -7.1950   -7.1480  -11.8240 hc        1 R39      0.047700
     67 HAAA       -7.9700   -8.5240  -10.9340 hc        1 R39      0.047700
     68 HAAB       -7.1410   -8.8220  -12.5190 hc        1 R39      0.047700
     69 HAG        -4.6700   -8.7180  -12.6790 ha        1 R39      0.138500
     70 HAM        -2.5180   -9.0910  -11.5120 ha        1 R39      0.150500
@<TRIPOS>BOND
     1    1    2 1   
     2    1    6 1   
     3    1   36 1   
     4    1   37 1   
     5    2    3 1   
     6    2   38 1   
     7    2   39 1   
     8    3    4 1   
     9    4    5 1   
    10    4   40 1   
    11    4   41 1   
    12    5    6 1   
    13    5   42 1   
    14    5   43 1   
    15    6    7 1   
    16    7    8 1   
    17    7   44 1   
    18    7   45 1   
    19    8    9 1   
    20    8   46 1   
    21    8   47 1   
    22    9   10 1   
    23   10   11 ar  
    24   10   13 ar  
    25   11   12 ar  
    26   11   48 1   
    27   12   15 ar  
    28   12   49 1   
    29   13   14 ar  
    30   13   50 1   
    31   14   15 ar  
    32   14   51 1   
    33   15   16 1   
    34   16   17 1   
    35   16   52 1   
    36   17   18 2   
    37   17   19 1   
    38   19   20 1   
    39   19   53 1   
    40   20   21 2   
    41   20   28 1   
    42   21   22 1   
    43   21   54 1   
    44   22   23 1   
    45   22   27 2   
    46   23   24 1   
    47   23   25 1   
    48   23   26 1   
    49   24   55 1   
    50   24   56 1   
    51   24   57 1   
    52   25   58 1   
    53   25   59 1   
    54   25   60 1   
    55   26   61 1   
    56   26   62 1   
    57   26   63 1   
    58   27   28 1   
    59   28   29 1   
    60   29   30 ar  
    61   29   35 ar  
    62   30   31 ar  
    63   30   64 1   
    64   31   32 ar  
    65   31   65 1   
    66   32   33 1   
    67   32   34 ar  
    68   33   66 1   
    69   33   67 1   
    70   33   68 1   
    71   34   35 ar  
    72   34   69 1   
    73   35   70 1   
@<TRIPOS>SUBSTRUCTURE
     1 R39         1 TEMP              0 ****  ****    0 ROOT
