@<TRIPOS>MOLECULE
R39
   72    75     1     0     0
SMALL
bcc


@<TRIPOS>ATOM
      1 CAR        -0.8250    0.2550   -0.2700 c3        1 R39      0.131800
      2 CAO         0.0170    1.2220   -1.1120 c3        1 R39      0.126400
      3 OAX         1.3650    1.2610   -0.6680 os        1 R39     -0.395600
      4 CAP         1.9720   -0.0240   -0.6700 c3        1 R39      0.126400
      5 CAS         1.1810   -1.0250    0.1810 c3        1 R39      0.131800
      6 NBG        -0.2300   -1.0750   -0.1900 n3        1 R39     -0.749600
      7 CAT        -1.0020   -1.9890    0.6290 c3        1 R39      0.168800
      8 CAQ        -2.0310   -2.7760   -0.1960 c3        1 R39      0.117400
      9 OAY        -1.2690   -3.8340   -0.8340 os        1 R39     -0.265900
     10 CBC        -1.8610   -4.5610   -1.7960 ca        1 R39      0.260100
     11 CAK        -1.0280   -5.5450   -2.4050 ca        1 R39     -0.177500
     12 CAI        -1.5230   -6.3500   -3.4040 ca        1 R39     -0.042500
     13 CAJ        -3.2040   -4.4230   -2.2190 ca        1 R39     -0.177500
     14 CAH        -3.7030   -5.2310   -3.2210 ca        1 R39     -0.042500
     15 CBB        -2.8670   -6.1970   -3.8260 ca        1 R39     -0.220400
     16 NAV        -3.4180   -7.0980   -4.8340 n4        1 R39     -0.460200
     17 CAZ        -3.6600   -6.3740   -6.1220 c         1 R39      0.478100
     18 OAE        -4.7320   -5.8470   -6.3710 o         1 R39     -0.324100
     19 NAW        -2.5310   -6.2950   -7.1160 n4        1 R39     -0.446200
     20 CBE        -1.9780   -7.5930   -7.3910 cc        1 R39     -0.246700
     21 CAN        -0.9930   -8.3080   -6.6440 cd        1 R39     -0.240300
     22 CBF        -0.7780   -9.5080   -7.3910 cd        1 R39      0.371600
     23 CBI         0.1620  -10.6280   -7.0510 c3        1 R39     -0.086300
     24 CAC        -0.6320  -11.9170   -6.8640 c3        1 R39     -0.096433
     25 CAD         1.1650  -10.8080   -8.1860 c3        1 R39     -0.096433
     26 CAB         0.9090  -10.2990   -5.7660 c3        1 R39     -0.096433
     27 NAU        -1.5830   -9.5010   -8.5200 nc        1 R39     -0.383800
     28 NBH        -2.2930   -8.3920   -8.5260 na        1 R39      0.275300
     29 CBD        -3.1270   -7.9480   -9.6070 ca        1 R39     -0.106200
     30 CAL        -4.4210   -7.4490   -9.3440 ca        1 R39     -0.111500
     31 CAF        -5.2210   -7.0320  -10.3990 ca        1 R39     -0.109500
     32 CBA        -4.7660   -7.1140  -11.7270 ca        1 R39     -0.001300
     33 CAA        -5.6380   -6.6920  -12.8440 c3        1 R39     -0.084800
     34 CAG        -3.4880   -7.6260  -11.9760 ca        1 R39     -0.109500
     35 CAM        -2.6660   -8.0490  -10.9330 ca        1 R39     -0.111500
     36 HAR        -0.9650    0.7080    0.7550 h1        1 R39      0.045950
     37 HARA       -1.8390    0.1520   -0.7450 h1        1 R39      0.045950
     38 HAO        -0.0170    0.9360   -2.1960 h1        1 R39      0.060450
     39 HAOA       -0.3540    2.2730   -0.9770 h1        1 R39      0.060450
     40 HAP         2.0720   -0.3920   -1.7250 h1        1 R39      0.060450
     41 HAPA        2.9860    0.1450   -0.2210 h1        1 R39      0.060450
     42 HAS         1.3110   -0.7500    1.2670 h1        1 R39      0.045950
     43 HASA        1.6170   -2.0510    0.0240 h1        1 R39      0.045950
     44 HAT        -1.5900   -1.4590    1.4360 h1        1 R39      0.072700
     45 HATA       -0.3200   -2.7330    1.1320 h1        1 R39      0.072700
     46 HAQ        -2.7890   -3.2580    0.4740 h1        1 R39      0.067200
     47 HAQA       -2.5250   -2.1450   -0.9780 h1        1 R39      0.067200
     48 HAK         0.0130   -5.6490   -2.0490 ha        1 R39      0.196000
     49 HAI        -0.8690   -7.1240   -3.8410 ha        1 R39      0.157000
     50 HAJ        -3.8650   -3.6790   -1.7410 ha        1 R39      0.196000
     51 HAH        -4.7570   -5.1140   -3.5330 ha        1 R39      0.157000
     52 HNAV       -4.3410   -7.4450   -4.5060 hn        1 R39      0.502800
     53 HNAW       -1.7810   -5.6840   -6.7470 hn        1 R39      0.513800
     54 HAN        -0.4660   -7.9980   -5.7460 ha        1 R39      0.188000
     55 HAC         0.0660  -12.7420   -6.5810 hc        1 R39      0.054811
     56 HACA       -1.3890  -11.7990   -6.0530 hc        1 R39      0.054811
     57 HACB       -1.1510  -12.2050   -7.8090 hc        1 R39      0.054811
     58 HAD         1.8960  -11.6080   -7.9090 hc        1 R39      0.054811
     59 HADA        0.6490  -11.1150   -9.1270 hc        1 R39      0.054811
     60 HADB        1.7280   -9.8620   -8.3690 hc        1 R39      0.054811
     61 HAB         1.6030  -11.1400   -5.5180 hc        1 R39      0.054811
     62 HABA        1.5140   -9.3690   -5.8850 hc        1 R39      0.054811
     63 HABB        0.1980  -10.1700   -4.9150 hc        1 R39      0.054811
     64 HAL        -4.8350   -7.4400   -8.3250 ha        1 R39      0.144000
     65 HAF        -6.2350   -6.6490  -10.1960 ha        1 R39      0.174000
     66 HAA        -6.3840   -5.9270  -12.5130 hc        1 R39      0.077700
     67 HAAA       -5.0360   -6.2630  -13.6840 hc        1 R39      0.077700
     68 HAAB       -6.2000   -7.5790  -13.2390 hc        1 R39      0.077700
     69 HAG        -3.1240   -7.7090  -13.0160 ha        1 R39      0.174000
     70 HAM        -1.6700   -8.4670  -11.1630 ha        1 R39      0.144000
     71 HAV2       -2.7820   -7.9030   -4.9800 hn        1 R39      0.502800
     72 HAW2       -2.9220   -5.8770   -7.9920 hn        1 R39      0.513800
@<TRIPOS>BOND
     1    1    2 1   
     2    1    6 1   
     3    1   36 1   
     4    1   37 1   
     5    2    3 1   
     6    2   38 1   
     7    2   39 1   
     8    3    4 1   
     9    4    5 1   
    10    4   40 1   
    11    4   41 1   
    12    5    6 1   
    13    5   42 1   
    14    5   43 1   
    15    6    7 1   
    16    7    8 1   
    17    7   44 1   
    18    7   45 1   
    19    8    9 1   
    20    8   46 1   
    21    8   47 1   
    22    9   10 1   
    23   10   11 ar  
    24   10   13 ar  
    25   11   12 ar  
    26   11   48 1   
    27   12   15 ar  
    28   12   49 1   
    29   13   14 ar  
    30   13   50 1   
    31   14   15 ar  
    32   14   51 1   
    33   15   16 1   
    34   16   17 1   
    35   16   52 1   
    36   16   71 1   
    37   17   18 2   
    38   17   19 1   
    39   19   20 1   
    40   19   53 1   
    41   19   72 1   
    42   20   21 2   
    43   20   28 1   
    44   21   22 1   
    45   21   54 1   
    46   22   23 1   
    47   22   27 2   
    48   23   24 1   
    49   23   25 1   
    50   23   26 1   
    51   24   55 1   
    52   24   56 1   
    53   24   57 1   
    54   25   58 1   
    55   25   59 1   
    56   25   60 1   
    57   26   61 1   
    58   26   62 1   
    59   26   63 1   
    60   27   28 1   
    61   28   29 1   
    62   29   30 ar  
    63   29   35 ar  
    64   30   31 ar  
    65   30   64 1   
    66   31   32 ar  
    67   31   65 1   
    68   32   33 1   
    69   32   34 ar  
    70   33   66 1   
    71   33   67 1   
    72   33   68 1   
    73   34   35 ar  
    74   34   69 1   
    75   35   70 1   
@<TRIPOS>SUBSTRUCTURE
     1 R39         1 TEMP              0 ****  ****    0 ROOT
