@<TRIPOS>MOLECULE
R39
   70    73     1     0     0
SMALL
bcc


@<TRIPOS>ATOM
      1 CAR         8.5120    0.8390   -1.3380 c3        1 R39      0.137300
      2 CAO         9.1270   -0.3880   -2.0210 c3        1 R39      0.126400
      3 OAX        10.0670   -1.0410   -1.1750 os        1 R39     -0.415600
      4 CAP         9.4920   -1.4210    0.0700 c3        1 R39      0.126400
      5 CAS         8.8810   -0.2210    0.8030 c3        1 R39      0.137300
      6 NBG         7.9490    0.5240   -0.0320 n3        1 R39     -0.731600
      7 CAT         7.3920    1.6850    0.6390 c3        1 R39      0.171800
      8 CAQ         5.9590    2.0100    0.1900 c3        1 R39      0.128400
      9 OAY         5.1040    1.2540    1.0550 os        1 R39     -0.322900
     10 CBC         3.7590    1.2820    0.7470 ca        1 R39      0.116100
     11 CAK         2.9630    0.3810    1.4770 ca        1 R39     -0.162500
     12 CAI         1.5920    0.3450    1.2750 ca        1 R39     -0.116500
     13 CAJ         3.1740    2.1380   -0.1920 ca        1 R39     -0.162500
     14 CAH         1.7990    2.0920   -0.4040 ca        1 R39     -0.116500
     15 CBB         0.9850    1.2040    0.3300 ca        1 R39      0.011600
     16 NAV        -0.4180    1.2480    0.1550 n         1 R39     -0.447100
     17 CAZ        -1.2000    0.0700    0.1520 c         1 R39      0.758100
     18 OAE        -0.7770   -1.0170    0.5960 o         1 R39     -0.590100
     19 NAW        -2.5120    0.1770   -0.3850 n         1 R39     -0.439100
     20 CBE        -3.4470   -0.8290   -0.1360 cc        1 R39      0.022300
     21 CAN        -3.2750   -2.2240   -0.0970 cd        1 R39     -0.270300
     22 CBF        -4.6040   -2.7620    0.1280 cd        1 R39      0.334600
     23 CBI        -4.9030   -4.2240    0.2570 c3        1 R39     -0.076300
     24 CAC        -4.1320   -4.7750    1.4530 c3        1 R39     -0.084767
     25 CAD        -6.3890   -4.4870    0.4600 c3        1 R39     -0.084767
     26 CAB        -4.4410   -4.9310   -1.0140 c3        1 R39     -0.084767
     27 NAU        -5.5160   -1.7570    0.2090 nc        1 R39     -0.496800
     28 NBH        -4.8410   -0.5920    0.1230 na        1 R39      0.125300
     29 CBD        -5.4840    0.6610   -0.0930 ca        1 R39      0.007800
     30 CAL        -5.0400    1.8000    0.6110 ca        1 R39     -0.130000
     31 CAF        -5.6600    3.0280    0.4060 ca        1 R39     -0.122500
     32 CBA        -6.7360    3.1510   -0.4810 ca        1 R39     -0.074300
     33 CAA        -7.3840    4.4640   -0.7010 c3        1 R39     -0.055800
     34 CAG        -7.1880    2.0150   -1.1600 ca        1 R39     -0.122500
     35 CAM        -6.5750    0.7790   -0.9760 ca        1 R39     -0.130000
     36 HAR         9.3050    1.6410   -1.2680 h1        1 R39      0.039450
     37 HARA        7.6800    1.2310   -1.9860 h1        1 R39      0.039450
     38 HAO         8.3290   -1.1140   -2.3270 h1        1 R39      0.055200
     39 HAOA        9.7260   -0.0720   -2.9150 h1        1 R39      0.055200
     40 HAP         8.7190   -2.2160   -0.1010 h1        1 R39      0.055200
     41 HAPA       10.3510   -1.8360    0.6590 h1        1 R39      0.055200
     42 HAS         8.3130   -0.6030    1.6970 h1        1 R39      0.039450
     43 HASA        9.7210    0.4350    1.1760 h1        1 R39      0.039450
     44 HAT         7.3650    1.4930    1.7500 h1        1 R39      0.050200
     45 HATA        8.0140    2.6110    0.4630 h1        1 R39      0.050200
     46 HAQ         5.7580    3.1030    0.3450 h1        1 R39      0.043700
     47 HAQA        5.7660    1.7350   -0.8790 h1        1 R39      0.043700
     48 HAK         3.4390   -0.2900    2.2070 ha        1 R39      0.146000
     49 HAI         0.9790   -0.3720    1.8460 ha        1 R39      0.149500
     50 HAJ         3.7820    2.8470   -0.7710 ha        1 R39      0.146000
     51 HAH         1.3590    2.7710   -1.1500 ha        1 R39      0.149500
     52 HNAV       -0.7240    1.9970   -0.4300 hn        1 R39      0.301500
     53 HNAW       -2.8880    1.0890   -0.5420 hn        1 R39      0.314500
     54 HAN        -2.3410   -2.7700   -0.1830 ha        1 R39      0.190000
     55 HAC        -4.4750   -4.2840    2.3940 hc        1 R39      0.039256
     56 HACA       -4.3020   -5.8750    1.5380 hc        1 R39      0.039256
     57 HACB       -3.0380   -4.5880    1.3290 hc        1 R39      0.039256
     58 HAD        -6.9780   -4.1000   -0.4060 hc        1 R39      0.039256
     59 HADA       -6.5660   -5.5860    0.5480 hc        1 R39      0.039256
     60 HADB       -6.7520   -3.9910    1.3910 hc        1 R39      0.039256
     61 HAB        -3.3530   -4.7500   -1.1850 hc        1 R39      0.039256
     62 HABA       -4.6130   -6.0300   -0.9190 hc        1 R39      0.039256
     63 HABB       -5.0110   -4.5540   -1.8960 hc        1 R39      0.039256
     64 HAL        -4.2230    1.7240    1.3460 ha        1 R39      0.150500
     65 HAF        -5.3070    3.9100    0.9610 ha        1 R39      0.138000
     66 HAA        -6.9240    4.9730   -1.5850 hc        1 R39      0.047700
     67 HAAA       -8.4770    4.3410   -0.8990 hc        1 R39      0.047700
     68 HAAB       -7.2580    5.1280    0.1900 hc        1 R39      0.047700
     69 HAG        -8.0430    2.0960   -1.8490 ha        1 R39      0.138000
     70 HAM        -6.9550   -0.1030   -1.5160 ha        1 R39      0.150500
@<TRIPOS>BOND
     1    1    2 1   
     2    1    6 1   
     3    1   36 1   
     4    1   37 1   
     5    2    3 1   
     6    2   38 1   
     7    2   39 1   
     8    3    4 1   
     9    4    5 1   
    10    4   40 1   
    11    4   41 1   
    12    5    6 1   
    13    5   42 1   
    14    5   43 1   
    15    6    7 1   
    16    7    8 1   
    17    7   44 1   
    18    7   45 1   
    19    8    9 1   
    20    8   46 1   
    21    8   47 1   
    22    9   10 1   
    23   10   11 ar  
    24   10   13 ar  
    25   11   12 ar  
    26   11   48 1   
    27   12   15 ar  
    28   12   49 1   
    29   13   14 ar  
    30   13   50 1   
    31   14   15 ar  
    32   14   51 1   
    33   15   16 1   
    34   16   17 1   
    35   16   52 1   
    36   17   18 2   
    37   17   19 1   
    38   19   20 1   
    39   19   53 1   
    40   20   21 2   
    41   20   28 1   
    42   21   22 1   
    43   21   54 1   
    44   22   23 1   
    45   22   27 2   
    46   23   24 1   
    47   23   25 1   
    48   23   26 1   
    49   24   55 1   
    50   24   56 1   
    51   24   57 1   
    52   25   58 1   
    53   25   59 1   
    54   25   60 1   
    55   26   61 1   
    56   26   62 1   
    57   26   63 1   
    58   27   28 1   
    59   28   29 1   
    60   29   30 ar  
    61   29   35 ar  
    62   30   31 ar  
    63   30   64 1   
    64   31   32 ar  
    65   31   65 1   
    66   32   33 1   
    67   32   34 ar  
    68   33   66 1   
    69   33   67 1   
    70   33   68 1   
    71   34   35 ar  
    72   34   69 1   
    73   35   70 1   
@<TRIPOS>SUBSTRUCTURE
     1 R39         1 TEMP              0 ****  ****    0 ROOT
