@<TRIPOS>MOLECULE
R3S
   32    33     1     0     0
SMALL
bcc


@<TRIPOS>ATOM
      1 C01         0.3430   -0.1570    0.3790 ca        1 R3S     -0.188500
      2 C02         1.2500   -1.2010    0.5160 ca        1 R3S     -0.084000
      3 C03         2.3790   -1.0800    1.3450 ca        1 R3S     -0.074800
      4 C04         2.5770    0.1160    2.0500 ca        1 R3S     -0.084000
      5 C05         1.6770    1.1710    1.9280 ca        1 R3S     -0.188500
      6 C06         0.5620    1.0320    1.0910 ca        1 R3S      0.111100
      7 C07         3.2850   -2.2100    1.4630 ce        1 R3S     -0.126200
      8 C08         4.5920   -2.2020    1.7510 cf        1 R3S     -0.076200
      9 C09         5.4580   -1.0530    2.0060 ca        1 R3S     -0.021800
     10 C10         6.0730   -0.4030    0.9290 ca        1 R3S     -0.225000
     11 C11         6.9440    0.6610    1.2010 ca        1 R3S      0.152100
     12 C12         7.2100    1.0890    2.5030 ca        1 R3S     -0.321000
     13 C13         6.5880    0.4240    3.5800 ca        1 R3S      0.314100
     14 C14         5.7110   -0.6560    3.3180 ca        1 R3S     -0.239000
     15 O15         6.7620    0.7930    4.8460 os        1 R3S     -0.514800
     16 O16         7.5270    1.2720    0.1070 oh        1 R3S     -0.523100
     17 O17        -0.3700    2.0350    0.9240 oh        1 R3S     -0.511100
     18 S18         8.0720    1.6810    5.6520 s6        1 R3S      1.721300
     19 O19         8.3500    2.6850    4.7360 o         1 R3S     -0.733867
     20 O20         7.4030    2.0560    6.8020 o         1 R3S     -0.733867
     21 O21         9.0300    0.6900    5.7730 o         1 R3S     -0.733867
     22 H10         5.8820   -0.7080   -0.1060 ha        1 R3S      0.133000
     23 H01        -0.5360   -0.2470   -0.2720 ha        1 R3S      0.137000
     24 H02         1.0830   -2.1360   -0.0400 ha        1 R3S      0.147500
     25 H12         7.8880    1.9350    2.7010 ha        1 R3S      0.178000
     26 H04         3.4590    0.2230    2.7060 ha        1 R3S      0.147500
     27 H14         5.2400   -1.1690    4.1660 ha        1 R3S      0.139000
     28 H05         1.8450    2.1050    2.4830 ha        1 R3S      0.137000
     29 HO16        8.1010    1.9750    0.4430 ho        1 R3S      0.416000
     30 H07         2.7990   -3.1870    1.2760 ha        1 R3S      0.108000
     31 HO17       -0.0760    2.7960    1.4450 ho        1 R3S      0.416000
     32 H08         5.1290   -3.1690    1.8090 ha        1 R3S      0.120000
@<TRIPOS>BOND
     1    1    2 ar  
     2    1    6 ar  
     3    1   23 1   
     4    2    3 ar  
     5    2   24 1   
     6    3    4 ar  
     7    3    7 1   
     8    4    5 ar  
     9    4   26 1   
    10    5    6 ar  
    11    5   28 1   
    12    6   17 1   
    13    7    8 2   
    14    7   30 1   
    15    8    9 1   
    16    8   32 1   
    17    9   10 ar  
    18    9   14 ar  
    19   10   11 ar  
    20   10   22 1   
    21   11   12 ar  
    22   11   16 1   
    23   12   13 ar  
    24   12   25 1   
    25   13   14 ar  
    26   13   15 1   
    27   14   27 1   
    28   15   18 1   
    29   16   29 1   
    30   17   31 1   
    31   18   19 1   
    32   18   20 1   
    33   18   21 1   
@<TRIPOS>SUBSTRUCTURE
     1 R3S         1 TEMP              0 ****  ****    0 ROOT
