@<TRIPOS>MOLECULE
R3W
    7     6     1     0     0
SMALL
bcc


@<TRIPOS>ATOM
      1 C1          1.0360   -0.0530    0.0260 c         1 R3W      0.911600
      2 O1          1.8110    0.1210    1.0060 o         1 R3W     -0.829300
      3 CL1        -1.6210    0.2340    0.7070 cl        1 R3W     -0.272400
      4 C2         -0.1820    0.8840   -0.0930 c3        1 R3W     -0.055000
      5 O2          1.2140   -0.8970   -0.8940 o         1 R3W     -0.829300
      6 H2          0.0230    1.8590    0.4010 h1        1 R3W      0.036700
      7 H2A        -0.4670    1.0230   -1.1590 h1        1 R3W      0.036700
@<TRIPOS>BOND
     1    1    2 1   
     2    1    4 1   
     3    1    5 1   
     4    3    4 1   
     5    4    6 1   
     6    4    7 1   
@<TRIPOS>SUBSTRUCTURE
     1 R3W         1 TEMP              0 ****  ****    0 ROOT
