@<TRIPOS>MOLECULE
R3W
    7     5     1     0     0
SMALL
bcc


@<TRIPOS>ATOM
      1 C1          0.3410    0.0000   -0.7970 c1        1 R3W      0.331000
      2 O1          1.6000    0.0000   -0.7970 o         1 R3W     -0.563500
      3 CL1         0.7170   -0.0000    1.8380 cl        1 R3W     -0.201000
      4 C2         -0.4160    0.0000    0.5130 c2        1 R3W     -0.156000
      5 O2         -0.2890    0.0000   -1.8870 o         1 R3W     -0.563500
      6 H2         -0.9770    0.7970    0.5650 h4        1 R3W      0.077000
      7 H2A        -0.9770   -0.7970    0.5650 h4        1 R3W      0.077000
@<TRIPOS>BOND
     1    1    2 1   
     2    1    5 1   
     3    3    4 1   
     4    4    6 1   
     5    4    7 1   
@<TRIPOS>SUBSTRUCTURE
     1 R3W         1 TEMP              0 ****  ****    0 ROOT
