@<TRIPOS>MOLECULE
R3W
    7     6     1     0     0
SMALL
bcc


@<TRIPOS>ATOM
      1 C1          0.0370   -0.0300   -0.0410 c         1 R3W      0.911600
      2 O1          0.8510   -0.9900   -0.1340 o         1 R3W     -0.829300
      3 CL1        -2.3130   -0.7480    1.2100 cl        1 R3W     -0.272400
      4 C2         -0.7610    0.1000    1.2700 c3        1 R3W     -0.055000
      5 O2         -0.1310    0.8620   -0.9170 o         1 R3W     -0.829300
      6 H2         -1.0080    1.1660    1.4750 h1        1 R3W      0.036700
      7 H2A        -0.2020   -0.3540    2.1180 h1        1 R3W      0.036700
@<TRIPOS>BOND
     1    1    2 1   
     2    1    4 1   
     3    1    5 1   
     4    3    4 1   
     5    4    6 1   
     6    4    7 1   
@<TRIPOS>SUBSTRUCTURE
     1 R3W         1 TEMP              0 ****  ****    0 ROOT
