@<TRIPOS>MOLECULE
R3W
    7     6     1     0     0
SMALL
bcc


@<TRIPOS>ATOM
      1 C1          0.0260   -0.0330   -0.0480 c         1 R3W      0.911600
      2 O1          1.0650   -0.7470   -0.0030 o         1 R3W     -0.829300
      3 Cl1        -2.0510   -1.0820    1.4320 cl        1 R3W     -0.272400
      4 C2         -0.7790    0.1360    1.2550 c3        1 R3W     -0.055000
      5 O2         -0.3720    0.5980   -1.0660 o         1 R3W     -0.829300
      6 H2         -1.2980    1.1190    1.2700 h1        1 R3W      0.036700
      7 H2A        -0.1190    0.0140    2.1420 h1        1 R3W      0.036700
@<TRIPOS>BOND
     1    1    2 1   
     2    1    4 1   
     3    1    5 1   
     4    3    4 1   
     5    4    6 1   
     6    4    7 1   
@<TRIPOS>SUBSTRUCTURE
     1 R3W         1 TEMP              0 ****  ****    0 ROOT
