@<TRIPOS>MOLECULE
R3X
   48    50     1     0     0
SMALL
bcc


@<TRIPOS>ATOM
      1 CAB        -0.0970   -0.9690    0.9390 ca        1 R3X     -0.081000
      2 CAA         0.6930    0.1630    1.0960 ca        1 R3X     -0.188000
      3 CAF         0.2050    1.2320    1.8650 ca        1 R3X      0.117100
      4 OAP         1.0300    2.3290    1.9920 oh        1 R3X     -0.507100
      5 CAE        -1.0570    1.1620    2.4690 ca        1 R3X     -0.188000
      6 CAD        -1.8350    0.0200    2.2980 ca        1 R3X     -0.081000
      7 CAC        -1.3700   -1.0560    1.5300 ca        1 R3X     -0.083800
      8 CAG        -2.1460   -2.2700    1.3410 ce        1 R3X     -0.112200
      9 CAH        -3.4760   -2.4220    1.3790 cf        1 R3X     -0.091200
     10 CAI        -4.4950   -1.4000    1.6020 ca        1 R3X     -0.040800
     11 CAN        -5.0960   -1.2940    2.8610 ca        1 R3X     -0.191000
     12 CAJ        -4.9070   -0.5800    0.5460 ca        1 R3X     -0.179000
     13 CAK        -5.9210    0.3620    0.7750 ca        1 R3X      0.140100
     14 OAO        -6.2940    1.1470   -0.2910 oh        1 R3X     -0.517100
     15 CAL        -6.5240    0.5040    2.0330 ca        1 R3X     -0.229000
     16 CAM        -6.1030   -0.3360    3.0690 ca        1 R3X      0.152100
     17 O1         -6.5570   -0.2320    4.3780 os        1 R3X     -0.331900
     18 C1         -7.9680   -0.1210    4.5440 c3        1 R3X      0.338900
     19 C2         -8.2600   -0.1350    6.0600 c3        1 R3X      0.121100
     20 C3         -9.6910    0.3780    6.3090 c3        1 R3X      0.098100
     21 C4         -9.9480    1.7050    5.5740 c3        1 R3X      0.114100
     22 C5         -9.6100    1.5270    4.0920 c3        1 R3X     -0.022900
     23 C6         -9.7720    2.8150    3.2310 c         1 R3X      0.940600
     24 O2         -8.1420   -1.4780    6.5010 oh        1 R3X     -0.601800
     25 O3         -9.8250    0.5200    7.7180 oh        1 R3X     -0.628800
     26 O4        -11.3120    2.0200    5.7860 oh        1 R3X     -0.652800
     27 O5         -8.2390    1.1520    3.9990 os        1 R3X     -0.405600
     28 O6A       -10.6100    3.6640    3.6460 o         1 R3X     -0.820800
     29 O6B        -9.1030    2.8930    2.1710 o         1 R3X     -0.820800
     30 HAB         0.2800   -1.8100    0.3370 ha        1 R3X      0.144500
     31 HAA         1.6840    0.2370    0.6310 ha        1 R3X      0.139500
     32 HAP         0.5490    3.0000    2.4970 ho        1 R3X      0.418000
     33 HAE        -1.4360    2.0030    3.0670 ha        1 R3X      0.139500
     34 HAD        -2.8310   -0.0350    2.7710 ha        1 R3X      0.144500
     35 HAG        -1.5270   -3.1640    1.1340 ha        1 R3X      0.112000
     36 HAH        -3.9010   -3.4320    1.2250 ha        1 R3X      0.123000
     37 HAN        -4.7830   -1.9400    3.6920 ha        1 R3X      0.142000
     38 HAJ        -4.4490   -0.6600   -0.4480 ha        1 R3X      0.142000
     39 HAO        -6.9940    1.7490    0.0160 ho        1 R3X      0.448000
     40 HAL        -7.3090    1.2770    2.1780 ha        1 R3X      0.226000
     41 H1         -8.5130   -0.9410    4.0050 h2        1 R3X      0.053700
     42 H2         -7.5160    0.5130    6.5980 h1        1 R3X      0.070700
     43 H3        -10.4340   -0.3950    5.9600 h1        1 R3X      0.050700
     44 HA         -8.4170   -1.4770    7.4270 ho        1 R3X      0.411000
     45 H4         -9.3060    2.5180    6.0140 h1        1 R3X      0.057700
     46 HB        -10.5850    1.1000    7.8590 ho        1 R3X      0.425000
     47 H5        -10.2630    0.7290    3.6450 h1        1 R3X      0.037700
     48 HC        -11.5170    2.7630    5.1880 ho        1 R3X      0.466000
@<TRIPOS>BOND
     1    1    2 ar  
     2    1    7 ar  
     3    1   30 1   
     4    2    3 ar  
     5    2   31 1   
     6    3    4 1   
     7    3    5 ar  
     8    4   32 1   
     9    5    6 ar  
    10    5   33 1   
    11    6    7 ar  
    12    6   34 1   
    13    7    8 1   
    14    8    9 2   
    15    8   35 1   
    16    9   10 1   
    17    9   36 1   
    18   10   11 ar  
    19   10   12 ar  
    20   11   16 ar  
    21   11   37 1   
    22   12   13 ar  
    23   12   38 1   
    24   13   14 1   
    25   13   15 ar  
    26   14   39 1   
    27   15   16 ar  
    28   15   40 1   
    29   16   17 1   
    30   17   18 1   
    31   18   19 1   
    32   18   27 1   
    33   18   41 1   
    34   19   20 1   
    35   19   24 1   
    36   19   42 1   
    37   20   21 1   
    38   20   25 1   
    39   20   43 1   
    40   21   22 1   
    41   21   26 1   
    42   21   45 1   
    43   22   23 1   
    44   22   27 1   
    45   22   47 1   
    46   23   28 1   
    47   23   29 1   
    48   24   44 1   
    49   25   46 1   
    50   26   48 1   
@<TRIPOS>SUBSTRUCTURE
     1 R3X         1 TEMP              0 ****  ****    0 ROOT
