@<TRIPOS>MOLECULE
R45
   75    77     1     0     0
SMALL
bcc


@<TRIPOS>ATOM
      1 O4         -1.5030    0.3610    2.4320 o         1 R45     -0.644100
      2 N1         -2.2910   -5.6070    1.1920 nc        1 R45     -0.381300
      3 O1         -2.0680   -4.5440    1.9310 os        1 R45     -0.131100
      4 C25        -0.9660    0.1190    1.3280 c         1 R45      0.664100
      5 C17        -0.3500   -1.2650    1.0430 c3        1 R45     -0.095700
      6 C16        -1.1290   -2.2870    1.8810 c3        1 R45     -0.124700
      7 C14        -1.2540   -4.0340   -0.1150 cd        1 R45     -0.348600
      8 C13        -1.8270   -5.3810   -0.0600 cd        1 R45      0.355800
      9 C12        -1.8700   -6.3120   -1.1750 ca        1 R45     -0.115500
     10 C11        -0.9940   -6.1330   -2.2580 ca        1 R45     -0.103000
     11 C10        -1.0280   -7.0150   -3.3350 ca        1 R45     -0.143000
     12 C7         -1.9290   -8.0800   -3.3450 ca        1 R45     -0.133000
     13 C8         -2.7990   -8.2620   -2.2710 ca        1 R45     -0.143000
     14 C9         -2.7730   -7.3850   -1.1880 ca        1 R45     -0.103000
     15 C15        -1.4210   -3.5350    1.1610 cc        1 R45      0.267000
     16 C18         1.1390   -1.2160    1.3360 c3        1 R45     -0.459600
     17 P1          2.0040   -2.2430    0.3910 py        1 R45      1.584400
     18 O2          1.9600   -3.6460    1.2320 oh        1 R45     -0.819400
     19 O3          1.3910   -2.6670   -0.8740 o         1 R45     -0.908300
     20 C19         3.5710   -1.8480    0.3820 ca        1 R45     -0.458500
     21 C20         4.0010   -0.5530    0.1180 ca        1 R45     -0.023000
     22 C21         5.3700   -0.2580    0.0620 ca        1 R45     -0.140000
     23 C22         6.3040   -1.2680    0.2700 ca        1 R45      0.024100
     24 BR1         8.1460   -0.8910    0.1930 br        1 R45     -0.132100
     25 C23         5.8810   -2.5770    0.5400 ca        1 R45     -0.140000
     26 C24         4.5220   -2.8530    0.5930 ca        1 R45     -0.023000
     27 N2         -0.9520    1.0310    0.3000 n         1 R45     -0.518900
     28 C26        -1.3590    2.4030    0.4940 c3        1 R45      0.039700
     29 C30        -2.6920    2.7150   -0.2430 c         1 R45      0.642100
     30 O7         -3.0020    2.1770   -1.3210 o         1 R45     -0.607100
     31 C27        -0.3340    3.4210   -0.0410 c3        1 R45     -0.089400
     32 C28         0.9510    3.4220    0.7500 c3        1 R45     -0.173400
     33 C29         1.8130    2.1920    0.5250 c         1 R45      0.890600
     34 O6          2.6110    1.8160    1.4370 o         1 R45     -0.870300
     35 O5          1.7360    1.5240   -0.5590 o         1 R45     -0.870300
     36 N3         -3.5330    3.6220    0.3930 n         1 R45     -0.529900
     37 C31        -4.5950    4.2950   -0.3260 c3        1 R45      0.019700
     38 C35        -4.2000    5.7490   -0.6970 c         1 R45      0.617100
     39 O10        -3.0930    6.2360   -0.3620 o         1 R45     -0.678100
     40 C32        -5.9150    4.3380    0.4750 c3        1 R45     -0.065400
     41 C33        -7.1330    4.1430   -0.4050 c3        1 R45     -0.204400
     42 C34        -8.1600    5.2740   -0.2250 c         1 R45      0.906600
     43 O8         -7.8570    6.4300   -0.6580 o         1 R45     -0.851800
     44 O9         -9.2660    5.0090    0.3200 o         1 R45     -0.851800
     45 N4         -5.0790    6.4710   -1.4630 n         1 R45     -0.634000
     46 H1         -0.4780   -1.5140   -0.0530 hc        1 R45      0.101700
     47 H2         -0.5680   -2.5270    2.8250 hc        1 R45      0.091200
     48 H3         -2.1130   -1.8380    2.2070 hc        1 R45      0.091200
     49 H4         -0.7890   -3.5630   -0.9830 ha        1 R45      0.222000
     50 H5         -0.2810   -5.2910   -2.2530 ha        1 R45      0.155000
     51 H6         -0.3410   -6.8660   -4.1810 ha        1 R45      0.125500
     52 H7         -1.9540   -8.7720   -4.1980 ha        1 R45      0.119000
     53 H8         -3.5120   -9.0990   -2.2760 ha        1 R45      0.125500
     54 H9         -3.4650   -7.5330   -0.3460 ha        1 R45      0.155000
     55 H10         1.4920   -0.1410    1.2010 hc        1 R45      0.149200
     56 H11         1.3020   -1.4030    2.4310 hc        1 R45      0.149200
     57 H12         1.4040   -4.3090    0.8340 ho        1 R45      0.457000
     58 H13         3.2640    0.2790   -0.0300 ha        1 R45      0.200000
     59 H14         5.6820    0.7800   -0.1370 ha        1 R45      0.146000
     60 H15         6.6130   -3.3790    0.7090 ha        1 R45      0.146000
     61 H16         4.1680   -3.8750    0.8120 ha        1 R45      0.200000
     62 H17        -0.3310    0.8760   -0.4730 hn        1 R45      0.354500
     63 H18        -1.5020    2.5710    1.6060 h1        1 R45      0.085700
     64 H19        -0.1050    3.1910   -1.1160 hc        1 R45      0.064700
     65 H20        -0.8070    4.4380    0.0060 hc        1 R45      0.064700
     66 H21         1.5600    4.3150    0.4500 hc        1 R45      0.041700
     67 H22         0.7360    3.5120    1.8460 hc        1 R45      0.041700
     68 H24        -3.1270    4.1650    1.1230 hn        1 R45      0.301500
     69 H25        -4.7630    3.7290   -1.2930 h1        1 R45      0.103700
     70 H26        -5.9060    3.5390    1.2620 hc        1 R45      0.049700
     71 H27        -5.9880    5.3210    1.0110 hc        1 R45      0.049700
     72 H28        -6.8540    4.1060   -1.4890 hc        1 R45      0.033700
     73 H29        -7.6250    3.1690   -0.1530 hc        1 R45      0.033700
     74 H31        -6.0550    6.2210   -1.4430 hn        1 R45      0.320000
     75 H32        -4.8900    7.4410   -1.5580 hn        1 R45      0.320000
@<TRIPOS>BOND
     1    1    4 2   
     2    2    3 1   
     3    2    8 2   
     4    3   15 1   
     5    4    5 1   
     6    4   27 1   
     7    5    6 1   
     8    5   16 1   
     9    5   46 1   
    10    6   15 1   
    11    6   47 1   
    12    6   48 1   
    13    7    8 1   
    14    7   15 2   
    15    7   49 1   
    16    8    9 1   
    17    9   10 ar  
    18    9   14 ar  
    19   10   11 ar  
    20   10   50 1   
    21   11   12 ar  
    22   11   51 1   
    23   12   13 ar  
    24   12   52 1   
    25   13   14 ar  
    26   13   53 1   
    27   14   54 1   
    28   16   17 1   
    29   16   55 1   
    30   16   56 1   
    31   17   18 1   
    32   17   19 2   
    33   17   20 1   
    34   18   57 1   
    35   20   21 ar  
    36   20   26 ar  
    37   21   22 ar  
    38   21   58 1   
    39   22   23 ar  
    40   22   59 1   
    41   23   24 1   
    42   23   25 ar  
    43   25   26 ar  
    44   25   60 1   
    45   26   61 1   
    46   27   28 1   
    47   27   62 1   
    48   28   29 1   
    49   28   31 1   
    50   28   63 1   
    51   29   30 2   
    52   29   36 1   
    53   31   32 1   
    54   31   64 1   
    55   31   65 1   
    56   32   33 1   
    57   32   66 1   
    58   32   67 1   
    59   33   34 1   
    60   33   35 1   
    61   36   37 1   
    62   36   68 1   
    63   37   38 1   
    64   37   40 1   
    65   37   69 1   
    66   38   39 2   
    67   38   45 1   
    68   40   41 1   
    69   40   70 1   
    70   40   71 1   
    71   41   42 1   
    72   41   72 1   
    73   41   73 1   
    74   42   43 1   
    75   42   44 1   
    76   45   74 1   
    77   45   75 1   
@<TRIPOS>SUBSTRUCTURE
     1 R45         1 TEMP              0 ****  ****    0 ROOT
