@<TRIPOS>MOLECULE
R45
   75    65     1     0     0
SMALL
bcc


@<TRIPOS>ATOM
      1 O4         -1.8770    1.0140    0.1530 o         1 R45     -0.398000
      2 N1         -2.7820   -2.0010    3.2530 n2        1 R45     -0.060000
      3 O1         -2.4260   -0.8550    2.5510 os        1 R45     -0.085000
      4 C25        -0.6620    1.0010    0.1730 c1        1 R45      0.310000
      5 C17         0.0720    1.0320    1.4960 c2        1 R45     -0.090000
      6 C16        -0.9280    0.9920    2.6290 c3        1 R45     -0.098000
      7 C14        -0.8080   -1.3260    3.9740 c1        1 R45     -0.201000
      8 C13        -1.7890   -2.2840    4.1210 c1        1 R45     -0.054000
      9 C12        -1.7360   -3.4740    5.0540 c1        1 R45     -0.027000
     10 C11        -2.1860   -3.3510    6.3600 c1        1 R45     -0.110000
     11 C10        -2.1690   -4.4500    7.2050 c1        1 R45     -0.120750
     12 C7         -1.7020   -5.6710    6.7440 c1        1 R45     -0.120750
     13 C8         -1.2530   -5.7940    5.4390 c1        1 R45     -0.128000
     14 C9         -1.2700   -4.6950    4.5940 c2        1 R45     -0.092000
     15 C15        -1.2150   -0.4490    2.9990 c2        1 R45     -0.027000
     16 C18         0.8900    2.3020    1.5900 c3        1 R45     -0.940000
     17 P1          2.1770    2.1020    2.8580 p3        1 R45      2.878000
     18 O2          1.4980    1.8880    4.2680 oh        1 R45     -0.855000
     19 O3          3.0140    0.9260    2.5290 o         1 R45     -1.161000
     20 C19         3.2170    3.5910    2.9060 c1        1 R45     -0.480500
     21 C20         2.6990    4.7820    3.3900 c1        1 R45     -0.120750
     22 C21         3.5060    5.9060    3.4720 c1        1 R45     -0.120750
     23 C22         4.8320    5.8390    3.0690 c1        1 R45     -0.480500
     24 BR1         5.9250    7.4070    3.1150 br        1 R45      0.006000
     25 C23         5.3490    4.6480    2.5850 c1        1 R45     -0.062000
     26 C24         4.5420    3.5240    2.5030 c1        1 R45     -0.062000
     27 N2          0.0680    0.9160   -1.0420 n3        1 R45     -0.341000
     28 C26        -0.6220    0.8890   -2.2850 c3        1 R45      0.017000
     29 C30        -0.1270   -0.2770   -3.1110 c2        1 R45      0.285000
     30 O7          0.9040   -0.8420   -2.8070 o         1 R45     -0.391000
     31 C27        -0.3670    2.1790   -3.0300 c3        1 R45     -0.163000
     32 C28        -1.6830    2.8700   -3.3060 c3        1 R45     -0.205000
     33 C29        -1.4900    3.9090   -4.3910 c1        1 R45      0.311000
     34 O6         -2.0200    3.7450   -5.5210 o         1 R45     -0.594000
     35 O5         -0.8270    4.9530   -4.1520 os        1 R45     -0.609000
     36 N3         -0.8440   -0.6820   -4.2690 n         1 R45     -0.347000
     37 C31        -0.4190   -1.8200   -5.0060 c3        1 R45     -0.004000
     38 C35         0.8230   -1.4730   -5.7950 c1        1 R45      0.265000
     39 O10         1.0000   -0.3340   -6.1800 o         1 R45     -0.438000
     40 C32        -1.5170   -2.2450   -5.9550 c3        1 R45     -0.145000
     41 C33        -1.7230   -3.7400   -5.8500 c3        1 R45     -0.235000
     42 C34        -2.6350   -4.2030   -6.9650 c2        1 R45      0.326000
     43 O8         -2.1440   -4.6310   -8.0430 o         1 R45     -0.584500
     44 O9         -3.8830   -4.1930   -6.8030 o         1 R45     -0.584500
     45 N4          1.7580   -2.4870   -6.1270 n2        1 R45     -0.392000
     46 H1          0.6640    0.2580    1.5580 ha        1 R45      0.144000
     47 H2         -1.7580    1.4270    2.3480 hc        1 R45      0.118500
     48 H3         -0.5610    1.4600    3.4050 hc        1 R45      0.118500
     49 H4          0.0150   -1.2630    4.4950 DU        1 R45      0.213000
     50 H5         -2.5140   -2.4910    6.6840 ha        1 R45      0.134000
     51 H6         -2.4690   -4.3590    8.1290 ha        1 R45      0.130750
     52 H7         -1.6900   -6.4450    7.3390 ha        1 R45      0.130750
     53 H8         -0.9410   -6.6580    5.1090 ha        1 R45      0.155000
     54 H9         -0.9530   -4.7810    3.6750 ha        1 R45      0.176000
     55 H10         1.3100    2.4850    0.7260 hc        1 R45      0.187000
     56 H11         0.3070    3.0490    1.8330 hc        1 R45      0.187000
     57 H12         2.1110    1.6260    4.8550 ho        1 R45      0.256000
     58 H13         1.7750    4.8220    3.6990 ha        1 R45      0.130750
     59 H14         3.1440    6.7420    3.8210 ha        1 R45      0.130750
     60 H15         6.2890    4.5930    2.3280 ha        1 R45      0.202000
     61 H16         5.0450    2.7720    2.1310 ha        1 R45      0.202000
     62 H17         0.9790    0.9060   -1.0270 hn        1 R45      0.270000
     63 H18        -1.5810    0.7900   -2.1230 h1        1 R45      0.132000
     64 H19         0.2000    2.7630   -2.4880 hc        1 R45      0.097500
     65 H20         0.0820    1.9830   -3.8770 hc        1 R45      0.097500
     66 H21        -2.0000    3.3060   -2.4900 hc        1 R45      0.080000
     67 H22        -2.3420    2.2100   -3.6000 hc        1 R45      0.080000
     68 H24        -1.5690   -0.2030   -4.5470 hn        1 R45      0.225000
     69 H25        -0.2200   -2.5520   -4.3890 h1        1 R45      0.138000
     70 H26        -1.2640   -2.0140   -6.8710 hc        1 R45      0.090000
     71 H27        -2.3480   -1.7840   -5.7200 hc        1 R45      0.090000
     72 H28        -0.8600   -4.1950   -5.9250 hc        1 R45      0.072000
     73 H29        -2.1300   -3.9540   -4.9870 hc        1 R45      0.072000
     74 H31         1.7340   -3.2910   -5.6930 hn        1 R45      0.235000
     75 H32         2.3730   -2.3430   -6.7880 hn        1 R45      0.235000
@<TRIPOS>BOND
     1    1    4 1   
     2    2    3 1   
     3    2    8 1   
     4    3   15 1   
     5    4   27 1   
     6    5    6 1   
     7    5   16 1   
     8    5   46 1   
     9    6   15 1   
    10    6   47 1   
    11    6   48 1   
    12    7    8 1   
    13    7   15 1   
    14    9   10 1   
    15    9   14 1   
    16   10   50 1   
    17   11   12 1   
    18   11   51 1   
    19   12   52 1   
    20   13   14 1   
    21   13   53 1   
    22   14   54 1   
    23   16   17 1   
    24   16   55 1   
    25   16   56 1   
    26   17   18 1   
    27   17   19 1   
    28   18   57 1   
    29   20   26 1   
    30   21   22 1   
    31   21   58 1   
    32   22   59 1   
    33   23   25 1   
    34   25   60 1   
    35   26   61 1   
    36   27   28 1   
    37   27   62 1   
    38   28   29 1   
    39   28   31 1   
    40   28   63 1   
    41   29   30 1   
    42   29   36 1   
    43   31   32 1   
    44   31   64 1   
    45   31   65 1   
    46   32   33 1   
    47   32   66 1   
    48   32   67 1   
    49   33   34 1   
    50   36   37 1   
    51   36   68 1   
    52   37   38 1   
    53   37   40 1   
    54   37   69 1   
    55   38   39 1   
    56   40   41 1   
    57   40   70 1   
    58   40   71 1   
    59   41   42 1   
    60   41   72 1   
    61   41   73 1   
    62   42   43 1   
    63   42   44 1   
    64   45   74 1   
    65   45   75 1   
@<TRIPOS>SUBSTRUCTURE
     1 R45         1 TEMP              0 ****  ****    0 ROOT
