@<TRIPOS>MOLECULE
R46
   55    57     1     0     0
SMALL
bcc


@<TRIPOS>ATOM
      1 C3A         2.7830   -0.8900  -12.4910 c2        1 R46     -0.203000
      2 C2A         1.8300   -0.0300  -12.1420 c2        1 R46     -0.171200
      3 C1A         0.8080   -0.3240  -11.0890 c3        1 R46      0.200000
      4 N1          1.0370    0.3640   -9.8210 n3        1 R46     -0.729600
      5 C1B        -0.0080    0.0400   -8.8560 c3        1 R46      0.169800
      6 C2B         0.3490    0.4040   -7.4150 c3        1 R46     -0.080400
      7 C3B        -0.6770   -0.1810   -6.4680 c3        1 R46     -0.079400
      8 C4B        -0.3710    0.1970   -5.0340 c3        1 R46     -0.077400
      9 C5B        -1.3930   -0.3920   -4.0880 c3        1 R46     -0.086400
     10 C6B        -1.0680   -0.0050   -2.6560 c3        1 R46      0.128400
     11 O          -2.0910   -0.6040   -1.8490 os        1 R46     -0.327900
     12 C1C        -2.0090   -0.3670   -0.4940 ca        1 R46      0.144100
     13 C2C        -3.0480   -0.9400    0.2670 ca        1 R46     -0.188000
     14 C3C        -3.0600   -0.7650    1.6440 ca        1 R46     -0.067500
     15 N2D        -3.1370    0.4860    4.4110 nc        1 R46     -0.531200
     16 C3D        -2.0580    0.1390    3.7290 cd        1 R46      0.469500
     17 C4C        -2.0420   -0.0350    2.2770 ca        1 R46     -0.149900
     18 C5C        -1.0200    0.5360    1.5110 ca        1 R46     -0.067500
     19 C6C        -0.9960    0.3740    0.1280 ca        1 R46     -0.188000
     20 C3P        -0.8680   -0.0630    4.5640 ca        1 R46     -0.191900
     21 C4D         0.4240   -0.4600    4.2050 ca        1 R46     -0.071000
     22 C5D         1.3900   -0.5910    5.1900 ca        1 R46     -0.118000
     23 S1D        -2.8240    0.6030    6.0170 ss        1 R46      0.242600
     24 C6D         1.0790   -0.3320    6.5400 ca        1 R46     -0.007900
     25 C7D        -0.2030    0.0520    6.9160 ca        1 R46     -0.066000
     26 C7P        -1.1850    0.1840    5.9310 ca        1 R46     -0.095100
     27 BR28        2.4160   -0.5150    7.8400 br        1 R46     -0.080100
     28 C1E         1.2560    1.7840   -9.9690 c3        1 R46      0.153100
     29 H3A1        3.5020   -0.6720  -13.2920 ha        1 R46      0.113000
     30 H3A2        2.9130   -1.8660  -12.0040 ha        1 R46      0.113000
     31 H2A         1.7260    0.9480  -12.6380 ha        1 R46      0.119000
     32 H1A1        0.8100   -1.4300  -10.8640 h1        1 R46      0.033700
     33 H1A2       -0.2090   -0.0690  -11.5180 h1        1 R46      0.033700
     34 H1B1       -0.9850    0.5440   -9.1190 h1        1 R46      0.029200
     35 H1B2       -0.1830   -1.0730   -8.9000 h1        1 R46      0.029200
     36 H2B1        1.3680    0.0120   -7.1590 hc        1 R46      0.049200
     37 H2B2        0.3770    1.5180   -7.2920 hc        1 R46      0.049200
     38 H3B1       -1.7000    0.1870   -6.7430 hc        1 R46      0.042700
     39 H3B2       -0.6900   -1.2990   -6.5650 hc        1 R46      0.042700
     40 H4B1        0.6540   -0.1690   -4.7600 hc        1 R46      0.042200
     41 H4B2       -0.3620    1.3150   -4.9330 hc        1 R46      0.042200
     42 H5B1       -2.4210   -0.0260   -4.3480 hc        1 R46      0.058700
     43 H5B2       -1.4070   -1.5100   -4.1770 hc        1 R46      0.058700
     44 H6B1       -0.0660   -0.4040   -2.3460 h1        1 R46      0.040700
     45 H6B2       -1.0890    1.1080   -2.5220 h1        1 R46      0.040700
     46 H7C        -3.8370   -1.5120   -0.2410 ha        1 R46      0.147500
     47 H7P        -3.8760   -1.2010    2.2420 ha        1 R46      0.144500
     48 H4C        -0.2330    1.1300    2.0020 ha        1 R46      0.144500
     49 H5C        -0.1870    0.8330   -0.4560 ha        1 R46      0.147500
     50 H6D         0.6620   -0.6700    3.1510 ha        1 R46      0.150000
     51 H5D         2.4090   -0.9030    4.9140 ha        1 R46      0.151000
     52 H3D        -0.4530    0.2500    7.9700 ha        1 R46      0.155000
     53 H1F1        2.1570    1.9460  -10.6190 h1        1 R46      0.031367
     54 H1F2        0.3820    2.3250  -10.4270 h1        1 R46      0.031367
     55 H1F3        1.4630    2.2310   -8.9620 h1        1 R46      0.031367
@<TRIPOS>BOND
     1    1    2 2   
     2    1   29 1   
     3    1   30 1   
     4    2    3 1   
     5    2   31 1   
     6    3    4 1   
     7    3   32 1   
     8    3   33 1   
     9    4    5 1   
    10    4   28 1   
    11    5    6 1   
    12    5   34 1   
    13    5   35 1   
    14    6    7 1   
    15    6   36 1   
    16    6   37 1   
    17    7    8 1   
    18    7   38 1   
    19    7   39 1   
    20    8    9 1   
    21    8   40 1   
    22    8   41 1   
    23    9   10 1   
    24    9   42 1   
    25    9   43 1   
    26   10   11 1   
    27   10   44 1   
    28   10   45 1   
    29   11   12 1   
    30   12   13 ar  
    31   12   19 ar  
    32   13   14 ar  
    33   13   46 1   
    34   14   17 ar  
    35   14   47 1   
    36   15   16 2   
    37   15   23 1   
    38   16   17 1   
    39   16   20 1   
    40   17   18 ar  
    41   18   19 ar  
    42   18   48 1   
    43   19   49 1   
    44   20   21 ar  
    45   20   26 ar  
    46   21   22 ar  
    47   21   50 1   
    48   22   24 ar  
    49   22   51 1   
    50   23   26 1   
    51   24   25 ar  
    52   24   27 1   
    53   25   26 ar  
    54   25   52 1   
    55   28   53 1   
    56   28   54 1   
    57   28   55 1   
@<TRIPOS>SUBSTRUCTURE
     1 R46         1 TEMP              0 ****  ****    0 ROOT
