@<TRIPOS>MOLECULE
R48
   68    72     1     0     0
SMALL
bcc


@<TRIPOS>ATOM
      1 C5         -6.4640    0.6150   -0.2450 ca        1 R48     -0.240600
      2 C1S        -7.3960    0.3910    0.7880 ca        1 R48     -0.181000
      3 C2B        -8.6730    0.9540    0.7400 ca        1 R48      0.137600
      4 N1E        -9.5690    0.8170    1.8030 nh        1 R48     -0.820200
      5 C1M        -9.0300    1.7580   -0.3910 ca        1 R48     -0.150000
      6 C1P        -8.1340    1.9940   -1.3980 ca        1 R48     -0.143300
      7 C4         -6.8180    1.4350   -1.3580 ca        1 R48      0.395600
      8 N3         -5.9300    1.7020   -2.3860 nb        1 R48     -0.702000
      9 C2         -4.7260    1.1490   -2.2720 ca        1 R48      0.652900
     10 N1         -4.2540    0.3300   -1.2710 nb        1 R48     -0.761000
     11 C6         -5.1050    0.0540   -0.2600 ca        1 R48      0.682200
     12 N1Y        -4.7000   -0.7360    0.8250 nh        1 R48     -0.723300
     13 C2D        -3.4550   -1.4090    0.8740 ca        1 R48      0.156600
     14 C1Q        -2.2470   -0.7160    0.6930 ca        1 R48     -0.162000
     15 C1J        -3.4230   -2.7850    1.1970 ca        1 R48     -0.190000
     16 C1G        -2.2020   -3.4310    1.3350 ca        1 R48     -0.093000
     17 C1I        -0.9980   -2.7570    1.1560 ca        1 R48     -0.148000
     18 C2C        -1.0100   -1.3880    0.8270 ca        1 R48      0.072600
     19 N1W         0.1730   -0.6290    0.6940 n         1 R48     -0.455100
     20 C1Z         1.3790   -1.1680    0.1970 c         1 R48      0.764100
     21 O1F         1.5830   -2.3960    0.1150 o         1 R48     -0.590100
     22 N1X         2.3660   -0.2340   -0.2310 n         1 R48     -0.431100
     23 C2G         3.6950   -0.6500   -0.3530 cc        1 R48      0.017300
     24 C1R         4.2170   -1.8910   -0.7600 cd        1 R48     -0.272300
     25 C2F         5.6590   -1.7340   -0.6950 cd        1 R48      0.332600
     26 C2L         6.6330   -2.8200   -1.0350 c3        1 R48     -0.076300
     27 C1C         8.0760   -2.3550   -0.8940 c3        1 R48     -0.085100
     28 C1D         6.3960   -4.0000   -0.0970 c3        1 R48     -0.085100
     29 C1B         6.3910   -3.2600   -2.4750 c3        1 R48     -0.085100
     30 N1V         5.9810   -0.4800   -0.2820 nc        1 R48     -0.493800
     31 N2K         4.8280    0.1690   -0.0270 na        1 R48      0.121300
     32 C2E         4.7690    1.5760    0.1890 ca        1 R48      0.005800
     33 C1N         5.4960    2.1470    1.2530 ca        1 R48     -0.128000
     34 C1K         5.4180    3.5160    1.4890 ca        1 R48     -0.124000
     35 C2A         4.6270    4.3410    0.6810 ca        1 R48     -0.073300
     36 C1A         4.5590    5.7980    0.9370 c3        1 R48     -0.056800
     37 C1L         3.9210    3.7730   -0.3850 ca        1 R48     -0.124000
     38 C1O         3.9940    2.4080   -0.6430 ca        1 R48     -0.128000
     39 H1S        -7.1180   -0.2090    1.6670 ha        1 R48      0.131000
     40 HN1E       -9.4020    0.0340    2.3930 hn        1 R48      0.394800
     41 HN1A      -10.5270    0.9340    1.5570 hn        1 R48      0.394800
     42 H1M       -10.0370    2.2020   -0.4410 ha        1 R48      0.139000
     43 H1P        -8.4160    2.6220   -2.2590 ha        1 R48      0.156000
     44 H2         -3.9940    1.3500   -3.0840 h5        1 R48      0.052100
     45 HN1Y       -5.4450   -1.2400    1.2590 hn        1 R48      0.427800
     46 H1Q        -2.2660    0.3570    0.4450 ha        1 R48      0.151000
     47 H1J        -4.3560   -3.3500    1.3410 ha        1 R48      0.131000
     48 H1G        -2.1830   -4.5030    1.5890 ha        1 R48      0.138000
     49 H1I        -0.0460   -3.3040    1.2630 ha        1 R48      0.174000
     50 HN1W        0.0140    0.3460    0.5540 hn        1 R48      0.309500
     51 HN1X        2.2410    0.7250    0.0240 hn        1 R48      0.311500
     52 H1R         3.6570   -2.7800   -1.0320 ha        1 R48      0.192000
     53 H1C         8.2870   -2.0400    0.1560 hc        1 R48      0.039144
     54 H1CA        8.7670   -3.1910   -1.1610 hc        1 R48      0.039144
     55 H1CB        8.2800   -1.4940   -1.5740 hc        1 R48      0.039144
     56 H1D         5.3410   -4.3540   -0.1790 hc        1 R48      0.039144
     57 H1DA        7.0810   -4.8390   -0.3650 hc        1 R48      0.039144
     58 H1DB        6.5920   -3.7000    0.9600 hc        1 R48      0.039144
     59 H1B         6.5810   -2.4130   -3.1760 hc        1 R48      0.039144
     60 H1BA        7.0770   -4.1010   -2.7340 hc        1 R48      0.039144
     61 H1BB        5.3360   -3.6020   -2.6040 hc        1 R48      0.039144
     62 H1N         6.1320    1.5150    1.8940 ha        1 R48      0.152500
     63 H1K         5.9870    3.9540    2.3230 ha        1 R48      0.139000
     64 H1A         5.3970    6.3160    0.4050 hc        1 R48      0.048033
     65 H1AA        3.5940    6.2260    0.5710 hc        1 R48      0.048033
     66 H1AB        4.6520    6.0160    2.0300 hc        1 R48      0.048033
     67 H1L         3.3090    4.4150   -1.0370 ha        1 R48      0.139000
     68 H1O         3.4630    1.9940   -1.5150 ha        1 R48      0.152500
@<TRIPOS>BOND
     1    1    2 ar  
     2    1    7 ar  
     3    1   11 ar  
     4    2    3 ar  
     5    2   39 1   
     6    3    4 1   
     7    3    5 ar  
     8    4   40 1   
     9    4   41 1   
    10    5    6 ar  
    11    5   42 1   
    12    6    7 ar  
    13    6   43 1   
    14    7    8 ar  
    15    8    9 ar  
    16    9   10 ar  
    17    9   44 1   
    18   10   11 ar  
    19   11   12 1   
    20   12   13 1   
    21   12   45 1   
    22   13   14 ar  
    23   13   15 ar  
    24   14   18 ar  
    25   14   46 1   
    26   15   16 ar  
    27   15   47 1   
    28   16   17 ar  
    29   16   48 1   
    30   17   18 ar  
    31   17   49 1   
    32   18   19 1   
    33   19   20 1   
    34   19   50 1   
    35   20   21 2   
    36   20   22 1   
    37   22   23 1   
    38   22   51 1   
    39   23   24 2   
    40   23   31 1   
    41   24   25 1   
    42   24   52 1   
    43   25   26 1   
    44   25   30 2   
    45   26   27 1   
    46   26   28 1   
    47   26   29 1   
    48   27   53 1   
    49   27   54 1   
    50   27   55 1   
    51   28   56 1   
    52   28   57 1   
    53   28   58 1   
    54   29   59 1   
    55   29   60 1   
    56   29   61 1   
    57   30   31 1   
    58   31   32 1   
    59   32   33 ar  
    60   32   38 ar  
    61   33   34 ar  
    62   33   62 1   
    63   34   35 ar  
    64   34   63 1   
    65   35   36 1   
    66   35   37 ar  
    67   36   64 1   
    68   36   65 1   
    69   36   66 1   
    70   37   38 ar  
    71   37   67 1   
    72   38   68 1   
@<TRIPOS>SUBSTRUCTURE
     1 R48         1 TEMP              0 ****  ****    0 ROOT
