@<TRIPOS>MOLECULE
R48
   68    72     1     0     0
SMALL
bcc


@<TRIPOS>ATOM
      1 C5          0.2120    0.2010    0.2640 ca        1 R48     -0.240600
      2 C1S         1.5020    0.7470    0.1160 ca        1 R48     -0.179000
      3 C2B         2.3060    1.0070    1.2280 ca        1 R48      0.135600
      4 N1E         3.6220    1.4560    1.0850 nv        1 R48     -0.818200
      5 C1M         1.7870    0.7270    2.5340 ca        1 R48     -0.149000
      6 C1P         0.5280    0.2160    2.6970 ca        1 R48     -0.143300
      7 C4         -0.3070   -0.0580    1.5690 ca        1 R48      0.394600
      8 N3         -1.5830   -0.5570    1.7650 nb        1 R48     -0.701000
      9 C2         -2.2950   -0.7840    0.6650 ca        1 R48      0.651900
     10 N1         -1.9180   -0.6040   -0.6470 nb        1 R48     -0.760000
     11 C6         -0.6770   -0.1210   -0.8620 ca        1 R48      0.680200
     12 N1Y        -0.2150    0.1310   -2.1630 nu        1 R48     -0.722300
     13 C2D        -0.9440   -0.2220   -3.3240 ca        1 R48      0.154600
     14 C1Q        -2.2660    0.2130   -3.5110 ca        1 R48     -0.163000
     15 C1J        -0.3020   -0.9490   -4.3530 ca        1 R48     -0.189000
     16 C1G        -0.9820   -1.2170   -5.5330 ca        1 R48     -0.092000
     17 C1I        -2.2930   -0.7940   -5.7310 ca        1 R48     -0.148000
     18 C2C        -2.9510   -0.0760   -4.7140 ca        1 R48      0.071600
     19 N1W        -4.2570    0.4380   -4.8720 ns        1 R48     -0.455100
     20 C1Z        -5.2500   -0.2100   -5.6370 c         1 R48      0.764100
     21 O1F        -4.9840   -1.1060   -6.4640 o         1 R48     -0.590100
     22 N1X        -6.5960    0.1970   -5.4120 ns        1 R48     -0.431100
     23 C2G        -7.5690   -0.0870   -6.3760 cc        1 R48      0.017300
     24 C1R        -7.6990   -1.2040   -7.2210 cd        1 R48     -0.271300
     25 C2F        -8.8970   -0.9500   -8.0000 cd        1 R48      0.332600
     26 C2L        -9.4240   -1.8800   -9.0500 c3        1 R48     -0.076300
     27 C1C       -10.7070   -1.3580   -9.6810 c3        1 R48     -0.085100
     28 C1D        -8.3630   -2.0410  -10.1350 c3        1 R48     -0.085100
     29 C1B        -9.7010   -3.2350   -8.4060 c3        1 R48     -0.085100
     30 N1V        -9.4540    0.2360   -7.6410 nc        1 R48     -0.493800
     31 N2K        -8.6530    0.7910   -6.7090 na        1 R48      0.121300
     32 C2E        -9.0470    1.9170   -5.9290 ca        1 R48      0.006800
     33 C1N        -9.3840    3.1250   -6.5730 ca        1 R48     -0.128500
     34 C1K        -9.7390    4.2360   -5.8150 ca        1 R48     -0.124000
     35 C2A        -9.7700    4.1750   -4.4170 ca        1 R48     -0.073300
     36 C1A       -10.1290    5.3710   -3.6230 c3        1 R48     -0.056800
     37 C1L        -9.4550    2.9680   -3.7840 ca        1 R48     -0.124000
     38 C1O        -9.1060    1.8420   -4.5230 ca        1 R48     -0.128500
     39 H1S         1.8920    0.9880   -0.8840 ha        1 R48      0.132000
     40 HN1E        3.8090    1.9250    0.2270 hn        1 R48      0.393300
     41 HN1A        3.9860    1.9290    1.8820 hn        1 R48      0.393300
     42 H1M         2.4150    0.9230    3.4170 ha        1 R48      0.139000
     43 H1P         0.1380    0.0090    3.7070 ha        1 R48      0.156000
     44 H2         -3.3230   -1.1830    0.7970 h5        1 R48      0.052100
     45 HN1Y        0.7740    0.0190   -2.2640 hn        1 R48      0.428800
     46 H1Q        -2.7710    0.7830   -2.7140 ha        1 R48      0.150000
     47 H1J         0.7310   -1.3040   -4.2290 ha        1 R48      0.132000
     48 H1G        -0.4760   -1.7830   -6.3320 ha        1 R48      0.138000
     49 H1I        -2.8060   -1.0340   -6.6760 ha        1 R48      0.174000
     50 HN1W       -4.5640    1.0030   -4.1070 hn        1 R48      0.308500
     51 HN1X       -6.7470    1.0360   -4.8890 hn        1 R48      0.311500
     52 H1R        -7.0270   -2.0540   -7.2920 ha        1 R48      0.192000
     53 H1C       -11.5030   -1.2360   -8.9090 hc        1 R48      0.039144
     54 H1CA      -10.5300   -0.3720  -10.1730 hc        1 R48      0.039144
     55 H1CB      -11.0660   -2.0820  -10.4530 hc        1 R48      0.039144
     56 H1D        -8.1660   -1.0620  -10.6320 hc        1 R48      0.039144
     57 H1DA       -7.4100   -2.4170   -9.6930 hc        1 R48      0.039144
     58 H1DB       -8.7170   -2.7690  -10.9040 hc        1 R48      0.039144
     59 H1B       -10.4910   -3.1380   -7.6240 hc        1 R48      0.039144
     60 H1BA      -10.0510   -3.9570   -9.1820 hc        1 R48      0.039144
     61 H1BB       -8.7740   -3.6370   -7.9320 hc        1 R48      0.039144
     62 H1N        -9.3760    3.1900   -7.6720 ha        1 R48      0.152500
     63 H1K       -10.0020    5.1760   -6.3250 ha        1 R48      0.138500
     64 H1A       -10.5510    5.0830   -2.6280 hc        1 R48      0.048033
     65 H1AA      -10.8860    5.9940   -4.1600 hc        1 R48      0.048033
     66 H1AB       -9.2200    6.0000   -3.4490 hc        1 R48      0.048033
     67 H1L        -9.4950    2.9020   -2.6860 ha        1 R48      0.138500
     68 H1O        -8.9050    0.8930   -4.0010 ha        1 R48      0.152500
@<TRIPOS>BOND
     1    1    2 ar  
     2    1    7 ar  
     3    1   11 ar  
     4    2    3 ar  
     5    2   39 1   
     6    3    4 1   
     7    3    5 ar  
     8    4   40 1   
     9    4   41 1   
    10    5    6 ar  
    11    5   42 1   
    12    6    7 ar  
    13    6   43 1   
    14    7    8 ar  
    15    8    9 ar  
    16    9   10 ar  
    17    9   44 1   
    18   10   11 ar  
    19   11   12 1   
    20   12   13 1   
    21   12   45 1   
    22   13   14 ar  
    23   13   15 ar  
    24   14   18 ar  
    25   14   46 1   
    26   15   16 ar  
    27   15   47 1   
    28   16   17 ar  
    29   16   48 1   
    30   17   18 ar  
    31   17   49 1   
    32   18   19 1   
    33   19   20 1   
    34   19   50 1   
    35   20   21 2   
    36   20   22 1   
    37   22   23 1   
    38   22   51 1   
    39   23   24 2   
    40   23   31 1   
    41   24   25 1   
    42   24   52 1   
    43   25   26 1   
    44   25   30 2   
    45   26   27 1   
    46   26   28 1   
    47   26   29 1   
    48   27   53 1   
    49   27   54 1   
    50   27   55 1   
    51   28   56 1   
    52   28   57 1   
    53   28   58 1   
    54   29   59 1   
    55   29   60 1   
    56   29   61 1   
    57   30   31 1   
    58   31   32 1   
    59   32   33 ar  
    60   32   38 ar  
    61   33   34 ar  
    62   33   62 1   
    63   34   35 ar  
    64   34   63 1   
    65   35   36 1   
    66   35   37 ar  
    67   36   64 1   
    68   36   65 1   
    69   36   66 1   
    70   37   38 ar  
    71   37   67 1   
    72   38   68 1   
@<TRIPOS>SUBSTRUCTURE
     1 R48         1 TEMP              0 ****  ****    0 ROOT
