@<TRIPOS>MOLECULE
R48
   68    72     1     0     0
SMALL
bcc


@<TRIPOS>ATOM
      1 C5          0.2100    0.2190    0.2730 ca        1 R48     -0.240600
      2 C1S         1.5080    0.7490    0.1300 ca        1 R48     -0.181000
      3 C2B         2.3030    1.0190    1.2460 ca        1 R48      0.137600
      4 N1E         3.5520    1.6320    1.1190 nh        1 R48     -0.820200
      5 C1M         1.7800    0.7360    2.5490 ca        1 R48     -0.150000
      6 C1P         0.5180    0.2320    2.7070 ca        1 R48     -0.143300
      7 C4         -0.3140   -0.0390    1.5760 ca        1 R48      0.395600
      8 N3         -1.5910   -0.5370    1.7680 nb        1 R48     -0.702000
      9 C2         -2.3010   -0.7590    0.6660 ca        1 R48      0.652900
     10 N1         -1.9220   -0.5730   -0.6450 nb        1 R48     -0.761000
     11 C6         -0.6800   -0.0900   -0.8560 ca        1 R48      0.682200
     12 N1Y        -0.2220    0.1720   -2.1540 nh        1 R48     -0.723300
     13 C2D        -0.9470   -0.1770   -3.3190 ca        1 R48      0.156600
     14 C1Q        -2.2720    0.2490   -3.5050 ca        1 R48     -0.162000
     15 C1J        -0.2980   -0.8930   -4.3510 ca        1 R48     -0.190000
     16 C1G        -0.9750   -1.1620   -5.5330 ca        1 R48     -0.093000
     17 C1I        -2.2890   -0.7480   -5.7290 ca        1 R48     -0.148000
     18 C2C        -2.9540   -0.0400   -4.7100 ca        1 R48      0.072600
     19 N1W        -4.2630    0.4650   -4.8670 n         1 R48     -0.455100
     20 C1Z        -5.2510   -0.1900   -5.6330 c         1 R48      0.764100
     21 O1F        -4.9780   -1.0880   -6.4550 o         1 R48     -0.590100
     22 N1X        -6.5990    0.2110   -5.4110 n         1 R48     -0.431100
     23 C2G        -7.5690   -0.0840   -6.3750 cc        1 R48      0.017300
     24 C1R        -7.6930   -1.2060   -7.2130 cd        1 R48     -0.272300
     25 C2F        -8.8920   -0.9630   -7.9950 cd        1 R48      0.332600
     26 C2L        -9.4120   -1.9010   -9.0400 c3        1 R48     -0.076300
     27 C1C       -10.6980   -1.3900   -9.6750 c3        1 R48     -0.085100
     28 C1D        -8.3510   -2.0620  -10.1240 c3        1 R48     -0.085100
     29 C1B        -9.6820   -3.2540   -8.3890 c3        1 R48     -0.085100
     30 N1V        -9.4540    0.2240   -7.6450 nc        1 R48     -0.493800
     31 N2K        -8.6580    0.7880   -6.7140 na        1 R48      0.121300
     32 C2E        -9.0570    1.9170   -5.9430 ca        1 R48      0.005800
     33 C1N        -9.3930    3.1210   -6.5960 ca        1 R48     -0.128000
     34 C1K        -9.7530    4.2360   -5.8460 ca        1 R48     -0.124000
     35 C2A        -9.7890    4.1840   -4.4490 ca        1 R48     -0.073300
     36 C1A       -10.1820    5.3760   -3.6630 c3        1 R48     -0.056800
     37 C1L        -9.4710    2.9830   -3.8060 ca        1 R48     -0.124000
     38 C1O        -9.1180    1.8530   -4.5370 ca        1 R48     -0.128000
     39 H1S         1.9050    0.9860   -0.8690 ha        1 R48      0.131000
     40 HN1E        4.1720    1.4730    1.8810 hn        1 R48      0.394800
     41 HN1A        3.9800    1.5270    0.2270 hn        1 R48      0.394800
     42 H1M         2.4010    0.9410    3.4360 ha        1 R48      0.139000
     43 H1P         0.1220    0.0270    3.7160 ha        1 R48      0.156000
     44 H2         -3.3300   -1.1570    0.7940 h5        1 R48      0.052100
     45 HN1Y        0.7680    0.0890   -2.2590 hn        1 R48      0.427800
     46 H1Q        -2.7810    0.8110   -2.7060 ha        1 R48      0.151000
     47 H1J         0.7390   -1.2400   -4.2290 ha        1 R48      0.131000
     48 H1G        -0.4640   -1.7190   -6.3350 ha        1 R48      0.138000
     49 H1I        -2.8000   -0.9880   -6.6760 ha        1 R48      0.174000
     50 HN1W       -4.5730    1.0300   -4.1040 hn        1 R48      0.309500
     51 HN1X       -6.7550    1.0520   -4.8930 hn        1 R48      0.311500
     52 H1R        -7.0170   -2.0530   -7.2790 ha        1 R48      0.192000
     53 H1C       -11.0530   -2.1200  -10.4420 hc        1 R48      0.039144
     54 H1CA      -11.4950   -1.2680   -8.9030 hc        1 R48      0.039144
     55 H1CB      -10.5270   -0.4060  -10.1720 hc        1 R48      0.039144
     56 H1D        -8.7000   -2.7960  -10.8890 hc        1 R48      0.039144
     57 H1DA       -8.1590   -1.0840  -10.6260 hc        1 R48      0.039144
     58 H1DB       -7.3950   -2.4300   -9.6800 hc        1 R48      0.039144
     59 H1B       -10.0280   -3.9830   -9.1610 hc        1 R48      0.039144
     60 H1BA       -8.7520   -3.6480   -7.9130 hc        1 R48      0.039144
     61 H1BB      -10.4720   -3.1580   -7.6070 hc        1 R48      0.039144
     62 H1N        -9.3810    3.1790   -7.6960 ha        1 R48      0.152500
     63 H1K       -10.0130    5.1730   -6.3630 ha        1 R48      0.139000
     64 H1A        -9.8600    6.3160   -4.1760 hc        1 R48      0.048033
     65 H1AA       -9.7260    5.3540   -2.6430 hc        1 R48      0.048033
     66 H1AB      -11.2960    5.4050   -3.5480 hc        1 R48      0.048033
     67 H1L        -9.5110    2.9240   -2.7070 ha        1 R48      0.139000
     68 H1O        -8.9150    0.9080   -4.0070 ha        1 R48      0.152500
@<TRIPOS>BOND
     1    1    2 ar  
     2    1    7 ar  
     3    1   11 ar  
     4    2    3 ar  
     5    2   39 1   
     6    3    4 1   
     7    3    5 ar  
     8    4   40 1   
     9    4   41 1   
    10    5    6 ar  
    11    5   42 1   
    12    6    7 ar  
    13    6   43 1   
    14    7    8 ar  
    15    8    9 ar  
    16    9   10 ar  
    17    9   44 1   
    18   10   11 ar  
    19   11   12 1   
    20   12   13 1   
    21   12   45 1   
    22   13   14 ar  
    23   13   15 ar  
    24   14   18 ar  
    25   14   46 1   
    26   15   16 ar  
    27   15   47 1   
    28   16   17 ar  
    29   16   48 1   
    30   17   18 ar  
    31   17   49 1   
    32   18   19 1   
    33   19   20 1   
    34   19   50 1   
    35   20   21 2   
    36   20   22 1   
    37   22   23 1   
    38   22   51 1   
    39   23   24 2   
    40   23   31 1   
    41   24   25 1   
    42   24   52 1   
    43   25   26 1   
    44   25   30 2   
    45   26   27 1   
    46   26   28 1   
    47   26   29 1   
    48   27   53 1   
    49   27   54 1   
    50   27   55 1   
    51   28   56 1   
    52   28   57 1   
    53   28   58 1   
    54   29   59 1   
    55   29   60 1   
    56   29   61 1   
    57   30   31 1   
    58   31   32 1   
    59   32   33 ar  
    60   32   38 ar  
    61   33   34 ar  
    62   33   62 1   
    63   34   35 ar  
    64   34   63 1   
    65   35   36 1   
    66   35   37 ar  
    67   36   64 1   
    68   36   65 1   
    69   36   66 1   
    70   37   38 ar  
    71   37   67 1   
    72   38   68 1   
@<TRIPOS>SUBSTRUCTURE
     1 R48         1 TEMP              0 ****  ****    0 ROOT
