@<TRIPOS>MOLECULE
R48
   68    61     1     0     0
SMALL
bcc


@<TRIPOS>ATOM
      1 C5          6.3790    0.2290    0.0470 c1        1 R48     -0.110000
      2 C1S         6.2350    1.5950    0.3680 c1        1 R48     -0.181000
      3 C2B         6.8550    2.5600   -0.4110 c1        1 R48      0.056000
      4 N1E         6.7460    3.9450   -0.1280 n2        1 R48     -0.329000
      5 C1M         7.6140    2.1830   -1.5040 c2        1 R48     -0.150000
      6 C1P         7.7560    0.8420   -1.8200 c1        1 R48     -0.078000
      7 C4          7.1250   -0.1410   -1.0260 c1        1 R48      0.002000
      8 N3          7.2630   -1.4600   -1.3350 n2        1 R48     -0.176000
      9 C2          6.6520   -2.4110   -0.5660 c1        1 R48     -0.010000
     10 N1          5.9000   -2.0390    0.5170 n1        1 R48     -0.235000
     11 C6          5.7610   -0.7360    0.8250 c2        1 R48      0.161000
     12 N1Y         5.0980   -0.8340    2.0790 n3        1 R48     -0.244000
     13 C2D         3.7740   -1.3510    2.1460 c2        1 R48      0.075000
     14 C1Q         2.6910   -0.4960    2.0190 c2        1 R48     -0.162000
     15 C1J         3.5680   -2.7010    2.3820 c1        1 R48     -0.190000
     16 C1G         2.2770   -3.1960    2.4920 c1        1 R48     -0.117250
     17 C1I         1.1930   -2.3410    2.3660 c1        1 R48     -0.117250
     18 C2C         1.3990   -0.9920    2.1290 c1        1 R48      0.080000
     19 N1W         0.2910   -0.1310    1.9300 n         1 R48     -0.309000
     20 C1Z        -0.9270   -0.6500    1.4050 c2        1 R48      0.391000
     21 O1F        -1.0130   -1.8310    1.1280 o         1 R48     -0.351000
     22 N1X        -1.9720    0.2410    1.0360 n         1 R48     -0.285000
     23 C2G        -3.1160   -0.2490    0.3460 c2        1 R48      0.049000
     24 C1R        -3.6250   -1.5110    0.4370 c1        1 R48     -0.207000
     25 C2F        -4.7930   -1.5470   -0.2790 c1        1 R48     -0.090000
     26 C2L        -5.6400   -2.7740   -0.5350 c2        1 R48      0.018000
     27 C1C        -6.5970   -2.4980   -1.6810 c3        1 R48     -0.203000
     28 C1D        -4.7460   -3.9350   -0.8940 c3        1 R48     -0.203000
     29 C1B        -6.4260   -3.1110    0.7070 c3        1 R48     -0.203000
     30 N1V        -4.9980   -0.3250   -0.8010 n2        1 R48     -0.061000
     31 N2K        -3.9550    0.4850   -0.4140 n3        1 R48     -0.118000
     32 C2E        -3.7470    1.7370   -0.8200 c1        1 R48      0.051000
     33 C1N        -4.3980    2.7840   -0.1900 c1        1 R48     -0.117250
     34 C1K        -4.1050    4.0920   -0.5390 c1        1 R48     -0.117250
     35 C2A        -3.1580    4.3530   -1.5190 c1        1 R48     -0.066000
     36 C1A        -2.7980    5.7780   -1.8590 c3        1 R48     -0.182000
     37 C1L        -2.5070    3.3060   -2.1490 c1        1 R48     -0.124000
     38 C1O        -2.8000    1.9980   -1.8000 c1        1 R48     -0.152000
     39 H1S         5.7170    1.8610    1.1540 ha        1 R48      0.131000
     40 HN1E        6.1830    4.2330    0.5320 hn        1 R48      0.190000
     41 HN1A        7.2390    4.5490   -0.6040 hn        1 R48      0.190000
     42 H1M         8.0510    2.8630   -2.0540 ha        1 R48      0.139000
     43 H1P         8.2920    0.5760   -2.5920 ha        1 R48      0.156000
     44 H2          6.7520   -3.3580   -0.7880 ha        1 R48      0.189000
     45 HN1Y        5.5210   -0.5650    2.8400 hn        1 R48      0.223000
     46 H1Q         2.8360    0.4560    1.8530 ha        1 R48      0.151000
     47 H1J         4.3310   -3.3030    2.4710 ha        1 R48      0.131000
     48 H1G         2.1320   -4.1470    2.6590 ha        1 R48      0.152250
     49 H1I         0.2840   -2.6900    2.4430 ha        1 R48      0.152250
     50 HN1W        0.3890    0.7640    2.0440 hn        1 R48      0.223000
     51 HN1X       -1.9080    1.1290    1.2410 hn        1 R48      0.225000
     52 H1R        -3.2490   -2.2440    0.9550 DU        1 R48      0.192000
     53 H1C        -7.1740   -1.7400   -1.4490 hc        1 R48      0.078444
     54 H1CA       -6.0860   -2.2840   -2.4880 hc        1 R48      0.078444
     55 H1CB       -7.1490   -3.2920   -1.8440 hc        1 R48      0.078444
     56 H1D        -4.0720   -3.6390   -1.5360 hc        1 R48      0.078444
     57 H1DA       -4.3030   -4.2680   -0.0860 hc        1 R48      0.078444
     58 H1DB       -5.2840   -4.6510   -1.2920 hc        1 R48      0.078444
     59 H1B        -6.9810   -3.9030    0.5390 hc        1 R48      0.078444
     60 H1BA       -5.8090   -3.2950    1.4440 hc        1 R48      0.078444
     61 H1BB       -7.0000   -2.3550    0.9440 hc        1 R48      0.078444
     62 H1N        -5.0640    2.6000    0.4990 ha        1 R48      0.152250
     63 H1K        -4.5630    4.8290   -0.0960 ha        1 R48      0.152250
     64 H1A        -3.4060    6.1130   -2.5500 hc        1 R48      0.087333
     65 H1AA       -1.8760    5.8120   -2.1900 hc        1 R48      0.087333
     66 H1AB       -2.8770    6.3360   -1.0560 hc        1 R48      0.087333
     67 H1L        -1.8420    3.4890   -2.8370 ha        1 R48      0.138000
     68 H1O        -2.3410    1.2600   -2.2440 ha        1 R48      0.148000
@<TRIPOS>BOND
     1    1    7 1   
     2    1   11 1   
     3    2    3 1   
     4    2   39 1   
     5    3    5 1   
     6    4   40 1   
     7    4   41 1   
     8    5    6 1   
     9    5   42 1   
    10    6   43 1   
    11    7    8 1   
    12    8    9 1   
    13    9   44 1   
    14   10   11 1   
    15   11   12 1   
    16   12   13 1   
    17   12   45 1   
    18   13   14 1   
    19   13   15 1   
    20   14   18 1   
    21   14   46 1   
    22   15   47 1   
    23   16   17 1   
    24   16   48 1   
    25   17   49 1   
    26   18   19 1   
    27   19   20 1   
    28   19   50 1   
    29   20   21 1   
    30   20   22 1   
    31   22   23 1   
    32   22   51 1   
    33   23   24 1   
    34   23   31 1   
    35   24   25 1   
    36   25   30 1   
    37   26   27 1   
    38   26   28 1   
    39   26   29 1   
    40   27   53 1   
    41   27   54 1   
    42   27   55 1   
    43   28   56 1   
    44   28   57 1   
    45   28   58 1   
    46   29   59 1   
    47   29   60 1   
    48   29   61 1   
    49   30   31 1   
    50   31   32 1   
    51   32   38 1   
    52   33   34 1   
    53   33   62 1   
    54   34   63 1   
    55   35   36 1   
    56   35   37 1   
    57   36   64 1   
    58   36   65 1   
    59   36   66 1   
    60   37   67 1   
    61   38   68 1   
@<TRIPOS>SUBSTRUCTURE
     1 R48         1 TEMP              0 ****  ****    0 ROOT
