@<TRIPOS>MOLECULE
R48
   72    76     1     0     0
SMALL
bcc


@<TRIPOS>ATOM
      1 C5          0.5380    0.3420   -0.3980 ca        1 R48     -0.249600
      2 C1S         1.3190   -0.8300   -0.2380 ca        1 R48     -0.101000
      3 C2B         2.4030   -0.8220    0.6300 ca        1 R48      0.019600
      4 N1E         3.2420   -2.0100    0.8180 n4        1 R48     -0.719000
      5 C1M         2.7500    0.3430    1.3760 ca        1 R48     -0.094000
      6 C1P         2.0130    1.4900    1.2340 ca        1 R48     -0.078300
      7 C4          0.8910    1.5310    0.3410 ca        1 R48      0.458600
      8 N3          0.1860    2.7090    0.2130 nb        1 R48     -0.567000
      9 C2         -0.8420    2.7220   -0.6290 ca        1 R48      0.695900
     10 N1         -1.2850    1.6480   -1.3910 nb        1 R48     -0.668000
     11 C6         -0.6170    0.5050   -1.2610 ca        1 R48      0.527200
     12 N1Y        -1.1030   -0.6480   -2.0850 n4        1 R48     -0.637100
     13 C2D        -2.5300   -0.5910   -2.4570 ca        1 R48     -0.000400
     14 C1Q        -2.9310    0.0590   -3.6390 ca        1 R48     -0.044000
     15 C1J        -3.4790   -1.2050   -1.6150 ca        1 R48     -0.032000
     16 C1G        -4.8260   -1.1970   -1.9780 ca        1 R48     -0.062000
     17 C1I        -5.2490   -0.5870   -3.1580 ca        1 R48     -0.042000
     18 C2C        -4.2970    0.0370   -3.9890 ca        1 R48     -0.039400
     19 N1W        -4.7420    0.6250   -5.2650 n4        1 R48     -0.513200
     20 C1Z        -5.3540    2.0000   -5.1120 c         1 R48      0.462100
     21 O1F        -4.9990    2.7430   -4.2160 o         1 R48     -0.299100
     22 N1X        -6.3970    2.4170   -6.1270 n4        1 R48     -0.421200
     23 C2G        -6.9710    1.3220   -6.8350 cc        1 R48     -0.317700
     24 C1R        -6.4400    0.6320   -7.9810 cd        1 R48     -0.233300
     25 C2F        -7.4770   -0.2540   -8.3800 cd        1 R48      0.386600
     26 C2L        -7.4660   -1.2120   -9.5380 c3        1 R48     -0.090300
     27 C1C        -8.5840   -0.8360  -10.5090 c3        1 R48     -0.098767
     28 C1D        -6.1260   -1.1270  -10.2560 c3        1 R48     -0.098767
     29 C1B        -7.6880   -2.6310   -9.0290 c3        1 R48     -0.098767
     30 N1V        -8.5720   -0.1030   -7.5260 nc        1 R48     -0.360800
     31 N2K        -8.2900    0.8050   -6.6270 na        1 R48      0.294300
     32 C2E        -9.2160    1.3710   -5.6860 ca        1 R48     -0.120200
     33 C1N       -10.5420    1.6350   -6.0780 ca        1 R48     -0.114000
     34 C1K       -11.4280    2.1900   -5.1550 ca        1 R48     -0.102500
     35 C2A       -11.0240    2.4820   -3.8470 ca        1 R48      0.017700
     36 C1A       -11.9800    3.0630   -2.8820 c3        1 R48     -0.093800
     37 C1L        -9.6990    2.1950   -3.4640 ca        1 R48     -0.102500
     38 C1O        -8.8000    1.6380   -4.3620 ca        1 R48     -0.114000
     39 H1S         1.0740   -1.7410   -0.8080 ha        1 R48      0.140000
     40 HN1E        4.2190   -1.7850    0.5610 hn        1 R48      0.489133
     41 HN1A        2.9200   -2.7970    0.2430 hn        1 R48      0.489133
     42 H1M         3.6140    0.3380    2.0720 ha        1 R48      0.210000
     43 H1P         2.2780    2.4060    1.8080 ha        1 R48      0.237000
     44 H2         -1.4190    3.6730   -0.7490 h5        1 R48      0.127100
     45 HN1Y       -0.5310   -0.6830   -2.9430 hn        1 R48      0.480300
     46 H1Q        -2.1880    0.5740   -4.2760 ha        1 R48      0.181000
     47 H1J        -3.1880   -1.7020   -0.6690 ha        1 R48      0.200000
     48 H1G        -5.5730   -1.6880   -1.3180 ha        1 R48      0.228000
     49 H1I        -6.3260   -0.6150   -3.4170 ha        1 R48      0.198000
     50 HN1W       -3.9350    0.7100   -5.9070 hn        1 R48      0.507300
     51 HN1X       -7.1380    2.9450   -5.5980 hn        1 R48      0.529800
     52 H1R        -5.4880    0.7910   -8.4820 ha        1 R48      0.198000
     53 H1C        -8.4650    0.2150  -10.8620 hc        1 R48      0.059589
     54 H1CA       -8.5400   -1.5150  -11.3970 hc        1 R48      0.059589
     55 H1CB       -9.5840   -0.9530  -10.0280 hc        1 R48      0.059589
     56 H1D        -5.9590   -0.1040  -10.6700 hc        1 R48      0.059589
     57 H1DA       -6.1190   -1.8530  -11.1080 hc        1 R48      0.059589
     58 H1DB       -5.2880   -1.3890   -9.5670 hc        1 R48      0.059589
     59 H1B        -6.8970   -2.9170   -8.2970 hc        1 R48      0.059589
     60 H1BA       -8.6910   -2.7320   -8.5480 hc        1 R48      0.059589
     61 H1BB       -7.6450   -3.3420   -9.8930 hc        1 R48      0.059589
     62 H1N       -10.8980    1.4080   -7.1000 ha        1 R48      0.133000
     63 H1K       -12.4710    2.3950   -5.4650 ha        1 R48      0.181500
     64 H1A       -12.7540    2.2980   -2.6050 hc        1 R48      0.088033
     65 H1AA      -12.5160    3.9370   -3.3350 hc        1 R48      0.088033
     66 H1AB      -11.4730    3.4030   -1.9460 hc        1 R48      0.088033
     67 H1L        -9.3840    2.4030   -2.4280 ha        1 R48      0.181500
     68 H1O        -7.7990    1.3490   -4.0090 ha        1 R48      0.133000
     69 H1E3        3.2240   -2.2920    1.8130 hn        1 R48      0.489133
     70 H1Y2       -0.9480   -1.5100   -1.5410 hn        1 R48      0.480300
     71 H1W2       -5.4370   -0.0200   -5.7040 hn        1 R48      0.507300
     72 H1X2       -5.9410    3.0610   -6.8060 hn        1 R48      0.529800
@<TRIPOS>BOND
     1    1    2 ar  
     2    1    7 ar  
     3    1   11 ar  
     4    2    3 ar  
     5    2   39 1   
     6    3    4 1   
     7    3    5 ar  
     8    4   40 1   
     9    4   41 1   
    10    4   69 1   
    11    5    6 ar  
    12    5   42 1   
    13    6    7 ar  
    14    6   43 1   
    15    7    8 ar  
    16    8    9 ar  
    17    9   10 ar  
    18    9   44 1   
    19   10   11 ar  
    20   11   12 1   
    21   12   13 1   
    22   12   45 1   
    23   12   70 1   
    24   13   14 ar  
    25   13   15 ar  
    26   14   18 ar  
    27   14   46 1   
    28   15   16 ar  
    29   15   47 1   
    30   16   17 ar  
    31   16   48 1   
    32   17   18 ar  
    33   17   49 1   
    34   18   19 1   
    35   19   20 1   
    36   19   50 1   
    37   19   71 1   
    38   20   21 2   
    39   20   22 1   
    40   22   23 1   
    41   22   51 1   
    42   22   72 1   
    43   23   24 2   
    44   23   31 1   
    45   24   25 1   
    46   24   52 1   
    47   25   26 1   
    48   25   30 2   
    49   26   27 1   
    50   26   28 1   
    51   26   29 1   
    52   27   53 1   
    53   27   54 1   
    54   27   55 1   
    55   28   56 1   
    56   28   57 1   
    57   28   58 1   
    58   29   59 1   
    59   29   60 1   
    60   29   61 1   
    61   30   31 1   
    62   31   32 1   
    63   32   33 ar  
    64   32   38 ar  
    65   33   34 ar  
    66   33   62 1   
    67   34   35 ar  
    68   34   63 1   
    69   35   36 1   
    70   35   37 ar  
    71   36   64 1   
    72   36   65 1   
    73   36   66 1   
    74   37   38 ar  
    75   37   67 1   
    76   38   68 1   
@<TRIPOS>SUBSTRUCTURE
     1 R48         1 TEMP              0 ****  ****    0 ROOT
