@<TRIPOS>MOLECULE
R49
   73    77     1     0     0
SMALL
bcc


@<TRIPOS>ATOM
      1 CAA         0.7870   -0.5770   -0.7460 c3        1 R49     -0.092800
      2 CBA         2.1140   -1.0220   -0.2670 ca        1 R49      0.004700
      3 CAR         2.6430   -0.4880    0.9240 ca        1 R49     -0.068000
      4 CAI         2.8590   -1.9560   -0.9930 ca        1 R49     -0.083000
      5 CAG         4.1300   -2.3450   -0.5580 ca        1 R49     -0.075000
      6 CAJ         4.6700   -1.8230    0.6120 ca        1 R49     -0.227000
      7 CBE         3.9110   -0.8970    1.3630 ca        1 R49     -0.082200
      8 NBK         4.4530   -0.3640    2.5840 na        1 R49      0.276300
      9 NAV         4.3180    0.8670    3.0110 nc        1 R49     -0.356800
     10 CBG         4.8030    0.9510    4.3160 cd        1 R49      0.381600
     11 CBL         4.7900    2.2230    5.1170 c3        1 R49     -0.090300
     12 CAC         5.6060    3.2880    4.3950 c3        1 R49     -0.098767
     13 CAD         3.3500    2.7020    5.2740 c3        1 R49     -0.098767
     14 CAB         5.3890    1.9630    6.4930 c3        1 R49     -0.098767
     15 CAS         5.2670   -0.3290    4.7330 cd        1 R49     -0.219300
     16 CBH         5.0400   -1.1840    3.6010 cc        1 R49     -0.317700
     17 NAX         5.2000   -2.5980    3.5220 n4        1 R49     -0.422200
     18 CAZ         6.6310   -3.0280    3.2890 c         1 R49      0.466100
     19 OAF         6.9560   -4.2000    3.2710 o         1 R49     -0.300100
     20 NAW         7.6540   -1.9330    3.0760 n4        1 R49     -0.516200
     21 CBC         9.0480   -2.4090    3.1340 ca        1 R49     -0.008400
     22 CAM         9.6890   -2.8450    1.9600 ca        1 R49     -0.062500
     23 CAO        11.0340   -3.2200    2.0000 ca        1 R49     -0.071000
     24 CAL         9.7510   -2.3760    4.3530 ca        1 R49     -0.062500
     25 CAN        11.0950   -2.7510    4.3910 ca        1 R49     -0.071000
     26 CBD        11.7470   -3.1630    3.2120 ca        1 R49      0.019600
     27 NAY        13.1890   -3.4660    3.2350 n4        1 R49     -0.518800
     28 CBF        13.5540   -4.8750    3.4880 ca        1 R49     -0.020400
     29 CBJ        14.9540   -5.2440    3.5190 ca        1 R49     -0.138300
     30 CAT        16.0380   -4.3530    3.3240 ca        1 R49     -0.121000
     31 CBB        17.3450   -4.8270    3.3780 ca        1 R49      0.015600
     32 NAE        18.4910   -3.9330    3.1800 n4        1 R49     -0.718000
     33 CAP        17.6260   -6.1980    3.6260 ca        1 R49     -0.107000
     34 CAQ        16.5900   -7.0790    3.8180 ca        1 R49     -0.070300
     35 CBI        15.2310   -6.6310    3.7710 ca        1 R49      0.436600
     36 NAU        14.2380   -7.5730    3.9720 nb        1 R49     -0.549000
     37 CAH        12.9830   -7.1870    3.9330 ca        1 R49      0.452200
     38 CAK        12.5780   -5.8280    3.6910 ca        1 R49     -0.158300
     39 HAA         0.9110    0.2770   -1.4640 hc        1 R49      0.089700
     40 HAAA        0.1400   -0.2300    0.0980 hc        1 R49      0.089700
     41 HAAB        0.2560   -1.4040   -1.2830 hc        1 R49      0.089700
     42 HAR         2.0460    0.2520    1.4880 ha        1 R49      0.192000
     43 HAI         2.4460   -2.3800   -1.9280 ha        1 R49      0.193000
     44 HAG         4.7110   -3.0620   -1.1620 ha        1 R49      0.165000
     45 HAJ         5.7050   -2.0720    0.8820 ha        1 R49      0.062000
     46 HAC         6.6580    2.9470    4.2450 hc        1 R49      0.059478
     47 HACA        5.1540    3.5350    3.4040 hc        1 R49      0.059478
     48 HACB        5.6200    4.2210    5.0120 hc        1 R49      0.059478
     49 HAD         2.9060    2.9630    4.2840 hc        1 R49      0.059478
     50 HADA        2.7230    1.9190    5.7630 hc        1 R49      0.059478
     51 HADB        3.3360    3.6180    5.9170 hc        1 R49      0.059478
     52 HAB         4.7840    1.2110    7.0560 hc        1 R49      0.059478
     53 HABA        6.4420    1.6040    6.4090 hc        1 R49      0.059478
     54 HABB        5.3890    2.9170    7.0800 hc        1 R49      0.059478
     55 HAS         5.6500   -0.5970    5.7150 ha        1 R49      0.202000
     56 HNAX        4.8880   -3.0300    4.4190 hn        1 R49      0.532800
     57 HNAW        7.5090   -1.1910    3.7910 hn        1 R49      0.510800
     58 HAM         9.1640   -2.8950    0.9860 ha        1 R49      0.200500
     59 HAO        11.5120   -3.5520    1.0560 ha        1 R49      0.207500
     60 HAL         9.2760   -2.0450    5.2980 ha        1 R49      0.200500
     61 HAN        11.6230   -2.7070    5.3640 ha        1 R49      0.207500
     62 HNAY       13.6290   -2.8900    3.9720 hn        1 R49      0.477800
     63 HAT        15.8520   -3.2850    3.1300 ha        1 R49      0.130000
     64 HNAE       18.1920   -2.9670    3.0080 hn        1 R49      0.485467
     65 HNAA       19.0480   -4.2620    2.3740 hn        1 R49      0.485467
     66 HAP        18.6690   -6.5720    3.6680 ha        1 R49      0.205000
     67 HAQ        16.7980   -8.1550    4.0130 ha        1 R49      0.232000
     68 HAH        12.2100   -7.9720    4.1000 h4        1 R49      0.097100
     69 HAK        11.4990   -5.6070    3.6780 ha        1 R49      0.171000
     70 HAX2        4.6260   -2.9930    2.7340 hn        1 R49      0.532800
     71 HAW2        7.4780   -1.5090    2.1430 hn        1 R49      0.510800
     72 HAY2       13.5900   -3.1960    2.3210 hn        1 R49      0.477800
     73 HAE3       19.0910   -3.9540    4.0210 hn        1 R49      0.485467
@<TRIPOS>BOND
     1    1    2 1   
     2    1   39 1   
     3    1   40 1   
     4    1   41 1   
     5    2    3 ar  
     6    2    4 ar  
     7    3    7 ar  
     8    3   42 1   
     9    4    5 ar  
    10    4   43 1   
    11    5    6 ar  
    12    5   44 1   
    13    6    7 ar  
    14    6   45 1   
    15    7    8 1   
    16    8    9 1   
    17    8   16 1   
    18    9   10 2   
    19   10   11 1   
    20   10   15 1   
    21   11   12 1   
    22   11   13 1   
    23   11   14 1   
    24   12   46 1   
    25   12   47 1   
    26   12   48 1   
    27   13   49 1   
    28   13   50 1   
    29   13   51 1   
    30   14   52 1   
    31   14   53 1   
    32   14   54 1   
    33   15   16 2   
    34   15   55 1   
    35   16   17 1   
    36   17   18 1   
    37   17   56 1   
    38   17   70 1   
    39   18   19 2   
    40   18   20 1   
    41   20   21 1   
    42   20   57 1   
    43   20   71 1   
    44   21   22 ar  
    45   21   24 ar  
    46   22   23 ar  
    47   22   58 1   
    48   23   26 ar  
    49   23   59 1   
    50   24   25 ar  
    51   24   60 1   
    52   25   26 ar  
    53   25   61 1   
    54   26   27 1   
    55   27   28 1   
    56   27   62 1   
    57   27   72 1   
    58   28   29 ar  
    59   28   38 ar  
    60   29   30 ar  
    61   29   35 ar  
    62   30   31 ar  
    63   30   63 1   
    64   31   32 1   
    65   31   33 ar  
    66   32   64 1   
    67   32   65 1   
    68   32   73 1   
    69   33   34 ar  
    70   33   66 1   
    71   34   35 ar  
    72   34   67 1   
    73   35   36 ar  
    74   36   37 ar  
    75   37   38 ar  
    76   37   68 1   
    77   38   69 1   
@<TRIPOS>SUBSTRUCTURE
     1 R49         1 TEMP              0 ****  ****    0 ROOT
