@<TRIPOS>MOLECULE
R49
   69    73     1     0     0
SMALL
bcc


@<TRIPOS>ATOM
      1 CAA         0.3410   -0.6270   -0.3970 c3        1 R49     -0.057800
      2 CBA         1.7980   -0.4170   -0.2270 ca        1 R49     -0.063300
      3 CAR         2.3220   -0.2040    1.0520 ca        1 R49     -0.119000
      4 CAI         2.6490   -0.4190   -1.3360 ca        1 R49     -0.132000
      5 CAG         4.0130   -0.1920   -1.1700 ca        1 R49     -0.117000
      6 CAJ         4.5490    0.0330    0.0940 ca        1 R49     -0.158000
      7 CBE         3.7020    0.0150    1.2220 ca        1 R49      0.017800
      8 NBK         4.2560    0.2440    2.5160 na        1 R49      0.124300
      9 NAV         3.6430    0.9930    3.4550 nc        1 R49     -0.495800
     10 CBG         4.2810    0.7720    4.6340 cd        1 R49      0.335600
     11 CBL         3.9820    1.4570    5.9310 c3        1 R49     -0.076300
     12 CAC         5.2280    2.2130    6.3810 c3        1 R49     -0.085100
     13 CAD         2.8240    2.4380    5.8040 c3        1 R49     -0.085100
     14 CAB         3.6260    0.4000    6.9720 c3        1 R49     -0.085100
     15 CAS         5.3170   -0.2320    4.4680 cd        1 R49     -0.270300
     16 CBH         5.2650   -0.5900    3.1100 cc        1 R49      0.021300
     17 NAX         5.9960   -1.5550    2.4140 ns        1 R49     -0.438100
     18 CAZ         7.3750   -1.7390    2.7040 c         1 R49      0.761100
     19 OAF         7.8800   -1.2710    3.7440 o         1 R49     -0.591100
     20 NAW         8.1270   -2.4780    1.7620 ns        1 R49     -0.451100
     21 CBC         9.4040   -2.9970    2.0670 ca        1 R49      0.030600
     22 CAM         9.7910   -4.2400    1.5200 ca        1 R49     -0.129000
     23 CAO        11.0640   -4.7470    1.7380 ca        1 R49     -0.143500
     24 CAL        10.3420   -2.2820    2.8400 ca        1 R49     -0.129000
     25 CAN        11.6150   -2.7910    3.0570 ca        1 R49     -0.143500
     26 CBD        12.0050   -4.0330    2.5130 ca        1 R49      0.118600
     27 NAY        13.3240   -4.5110    2.6470 nu        1 R49     -0.622000
     28 CBF        13.9610   -4.6110    3.8920 ca        1 R49      0.182600
     29 CBJ        15.3550   -5.0180    3.9380 ca        1 R49     -0.124300
     30 CAT        16.1050   -5.3160    2.7770 ca        1 R49     -0.190000
     31 CBB        17.4330   -5.7310    2.8580 ca        1 R49      0.133600
     32 NAE        18.1470   -6.1170    1.7170 nv        1 R49     -0.816200
     33 CAP        18.0450   -5.8350    4.1490 ca        1 R49     -0.161000
     34 CAQ        17.3430   -5.5310    5.2820 ca        1 R49     -0.137300
     35 CBI        15.9770   -5.1050    5.2200 ca        1 R49      0.378600
     36 NAU        15.3240   -4.7920    6.3970 nb        1 R49     -0.672000
     37 CAH        14.0650   -4.4090    6.3100 ca        1 R49      0.426200
     38 CAK        13.3300   -4.3110    5.0940 ca        1 R49     -0.312300
     39 HAA        -0.1840    0.3610   -0.4270 hc        1 R49      0.049367
     40 HAAA       -0.0790   -1.2180    0.4550 hc        1 R49      0.049367
     41 HAAB        0.1210   -1.1710   -1.3480 hc        1 R49      0.049367
     42 HAR         1.6440   -0.1980    1.9200 ha        1 R49      0.157000
     43 HAI         2.2380   -0.5930   -2.3420 ha        1 R49      0.138000
     44 HAG         4.6770   -0.1780   -2.0490 ha        1 R49      0.137000
     45 HAJ         5.6230    0.2520    0.1980 ha        1 R49      0.144000
     46 HAC         5.0420    2.6930    7.3720 hc        1 R49      0.039367
     47 HACA        5.4880    3.0070    5.6410 hc        1 R49      0.039367
     48 HACB        6.0940    1.5140    6.4760 hc        1 R49      0.039367
     49 HAD         1.8950    1.9100    5.4820 hc        1 R49      0.039367
     50 HADA        3.0620    3.2320    5.0560 hc        1 R49      0.039367
     51 HADB        2.6340    2.9240    6.7920 hc        1 R49      0.039367
     52 HAB         3.4440    0.8880    7.9590 hc        1 R49      0.039367
     53 HABA        2.7030   -0.1490    6.6680 hc        1 R49      0.039367
     54 HABB        4.4600   -0.3340    7.0810 hc        1 R49      0.039367
     55 HAS         6.0080   -0.6050    5.2180 ha        1 R49      0.190000
     56 HNAX        5.6710   -1.7650    1.4930 hn        1 R49      0.316500
     57 HNAW        7.6180   -3.0220    1.0970 hn        1 R49      0.305500
     58 HAM         9.0870   -4.8280    0.9110 ha        1 R49      0.151500
     59 HAO        11.3310   -5.7190    1.2940 ha        1 R49      0.143500
     60 HAL        10.0690   -1.3120    3.2890 ha        1 R49      0.151500
     61 HAN        12.3300   -2.2040    3.6570 ha        1 R49      0.143500
     62 HNAY       13.5580   -5.2450    2.0100 hn        1 R49      0.421800
     63 HAT        15.6430   -5.2080    1.7840 ha        1 R49      0.131000
     64 HNAE       19.1370   -6.0480    1.8140 hn        1 R49      0.389300
     65 HNAA       17.8100   -5.7190    0.8690 hn        1 R49      0.389300
     66 HAP        19.0920   -6.1680    4.2250 ha        1 R49      0.136000
     67 HAQ        17.8260   -5.6090    6.2710 ha        1 R49      0.152000
     68 HAH        13.5610   -4.1620    7.2630 h4        1 R49      0.022100
     69 HAK        12.2740   -4.0120    5.1400 ha        1 R49      0.154000
@<TRIPOS>BOND
     1    1    2 1   
     2    1   39 1   
     3    1   40 1   
     4    1   41 1   
     5    2    3 ar  
     6    2    4 ar  
     7    3    7 ar  
     8    3   42 1   
     9    4    5 ar  
    10    4   43 1   
    11    5    6 ar  
    12    5   44 1   
    13    6    7 ar  
    14    6   45 1   
    15    7    8 1   
    16    8    9 1   
    17    8   16 1   
    18    9   10 2   
    19   10   11 1   
    20   10   15 1   
    21   11   12 1   
    22   11   13 1   
    23   11   14 1   
    24   12   46 1   
    25   12   47 1   
    26   12   48 1   
    27   13   49 1   
    28   13   50 1   
    29   13   51 1   
    30   14   52 1   
    31   14   53 1   
    32   14   54 1   
    33   15   16 2   
    34   15   55 1   
    35   16   17 1   
    36   17   18 1   
    37   17   56 1   
    38   18   19 2   
    39   18   20 1   
    40   20   21 1   
    41   20   57 1   
    42   21   22 ar  
    43   21   24 ar  
    44   22   23 ar  
    45   22   58 1   
    46   23   26 ar  
    47   23   59 1   
    48   24   25 ar  
    49   24   60 1   
    50   25   26 ar  
    51   25   61 1   
    52   26   27 1   
    53   27   28 1   
    54   27   62 1   
    55   28   29 ar  
    56   28   38 ar  
    57   29   30 ar  
    58   29   35 ar  
    59   30   31 ar  
    60   30   63 1   
    61   31   32 1   
    62   31   33 ar  
    63   32   64 1   
    64   32   65 1   
    65   33   34 ar  
    66   33   66 1   
    67   34   35 ar  
    68   34   67 1   
    69   35   36 ar  
    70   36   37 ar  
    71   37   38 ar  
    72   37   68 1   
    73   38   69 1   
@<TRIPOS>SUBSTRUCTURE
     1 R49         1 TEMP              0 ****  ****    0 ROOT
