@<TRIPOS>MOLECULE
R49
   69    73     1     0     0
SMALL
bcc


@<TRIPOS>ATOM
      1 CAA         8.8370    2.5880    1.1290 c3        1 R49     -0.057800
      2 CBA         7.5650    2.3770    0.4000 ca        1 R49     -0.063300
      3 CAR         6.9670    1.1130    0.4000 ca        1 R49     -0.119000
      4 CAI         6.9630    3.4300   -0.2970 ca        1 R49     -0.132000
      5 CAG         5.7820    3.2160   -1.0030 ca        1 R49     -0.117000
      6 CAJ         5.1810    1.9610   -1.0220 ca        1 R49     -0.158000
      7 CBE         5.7680    0.8980   -0.3040 ca        1 R49      0.017800
      8 NBK         5.1480   -0.3860   -0.3260 na        1 R49      0.124300
      9 NAV         5.8450   -1.5370   -0.4190 nc        1 R49     -0.495800
     10 CBG         4.9940   -2.5540   -0.1260 cd        1 R49      0.335600
     11 CBL         5.3240   -4.0140   -0.1830 c3        1 R49     -0.076300
     12 CAC         4.4080   -4.6810   -1.2040 c3        1 R49     -0.085100
     13 CAD         6.7730   -4.2550   -0.5840 c3        1 R49     -0.085100
     14 CAB         5.0800   -4.6240    1.1930 c3        1 R49     -0.085100
     15 CAS         3.6920   -2.0320    0.2510 cd        1 R49     -0.270300
     16 CBH         3.8170   -0.6350    0.1550 cc        1 R49      0.021300
     17 NAX         2.8910    0.3650    0.4610 n         1 R49     -0.438100
     18 CAZ         1.5210    0.1790    0.1370 c         1 R49      0.761100
     19 OAF         1.0760   -0.9520   -0.1500 o         1 R49     -0.591100
     20 NAW         0.7020    1.3310    0.1640 n         1 R49     -0.451100
     21 CBC        -0.7080    1.2460    0.1710 ca        1 R49      0.030600
     22 CAM        -1.4520    2.1970    0.9040 ca        1 R49     -0.129000
     23 CAO        -2.8380    2.1890    0.8760 ca        1 R49     -0.144000
     24 CAL        -1.4090    0.2870   -0.5890 ca        1 R49     -0.129000
     25 CAN        -2.7960    0.2820   -0.6160 ca        1 R49     -0.144000
     26 CBD        -3.5420    1.2300    0.1160 ca        1 R49      0.119600
     27 NAY        -4.9470    1.2920    0.0180 nh        1 R49     -0.622000
     28 CBF        -5.7620    0.1690    0.2240 ca        1 R49      0.182600
     29 CBJ        -7.1930    0.2910    0.0060 ca        1 R49     -0.124300
     30 CAT        -7.8060    1.4950   -0.4110 ca        1 R49     -0.190000
     31 CBB        -9.1860    1.5850   -0.5840 ca        1 R49      0.133600
     32 NAE        -9.8030    2.8000   -0.9050 nh        1 R49     -0.816200
     33 CAP        -9.9870    0.4200   -0.3490 ca        1 R49     -0.161000
     34 CAQ        -9.4120   -0.7590    0.0340 ca        1 R49     -0.137300
     35 CBI        -7.9960   -0.8700    0.2190 ca        1 R49      0.378600
     36 NAU        -7.4680   -2.0930    0.5880 nb        1 R49     -0.672000
     37 CAH        -6.1620   -2.1650    0.7580 ca        1 R49      0.426200
     38 CAK        -5.2640   -1.0720    0.6030 ca        1 R49     -0.312300
     39 HAA         8.8600    1.9900    2.0740 hc        1 R49      0.049367
     40 HAAA        9.6980    2.2640    0.4900 hc        1 R49      0.049367
     41 HAAB        8.9790    3.6660    1.3880 hc        1 R49      0.049367
     42 HAR         7.4510    0.2870    0.9470 ha        1 R49      0.157000
     43 HAI         7.4290    4.4270   -0.2930 ha        1 R49      0.138000
     44 HAG         5.3220    4.0440   -1.5640 ha        1 R49      0.137000
     45 HAJ         4.2720    1.8030   -1.6220 ha        1 R49      0.144000
     46 HAC         4.5910   -4.2610   -2.2220 hc        1 R49      0.039367
     47 HACA        4.6050   -5.7790   -1.2280 hc        1 R49      0.039367
     48 HACB        3.3380   -4.5120   -0.9340 hc        1 R49      0.039367
     49 HAD         7.4680   -3.7830    0.1510 hc        1 R49      0.039367
     50 HADA        6.9760   -5.3530   -0.6130 hc        1 R49      0.039367
     51 HADB        6.9780   -3.8280   -1.5950 hc        1 R49      0.039367
     52 HAB         4.0230   -4.4580    1.5100 hc        1 R49      0.039367
     53 HABA        5.2770   -5.7230    1.1590 hc        1 R49      0.039367
     54 HABB        5.7580   -4.1610    1.9490 hc        1 R49      0.039367
     55 HAS         2.8030   -2.5940    0.5180 ha        1 R49      0.190000
     56 HNAX        3.2520    1.2960    0.4880 hn        1 R49      0.316500
     57 HNAW        1.0600    2.1350    0.6330 hn        1 R49      0.305500
     58 HAM        -0.9400    2.9620    1.5100 ha        1 R49      0.151500
     59 HAO        -3.3840    2.9480    1.4590 ha        1 R49      0.143500
     60 HAL        -0.8580   -0.4760   -1.1660 ha        1 R49      0.151500
     61 HAN        -3.3150   -0.4740   -1.2280 ha        1 R49      0.143500
     62 HNAY       -5.3410    2.1480    0.3510 hn        1 R49      0.421800
     63 HAT        -7.1870    2.3810   -0.6190 ha        1 R49      0.131000
     64 HNAE       -9.2090    3.4510   -1.3670 hn        1 R49      0.389300
     65 HNAA      -10.6910    2.7020   -1.3450 hn        1 R49      0.389300
     66 HAP       -11.0790    0.4820   -0.4770 ha        1 R49      0.136000
     67 HAQ       -10.0380   -1.6510    0.2060 ha        1 R49      0.152000
     68 HAH        -5.7600   -3.1530    1.0520 h4        1 R49      0.022100
     69 HAK        -4.1950   -1.2350    0.8000 ha        1 R49      0.154000
@<TRIPOS>BOND
     1    1    2 1   
     2    1   39 1   
     3    1   40 1   
     4    1   41 1   
     5    2    3 ar  
     6    2    4 ar  
     7    3    7 ar  
     8    3   42 1   
     9    4    5 ar  
    10    4   43 1   
    11    5    6 ar  
    12    5   44 1   
    13    6    7 ar  
    14    6   45 1   
    15    7    8 1   
    16    8    9 1   
    17    8   16 1   
    18    9   10 2   
    19   10   11 1   
    20   10   15 1   
    21   11   12 1   
    22   11   13 1   
    23   11   14 1   
    24   12   46 1   
    25   12   47 1   
    26   12   48 1   
    27   13   49 1   
    28   13   50 1   
    29   13   51 1   
    30   14   52 1   
    31   14   53 1   
    32   14   54 1   
    33   15   16 2   
    34   15   55 1   
    35   16   17 1   
    36   17   18 1   
    37   17   56 1   
    38   18   19 2   
    39   18   20 1   
    40   20   21 1   
    41   20   57 1   
    42   21   22 ar  
    43   21   24 ar  
    44   22   23 ar  
    45   22   58 1   
    46   23   26 ar  
    47   23   59 1   
    48   24   25 ar  
    49   24   60 1   
    50   25   26 ar  
    51   25   61 1   
    52   26   27 1   
    53   27   28 1   
    54   27   62 1   
    55   28   29 ar  
    56   28   38 ar  
    57   29   30 ar  
    58   29   35 ar  
    59   30   31 ar  
    60   30   63 1   
    61   31   32 1   
    62   31   33 ar  
    63   32   64 1   
    64   32   65 1   
    65   33   34 ar  
    66   33   66 1   
    67   34   35 ar  
    68   34   67 1   
    69   35   36 ar  
    70   36   37 ar  
    71   37   38 ar  
    72   37   68 1   
    73   38   69 1   
@<TRIPOS>SUBSTRUCTURE
     1 R49         1 TEMP              0 ****  ****    0 ROOT
