@<TRIPOS>MOLECULE
R49
   69    73     1     0     0
SMALL
bcc


@<TRIPOS>ATOM
      1 CAA         0.4110   -0.4610   -0.4640 c3        1 R49     -0.057800
      2 CBA         1.8690   -0.2820   -0.2690 ca        1 R49     -0.063300
      3 CAR         2.3790   -0.0980    1.0210 ca        1 R49     -0.118000
      4 CAI         2.7370   -0.2830   -1.3650 ca        1 R49     -0.132000
      5 CAG         4.1030   -0.0850   -1.1760 ca        1 R49     -0.117000
      6 CAJ         4.6240    0.1100    0.1000 ca        1 R49     -0.158000
      7 CBE         3.7600    0.0910    1.2150 ca        1 R49      0.016800
      8 NBK         4.2980    0.2890    2.5200 na        1 R49      0.127300
      9 NAV         3.6890    1.0370    3.4610 nc        1 R49     -0.499800
     10 CBG         4.3130    0.7920    4.6450 cd        1 R49      0.334600
     11 CBL         3.9790    1.4910    5.9270 c3        1 R49     -0.074300
     12 CAC         4.2180    2.9890    5.7710 c3        1 R49     -0.086433
     13 CAD         2.5160    1.2460    6.2790 c3        1 R49     -0.086433
     14 CAB         4.8580    0.9610    7.0530 c3        1 R49     -0.086433
     15 CAS         5.3330   -0.2240    4.4770 cd        1 R49     -0.266300
     16 CBH         5.2880   -0.5660    3.1130 cc        1 R49      0.018300
     17 NAX         6.0110   -1.5360    2.4140 n         1 R49     -0.438100
     18 CAZ         7.3860   -1.7390    2.7100 c         1 R49      0.761100
     19 OAF         7.8910   -1.2850    3.7570 o         1 R49     -0.591100
     20 NAW         8.1330   -2.4800    1.7660 n         1 R49     -0.451100
     21 CBC         9.4030   -3.0170    2.0750 ca        1 R49      0.030600
     22 CAM         9.7770   -4.2620    1.5220 ca        1 R49     -0.129000
     23 CAO        11.0420   -4.7860    1.7430 ca        1 R49     -0.144000
     24 CAL        10.3450   -2.3210    2.8590 ca        1 R49     -0.129000
     25 CAN        11.6100   -2.8480    3.0790 ca        1 R49     -0.144000
     26 CBD        11.9870   -4.0910    2.5280 ca        1 R49      0.118600
     27 NAY        13.2990   -4.5870    2.6660 nh        1 R49     -0.622000
     28 CBF        13.9280   -4.7040    3.9140 ca        1 R49      0.182600
     29 CBJ        15.3160   -5.1300    3.9640 ca        1 R49     -0.124300
     30 CAT        16.0680   -5.4300    2.8050 ca        1 R49     -0.190000
     31 CBB        17.3900   -5.8630    2.8910 ca        1 R49      0.133600
     32 NAE        18.1060   -6.2500    1.7510 nh        1 R49     -0.816200
     33 CAP        17.9930   -5.9850    4.1850 ca        1 R49     -0.161000
     34 CAQ        17.2900   -5.6790    5.3160 ca        1 R49     -0.137300
     35 CBI        15.9300   -5.2340    5.2490 ca        1 R49      0.378600
     36 NAU        15.2740   -4.9220    6.4250 nb        1 R49     -0.672000
     37 CAH        14.0200   -4.5220    6.3330 ca        1 R49      0.426200
     38 CAK        13.2940   -4.4050    5.1150 ca        1 R49     -0.312300
     39 HAA        -0.0930    0.5380   -0.4890 hc        1 R49      0.049367
     40 HAAA       -0.0330   -1.0550    0.3730 hc        1 R49      0.049367
     41 HAAB        0.1960   -0.9880   -1.4250 hc        1 R49      0.049367
     42 HAR         1.6880   -0.0930    1.8790 ha        1 R49      0.157000
     43 HAI         2.3380   -0.4330   -2.3800 ha        1 R49      0.138000
     44 HAG         4.7800   -0.0700   -2.0440 ha        1 R49      0.137000
     45 HAJ         5.7000    0.3070    0.2230 ha        1 R49      0.144000
     46 HAC         4.0100    3.5070    6.7380 hc        1 R49      0.039811
     47 HACA        5.2780    3.1840    5.4810 hc        1 R49      0.039811
     48 HACB        3.5480    3.4140    4.9860 hc        1 R49      0.039811
     49 HAD         2.2780    1.7290    7.2580 hc        1 R49      0.039811
     50 HADA        1.8460    1.6770    5.4970 hc        1 R49      0.039811
     51 HADB        2.3150    0.1520    6.3620 hc        1 R49      0.039811
     52 HAB         5.9360    1.1420    6.8250 hc        1 R49      0.039811
     53 HABA        4.6990   -0.1360    7.1890 hc        1 R49      0.039811
     54 HABB        4.6020    1.4810    8.0070 hc        1 R49      0.039811
     55 HAS         6.0130   -0.6200    5.2250 ha        1 R49      0.191000
     56 HNAX        5.6890   -1.7330    1.4890 hn        1 R49      0.315500
     57 HNAW        7.6220   -3.0120    1.0950 hn        1 R49      0.305500
     58 HAM         9.0680   -4.8360    0.9030 ha        1 R49      0.151500
     59 HAO        11.2980   -5.7580    1.2930 ha        1 R49      0.143500
     60 HAL        10.0810   -1.3500    3.3140 ha        1 R49      0.151500
     61 HAN        12.3290   -2.2740    3.6880 ha        1 R49      0.143500
     62 HNAY       13.5270   -5.3190    2.0250 hn        1 R49      0.421800
     63 HAT        15.6140   -5.3090    1.8100 ha        1 R49      0.131000
     64 HNAE       17.7780   -5.8420    0.9040 hn        1 R49      0.389300
     65 HNAA       19.0950   -6.1960    1.8540 hn        1 R49      0.389300
     66 HAP        19.0350   -6.3320    4.2640 ha        1 R49      0.136000
     67 HAQ        17.7660   -5.7710    6.3060 ha        1 R49      0.152000
     68 HAH        13.5150   -4.2740    7.2860 h4        1 R49      0.022100
     69 HAK        12.2420   -4.0920    5.1570 ha        1 R49      0.154000
@<TRIPOS>BOND
     1    1    2 1   
     2    1   39 1   
     3    1   40 1   
     4    1   41 1   
     5    2    3 ar  
     6    2    4 ar  
     7    3    7 ar  
     8    3   42 1   
     9    4    5 ar  
    10    4   43 1   
    11    5    6 ar  
    12    5   44 1   
    13    6    7 ar  
    14    6   45 1   
    15    7    8 1   
    16    8    9 1   
    17    8   16 1   
    18    9   10 2   
    19   10   11 1   
    20   10   15 1   
    21   11   12 1   
    22   11   13 1   
    23   11   14 1   
    24   12   46 1   
    25   12   47 1   
    26   12   48 1   
    27   13   49 1   
    28   13   50 1   
    29   13   51 1   
    30   14   52 1   
    31   14   53 1   
    32   14   54 1   
    33   15   16 2   
    34   15   55 1   
    35   16   17 1   
    36   17   18 1   
    37   17   56 1   
    38   18   19 2   
    39   18   20 1   
    40   20   21 1   
    41   20   57 1   
    42   21   22 ar  
    43   21   24 ar  
    44   22   23 ar  
    45   22   58 1   
    46   23   26 ar  
    47   23   59 1   
    48   24   25 ar  
    49   24   60 1   
    50   25   26 ar  
    51   25   61 1   
    52   26   27 1   
    53   27   28 1   
    54   27   62 1   
    55   28   29 ar  
    56   28   38 ar  
    57   29   30 ar  
    58   29   35 ar  
    59   30   31 ar  
    60   30   63 1   
    61   31   32 1   
    62   31   33 ar  
    63   32   64 1   
    64   32   65 1   
    65   33   34 ar  
    66   33   66 1   
    67   34   35 ar  
    68   34   67 1   
    69   35   36 ar  
    70   36   37 ar  
    71   37   38 ar  
    72   37   68 1   
    73   38   69 1   
@<TRIPOS>SUBSTRUCTURE
     1 R49         1 TEMP              0 ****  ****    0 ROOT
