@<TRIPOS>MOLECULE
R4B
   75    78     1     0     0
SMALL
bcc


@<TRIPOS>ATOM
      1 O4         -1.5330    3.1950   -2.8050 o         1 R4B     -0.604100
      2 N1          2.9380   -1.0930   -3.1960 nc        1 R4B     -0.357300
      3 O1          1.9710   -0.2590   -3.5050 os        1 R4B     -0.123100
      4 C25        -1.4480    2.6960   -1.6660 c         1 R4B      0.657100
      5 C17        -0.5050    1.5170   -1.3820 c3        1 R4B     -0.093700
      6 C16         0.4680    1.4220   -2.5570 c3        1 R4B     -0.109700
      7 C14         2.2930   -0.0060   -1.2820 cd        1 R4B     -0.322600
      8 C13         3.1920   -1.0070   -1.8690 cd        1 R4B      0.364800
      9 C12         4.1690   -1.7790   -1.1210 ca        1 R4B     -0.128500
     10 C11         3.9850   -1.9710    0.2570 ca        1 R4B     -0.103500
     11 C10         4.9140   -2.7020    0.9900 ca        1 R4B     -0.125500
     12 C7          6.0380   -3.2590    0.3630 cp        1 R4B     -0.032000
     13 C8          6.2150   -3.0690   -1.0140 ca        1 R4B     -0.125500
     14 C9          5.2900   -2.3350   -1.7510 ca        1 R4B     -0.103500
     15 C15         1.5330    0.4370   -2.3420 cc        1 R4B      0.226000
     16 C1          8.5020   -5.9220    1.3530 ca        1 R4B      0.016400
     17 C2          7.5720   -5.1950    0.6050 ca        1 R4B     -0.115000
     18 C3          8.8850   -5.4970    2.6280 ca        1 R4B     -0.123000
     19 C4          8.3260   -4.3320    3.1530 ca        1 R4B     -0.123000
     20 C5          7.3960   -3.6010    2.4180 ca        1 R4B     -0.118000
     21 C6          7.0120   -4.0260    1.1380 cp        1 R4B     -0.028000
     22 C18        -1.2890    0.2360   -1.1700 c3        1 R4B     -0.415600
     23 P1         -1.0940   -0.3320    0.3690 py        1 R4B      1.570400
     24 O2         -1.8450    0.7840    1.2700 oh        1 R4B     -0.815400
     25 O3          0.2690   -0.3710    0.8990 o         1 R4B     -0.896300
     26 C19        -1.9560   -1.6890    0.4580 ca        1 R4B     -0.479500
     27 C20        -1.2910   -2.9040    0.6250 ca        1 R4B     -0.029500
     28 C21        -2.0040   -4.0970    0.7120 ca        1 R4B     -0.126500
     29 C22        -3.4020   -4.0730    0.6390 ca        1 R4B      0.032100
     30 BR1        -4.3720   -5.6700    0.7510 br        1 R4B     -0.063100
     31 C23        -4.0770   -2.8560    0.4860 ca        1 R4B     -0.126500
     32 C24        -3.3480   -1.6730    0.3980 ca        1 R4B     -0.029500
     33 N2         -2.2310    3.1530   -0.6240 n         1 R4B     -0.551900
     34 C26        -3.0140    4.3590   -0.7400 c3        1 R4B      0.036700
     35 C30        -2.4500    5.4840    0.1680 c         1 R4B      0.635100
     36 O7         -1.8290    5.2300    1.2190 o         1 R4B     -0.615100
     37 C27        -4.4760    4.1610   -0.3350 c3        1 R4B     -0.108100
     38 N3         -2.6470    6.7810   -0.2670 n         1 R4B     -0.541900
     39 C31        -2.3480    7.9170    0.5700 c3        1 R4B      0.032700
     40 C35        -3.6430    8.5810    1.1020 c         1 R4B      0.631100
     41 O10        -4.7060    8.5630    0.4460 o         1 R4B     -0.621100
     42 C32        -1.5610    9.0020   -0.1660 c3        1 R4B     -0.103100
     43 N4         -3.5790    9.2240    2.3080 n         1 R4B     -0.667000
     44 H1          0.0910    1.7430   -0.4490 hc        1 R4B      0.084700
     45 H2         -0.1020    1.1770   -3.4950 hc        1 R4B      0.091200
     46 H3          0.9370    2.4340   -2.7200 hc        1 R4B      0.091200
     47 H4          2.2410    0.2660   -0.2280 ha        1 R4B      0.212000
     48 H5          3.0990   -1.5450    0.7580 ha        1 R4B      0.156000
     49 H6          4.7600   -2.8520    2.0700 ha        1 R4B      0.138500
     50 H7          7.0970   -3.4950   -1.5160 ha        1 R4B      0.138500
     51 H8          5.4440   -2.1920   -2.8320 ha        1 R4B      0.156000
     52 H10         9.6190   -6.0730    3.2120 ha        1 R4B      0.147000
     53 H11         8.6240   -3.9900    4.1550 ha        1 R4B      0.138000
     54 H12         6.9640   -2.6800    2.8380 ha        1 R4B      0.141000
     55 H13        -2.3700    0.4110   -1.4190 hc        1 R4B      0.117700
     56 H14        -0.9500   -0.5200   -1.9300 hc        1 R4B      0.117700
     57 H15        -1.3690    1.0760    2.0440 ho        1 R4B      0.479000
     58 H16        -0.1880   -2.8940    0.7000 ha        1 R4B      0.160500
     59 H17        -1.4650   -5.0490    0.8400 ha        1 R4B      0.159500
     60 H18        -5.1770   -2.8280    0.4370 ha        1 R4B      0.159500
     61 H19        -3.8620   -0.7030    0.2940 ha        1 R4B      0.160500
     62 H20        -2.0650    2.8350    0.3060 hn        1 R4B      0.340500
     63 H21        -2.9790    4.6930   -1.8230 h1        1 R4B      0.105700
     64 H22        -5.0270    5.1230   -0.4680 hc        1 R4B      0.054033
     65 H23        -4.9530    3.3830   -0.9780 hc        1 R4B      0.054033
     66 H24        -4.5580    3.8430    0.7330 hc        1 R4B      0.054033
     67 H25        -3.2970    6.9460   -1.0030 hn        1 R4B      0.325500
     68 H26        -1.7260    7.5440    1.4420 h1        1 R4B      0.098700
     69 H27        -2.1520    9.4170   -1.0180 hc        1 R4B      0.053033
     70 H28        -1.3270    9.8290    0.5470 hc        1 R4B      0.053033
     71 H29        -0.6030    8.5870   -0.5620 hc        1 R4B      0.053033
     72 H30        -2.7600    9.2000    2.8570 hn        1 R4B      0.314500
     73 H31        -4.3910    9.6550    2.6770 hn        1 R4B      0.314500
     74 H9          7.2720   -5.5400   -0.3970 ha        1 R4B      0.151000
     75 CL1         9.1750   -7.3420    0.7020 cl        1 R4B     -0.096400
@<TRIPOS>BOND
     1    1    4 2   
     2    2    3 1   
     3    2    8 2   
     4    3   15 1   
     5    4    5 1   
     6    4   33 1   
     7    5    6 1   
     8    5   22 1   
     9    5   44 1   
    10    6   15 1   
    11    6   45 1   
    12    6   46 1   
    13    7    8 1   
    14    7   15 2   
    15    7   47 1   
    16    8    9 1   
    17    9   10 ar  
    18    9   14 ar  
    19   10   11 ar  
    20   10   48 1   
    21   11   12 ar  
    22   11   49 1   
    23   12   13 ar  
    24   12   21 1   
    25   13   14 ar  
    26   13   50 1   
    27   14   51 1   
    28   16   17 ar  
    29   16   18 ar  
    30   16   75 1   
    31   17   21 ar  
    32   17   74 1   
    33   18   19 ar  
    34   18   52 1   
    35   19   20 ar  
    36   19   53 1   
    37   20   21 ar  
    38   20   54 1   
    39   22   23 1   
    40   22   55 1   
    41   22   56 1   
    42   23   24 1   
    43   23   25 2   
    44   23   26 1   
    45   24   57 1   
    46   26   27 ar  
    47   26   32 ar  
    48   27   28 ar  
    49   27   58 1   
    50   28   29 ar  
    51   28   59 1   
    52   29   30 1   
    53   29   31 ar  
    54   31   32 ar  
    55   31   60 1   
    56   32   61 1   
    57   33   34 1   
    58   33   62 1   
    59   34   35 1   
    60   34   37 1   
    61   34   63 1   
    62   35   36 2   
    63   35   38 1   
    64   37   64 1   
    65   37   65 1   
    66   37   66 1   
    67   38   39 1   
    68   38   67 1   
    69   39   40 1   
    70   39   42 1   
    71   39   68 1   
    72   40   41 2   
    73   40   43 1   
    74   42   69 1   
    75   42   70 1   
    76   42   71 1   
    77   43   72 1   
    78   43   73 1   
@<TRIPOS>SUBSTRUCTURE
     1 R4B         1 TEMP              0 ****  ****    0 ROOT
