@<TRIPOS>MOLECULE
R4C
   65    67     1     0     0
SMALL
bcc


@<TRIPOS>ATOM
      1 O4          1.9900   -1.6850    2.6430 o         1 R4C     -0.604100
      2 N1          2.9320    4.4070    1.9220 nc        1 R4C     -0.360300
      3 O1          2.7310    3.2240    2.4580 os        1 R4C     -0.125100
      4 C25         1.5640   -1.4130    1.5020 c         1 R4C      0.657100
      5 C17         1.5410    0.0320    0.9850 c3        1 R4C     -0.093700
      6 C16         2.4330    0.8600    1.9100 c3        1 R4C     -0.108700
      7 C14         2.7890    2.8700    0.2270 cd        1 R4C     -0.322600
      8 C13         2.9760    4.2830    0.5750 cd        1 R4C      0.367800
      9 C12         3.1580    5.3550   -0.3890 ca        1 R4C     -0.135500
     10 C11         3.7970    6.5490   -0.0290 ca        1 R4C     -0.102500
     11 C10         3.9660    7.5610   -0.9730 ca        1 R4C     -0.139500
     12 C7          3.4990    7.3900   -2.2760 ca        1 R4C     -0.119000
     13 C8          2.8590    6.2040   -2.6360 ca        1 R4C     -0.139500
     14 C9          2.6870    5.1870   -1.7000 ca        1 R4C     -0.102500
     15 C15         2.6300    2.2350    1.4400 cc        1 R4C      0.224000
     16 C18         0.1210    0.5610    0.9180 c3        1 R4C     -0.415600
     17 P1         -0.3170    0.8890   -0.6410 py        1 R4C      1.570400
     18 O3         -0.3940   -0.5800   -1.3170 oh        1 R4C     -0.815400
     19 O2          0.6430    1.6210   -1.4670 o         1 R4C     -0.895300
     20 C19        -1.8170    1.4700   -0.5710 ca        1 R4C     -0.478500
     21 C20        -2.8930    0.6660   -0.2000 ca        1 R4C     -0.029500
     22 C21        -4.1850    1.1830   -0.1530 ca        1 R4C     -0.126500
     23 C22        -4.4030    2.5260   -0.4860 ca        1 R4C      0.032100
     24 BR1        -6.1350    3.2330   -0.4210 br        1 R4C     -0.063100
     25 C23        -3.3300    3.3380   -0.8710 ca        1 R4C     -0.126500
     26 C24        -2.0450    2.8030   -0.9150 ca        1 R4C     -0.029500
     27 N2          1.0560   -2.3970    0.6760 n         1 R4C     -0.551900
     28 C26         1.1900   -3.7960    0.9950 c3        1 R4C      0.036700
     29 C30         2.1530   -4.5080    0.0080 c         1 R4C      0.635100
     30 O7          2.3010   -4.1100   -1.1650 o         1 R4C     -0.615100
     31 C27        -0.1400   -4.5520    0.9320 c3        1 R4C     -0.108100
     32 N3          2.8560   -5.5870    0.5060 n         1 R4C     -0.541900
     33 C31         3.6320   -6.4490   -0.3510 c3        1 R4C      0.032700
     34 C35         2.9340   -7.8180   -0.5540 c         1 R4C      0.631100
     35 O10         2.2120   -8.3230    0.3300 o         1 R4C     -0.622100
     36 C32         5.0260   -6.7400    0.2090 c3        1 R4C     -0.103100
     37 N4          3.1630   -8.4810   -1.7300 n         1 R4C     -0.667000
     38 H1          1.9920    0.0560   -0.0520 hc        1 R4C      0.085700
     39 H2          1.9920    0.8650    2.9450 hc        1 R4C      0.090700
     40 H3          3.4370    0.3550    1.9890 hc        1 R4C      0.090700
     41 H4          2.7480    2.4600   -0.7820 ha        1 R4C      0.212000
     42 H5          4.1680    6.6910    0.9980 ha        1 R4C      0.152500
     43 H6          4.4690    8.4960   -0.6870 ha        1 R4C      0.133500
     44 H7          3.6350    8.1900   -3.0190 ha        1 R4C      0.131000
     45 H8          2.4900    6.0670   -3.6630 ha        1 R4C      0.133500
     46 H9          2.1770    4.2510   -1.9850 ha        1 R4C      0.152500
     47 H10        -0.5770   -0.1710    1.4050 hc        1 R4C      0.117700
     48 H11         0.0520    1.4800    1.5630 hc        1 R4C      0.117700
     49 H12         0.0270   -0.6620   -2.1700 ho        1 R4C      0.479000
     50 H13        -2.7030   -0.3930    0.0420 ha        1 R4C      0.160500
     51 H14        -5.0260    0.5350    0.1410 ha        1 R4C      0.158500
     52 H15        -3.4940    4.3930   -1.1420 ha        1 R4C      0.158500
     53 H16        -1.1830    3.4170   -1.2340 ha        1 R4C      0.160500
     54 H17         0.8360   -2.1910   -0.2750 hn        1 R4C      0.340500
     55 H18         1.6020   -3.8740    2.0490 h1        1 R4C      0.105700
     56 H19        -0.8700   -4.1090    1.6500 hc        1 R4C      0.054033
     57 H20        -0.5760   -4.5130   -0.0940 hc        1 R4C      0.054033
     58 H21         0.0320   -5.6200    1.2110 hc        1 R4C      0.054033
     59 H22         2.5770   -5.9820    1.3770 hn        1 R4C      0.325500
     60 H23         3.7440   -5.9270   -1.3510 h1        1 R4C      0.098700
     61 H24         5.5850   -7.3750   -0.5190 hc        1 R4C      0.053033
     62 H25         5.5890   -5.7880    0.3640 hc        1 R4C      0.053033
     63 H26         4.9610   -7.2820    1.1830 hc        1 R4C      0.053033
     64 H27         3.6880   -8.0670   -2.4550 hn        1 R4C      0.314500
     65 H28         2.7280   -9.3550   -1.8920 hn        1 R4C      0.314500
@<TRIPOS>BOND
     1    1    4 2   
     2    2    3 1   
     3    2    8 2   
     4    3   15 1   
     5    4    5 1   
     6    4   27 1   
     7    5    6 1   
     8    5   16 1   
     9    5   38 1   
    10    6   15 1   
    11    6   39 1   
    12    6   40 1   
    13    7    8 1   
    14    7   15 2   
    15    7   41 1   
    16    8    9 1   
    17    9   10 ar  
    18    9   14 ar  
    19   10   11 ar  
    20   10   42 1   
    21   11   12 ar  
    22   11   43 1   
    23   12   13 ar  
    24   12   44 1   
    25   13   14 ar  
    26   13   45 1   
    27   14   46 1   
    28   16   17 1   
    29   16   47 1   
    30   16   48 1   
    31   17   18 1   
    32   17   19 2   
    33   17   20 1   
    34   18   49 1   
    35   20   21 ar  
    36   20   26 ar  
    37   21   22 ar  
    38   21   50 1   
    39   22   23 ar  
    40   22   51 1   
    41   23   24 1   
    42   23   25 ar  
    43   25   26 ar  
    44   25   52 1   
    45   26   53 1   
    46   27   28 1   
    47   27   54 1   
    48   28   29 1   
    49   28   31 1   
    50   28   55 1   
    51   29   30 2   
    52   29   32 1   
    53   31   56 1   
    54   31   57 1   
    55   31   58 1   
    56   32   33 1   
    57   32   59 1   
    58   33   34 1   
    59   33   36 1   
    60   33   60 1   
    61   34   35 2   
    62   34   37 1   
    63   36   61 1   
    64   36   62 1   
    65   36   63 1   
    66   37   64 1   
    67   37   65 1   
@<TRIPOS>SUBSTRUCTURE
     1 R4C         1 TEMP              0 ****  ****    0 ROOT
