@<TRIPOS>MOLECULE
R4E
   35    36     1     0     0
SMALL
bcc


@<TRIPOS>ATOM
      1 CAA         0.0080    0.0880    0.0100 ca        1 R4E     -0.105000
      2 CAB         1.3850   -0.0590   -0.0650 ca        1 R4E     -0.117000
      3 CAC         2.1440   -0.2170    1.0940 ca        1 R4E     -0.166000
      4 CAD         1.5410   -0.2160    2.3670 ca        1 R4E      0.122600
      5 CAE         0.1240   -0.0530    2.4550 ca        1 R4E     -0.025800
      6 CAF        -0.6170    0.0880    1.2650 ca        1 R4E     -0.123600
      7 CAG        -2.0840    0.2430    1.3180 c         1 R4E      0.704100
      8 CAH        -0.5830   -0.0220    3.7090 cc        1 R4E     -0.206200
      9 CAI        -1.9440    0.1250    3.7470 cd        1 R4E      0.047400
     10 NAJ        -2.6870    0.2420    2.5800 ns        1 R4E     -0.451100
     11 OAK        -2.8170    0.3690    0.3160 o         1 R4E     -0.641500
     12 CAL        -2.6790    0.1500    5.0570 c3        1 R4E     -0.051200
     13 NAM         2.3390   -0.2940    3.5170 nv        1 R4E     -0.810200
     14 CAN        -3.3290    1.4950    5.3200 c3        1 R4E     -0.081400
     15 CAO        -3.9760    1.5210    6.6880 c3        1 R4E     -0.080400
     16 CAP        -4.6400    2.8560    6.9540 c3        1 R4E     -0.080400
     17 CAQ        -5.2830    2.8900    8.3170 c3        1 R4E     -0.093100
     18 HAA        -0.6070    0.2060   -0.8960 ha        1 R4E      0.159000
     19 HAB         1.8870   -0.0570   -1.0440 ha        1 R4E      0.137000
     20 HAC         3.2350   -0.3360    1.0020 ha        1 R4E      0.133000
     21 HAH        -0.0330   -0.0910    4.6560 ha        1 R4E      0.142000
     22 HNAJ       -3.6740    0.3560    2.6390 hn        1 R4E      0.331500
     23 HAL        -1.9550   -0.0810    5.8830 hc        1 R4E      0.060200
     24 HALA       -3.4620   -0.6560    5.0670 hc        1 R4E      0.060200
     25 HNAM        3.2470   -0.6720    3.3470 hn        1 R4E      0.386300
     26 HNAA        1.8910   -0.7190    4.2980 hn        1 R4E      0.386300
     27 HAN        -4.1040    1.7080    4.5370 hc        1 R4E      0.048700
     28 HANA       -2.5570    2.3060    5.2520 hc        1 R4E      0.048700
     29 HAO        -3.2020    1.3240    7.4760 hc        1 R4E      0.041200
     30 HAOA       -4.7390    0.7020    6.7610 hc        1 R4E      0.041200
     31 HAP        -3.8760    3.6750    6.8770 hc        1 R4E      0.041200
     32 HAPA       -5.4150    3.0520    6.1670 hc        1 R4E      0.041200
     33 HAQ        -6.0640    2.0970    8.4050 hc        1 R4E      0.034033
     34 HAQA       -5.7660    3.8820    8.4920 hc        1 R4E      0.034033
     35 HAQB       -4.5210    2.7220    9.1170 hc        1 R4E      0.034033
@<TRIPOS>BOND
     1    1    2 ar  
     2    1    6 ar  
     3    1   18 1   
     4    2    3 ar  
     5    2   19 1   
     6    3    4 ar  
     7    3   20 1   
     8    4    5 ar  
     9    4   13 1   
    10    5    6 ar  
    11    5    8 1   
    12    6    7 1   
    13    7   10 1   
    14    7   11 2   
    15    8    9 2   
    16    8   21 1   
    17    9   10 1   
    18    9   12 1   
    19   10   22 1   
    20   12   14 1   
    21   12   23 1   
    22   12   24 1   
    23   13   25 1   
    24   13   26 1   
    25   14   15 1   
    26   14   27 1   
    27   14   28 1   
    28   15   16 1   
    29   15   29 1   
    30   15   30 1   
    31   16   17 1   
    32   16   31 1   
    33   16   32 1   
    34   17   33 1   
    35   17   34 1   
    36   17   35 1   
@<TRIPOS>SUBSTRUCTURE
     1 R4E         1 TEMP              0 ****  ****    0 ROOT
