@<TRIPOS>MOLECULE
R4E
   35    36     1     0     0
SMALL
bcc


@<TRIPOS>ATOM
      1 CAA         0.0090    0.0870    0.0110 ca        1 R4E     -0.105000
      2 CAB         1.3860   -0.0520   -0.0650 ca        1 R4E     -0.117000
      3 CAC         2.1480   -0.2000    1.0940 ca        1 R4E     -0.166000
      4 CAD         1.5460   -0.2000    2.3670 ca        1 R4E      0.122600
      5 CAE         0.1280   -0.0460    2.4560 ca        1 R4E     -0.025800
      6 CAF        -0.6150    0.0870    1.2660 ca        1 R4E     -0.123600
      7 CAG        -2.0830    0.2320    1.3210 c         1 R4E      0.704100
      8 CAH        -0.5780   -0.0150    3.7110 cc        1 R4E     -0.206200
      9 CAI        -1.9400    0.1230    3.7500 cd        1 R4E      0.047400
     10 NAJ        -2.6850    0.2310    2.5830 n         1 R4E     -0.451100
     11 OAK        -2.8170    0.3490    0.3190 o         1 R4E     -0.641500
     12 CAL        -2.6740    0.1480    5.0600 c3        1 R4E     -0.051200
     13 NAM         2.3460   -0.2690    3.5170 nh        1 R4E     -0.810200
     14 CAN        -3.3320    1.4890    5.3190 c3        1 R4E     -0.081400
     15 CAO        -3.9790    1.5150    6.6880 c3        1 R4E     -0.080400
     16 CAP        -4.6500    2.8470    6.9510 c3        1 R4E     -0.080400
     17 CAQ        -5.2930    2.8810    8.3130 c3        1 R4E     -0.093100
     18 HAA        -0.6080    0.1970   -0.8950 ha        1 R4E      0.159000
     19 HAB         1.8880   -0.0490   -1.0450 ha        1 R4E      0.137000
     20 HAC         3.2400   -0.3120    1.0010 ha        1 R4E      0.133000
     21 HAH        -0.0270   -0.0780    4.6580 ha        1 R4E      0.142000
     22 HNAJ       -3.6720    0.3390    2.6430 hn        1 R4E      0.331500
     23 HAL        -3.4510   -0.6640    5.0730 hc        1 R4E      0.060200
     24 HALA       -1.9480   -0.0770    5.8860 hc        1 R4E      0.060200
     25 HNAM        3.2550   -0.6410    3.3480 hn        1 R4E      0.386300
     26 HNAA        1.9010   -0.6940    4.3000 hn        1 R4E      0.386300
     27 HAN        -2.5660    2.3040    5.2480 hc        1 R4E      0.048700
     28 HANA       -4.1090    1.6950    4.5360 hc        1 R4E      0.048700
     29 HAO        -4.7370    0.6910    6.7630 hc        1 R4E      0.041200
     30 HAOA       -3.2030    1.3240    7.4760 hc        1 R4E      0.041200
     31 HAP        -5.4260    3.0360    6.1630 hc        1 R4E      0.041200
     32 HAPA       -3.8910    3.6690    6.8700 hc        1 R4E      0.041200
     33 HAQ        -5.7810    3.8700    8.4860 hc        1 R4E      0.034033
     34 HAQA       -4.5300    2.7200    9.1140 hc        1 R4E      0.034033
     35 HAQB       -6.0690    2.0830    8.4040 hc        1 R4E      0.034033
@<TRIPOS>BOND
     1    1    2 ar  
     2    1    6 ar  
     3    1   18 1   
     4    2    3 ar  
     5    2   19 1   
     6    3    4 ar  
     7    3   20 1   
     8    4    5 ar  
     9    4   13 1   
    10    5    6 ar  
    11    5    8 1   
    12    6    7 1   
    13    7   10 1   
    14    7   11 2   
    15    8    9 2   
    16    8   21 1   
    17    9   10 1   
    18    9   12 1   
    19   10   22 1   
    20   12   14 1   
    21   12   23 1   
    22   12   24 1   
    23   13   25 1   
    24   13   26 1   
    25   14   15 1   
    26   14   27 1   
    27   14   28 1   
    28   15   16 1   
    29   15   29 1   
    30   15   30 1   
    31   16   17 1   
    32   16   31 1   
    33   16   32 1   
    34   17   33 1   
    35   17   34 1   
    36   17   35 1   
@<TRIPOS>SUBSTRUCTURE
     1 R4E         1 TEMP              0 ****  ****    0 ROOT
