@<TRIPOS>MOLECULE
R4G
   48    50     1     0     0
SMALL
bcc


@<TRIPOS>ATOM
      1 CAJ        -0.3450   -0.4330    0.4330 ca        1 R4G     -0.220000
      2 CAK        -0.2340    0.4080   -0.6790 ca        1 R4G      0.168600
      3 OAP         0.8700    0.2180   -1.4880 oh        1 R4G     -0.514100
      4 CAL        -1.1880    1.3900   -0.9560 ca        1 R4G     -0.269000
      5 CAM        -2.2840    1.5200   -0.0840 ca        1 R4G      0.168600
      6 OAO        -3.1760    2.5000   -0.3990 oh        1 R4G     -0.514100
      7 CAN        -2.4160    0.6800    1.0380 ca        1 R4G     -0.220000
      8 CAI        -1.4480   -0.2950    1.2930 ca        1 R4G      0.008200
      9 CAH        -1.4890   -1.1600    2.4630 ce        1 R4G     -0.121200
     10 CAG        -2.5310   -1.7460    3.0700 cf        1 R4G     -0.083200
     11 CAC        -3.9410   -1.6910    2.7320 ca        1 R4G     -0.102800
     12 CAD        -4.8880   -1.7400    3.7690 ca        1 R4G     -0.089000
     13 CAE        -6.2450   -1.6150    3.5040 ca        1 R4G     -0.160000
     14 CAB        -4.3890   -1.5850    1.4080 ca        1 R4G     -0.089000
     15 CAA        -5.7450   -1.4680    1.1230 ca        1 R4G     -0.160000
     16 CAF        -6.6700   -1.4510    2.1740 ca        1 R4G      0.165100
     17 O1         -8.0370   -1.3240    1.9860 os        1 R4G     -0.335900
     18 C1         -8.4400   -0.4630    0.9200 c3        1 R4G      0.337900
     19 O5         -7.6600    0.6930    1.1500 os        1 R4G     -0.395600
     20 C5         -7.9680    1.7820    0.2840 c3        1 R4G     -0.013900
     21 C6         -6.9620    2.9260    0.6120 c         1 R4G      0.947600
     22 OBC        -7.3960    4.1050    0.4820 o         1 R4G     -0.826300
     23 O6         -5.7880    2.6210    0.9410 o         1 R4G     -0.826300
     24 C4         -9.4250    2.2040    0.4990 c3        1 R4G      0.113100
     25 O4         -9.8360    3.2100   -0.4100 oh        1 R4G     -0.653800
     26 C3        -10.3550    1.0080    0.2430 c3        1 R4G      0.099100
     27 O3        -11.7040    1.3070    0.5770 oh        1 R4G     -0.628800
     28 C2         -9.9460   -0.1940    1.1090 c3        1 R4G      0.120100
     29 O2        -10.6370   -1.3590    0.6870 oh        1 R4G     -0.600800
     30 HAJ         0.4260   -1.1900    0.6220 ha        1 R4G      0.156000
     31 HAP         0.8130    0.8580   -2.2110 ho        1 R4G      0.454000
     32 HAL        -1.1010    2.0530   -1.8250 ha        1 R4G      0.142000
     33 HAO        -3.9380    2.4710    0.2190 ho        1 R4G      0.454000
     34 HAN        -3.2900    0.7940    1.7000 ha        1 R4G      0.156000
     35 HAH        -0.4830   -1.3480    2.8880 ha        1 R4G      0.113000
     36 HAG        -2.3200   -2.3510    3.9740 ha        1 R4G      0.109000
     37 HAD        -4.5480   -1.8470    4.8100 ha        1 R4G      0.130500
     38 HAB        -3.6550   -1.5660    0.5870 ha        1 R4G      0.130500
     39 HAE        -6.9870   -1.6160    4.3140 ha        1 R4G      0.141000
     40 HAA        -6.0810   -1.3270    0.0860 ha        1 R4G      0.141000
     41 H1         -8.2270   -0.9290   -0.0790 h2        1 R4G      0.048700
     42 H2        -10.1680    0.0110    2.1920 h1        1 R4G      0.070700
     43 H5         -7.8140    1.4740   -0.7860 h1        1 R4G      0.037700
     44 H4         -9.5560    2.5770    1.5530 h1        1 R4G      0.058700
     45 HA         -9.1830    3.9310   -0.3430 ho        1 R4G      0.466000
     46 H3        -10.3150    0.7240   -0.8460 h1        1 R4G      0.051700
     47 HB        -11.8640    2.2110    0.2720 ho        1 R4G      0.426000
     48 HC        -11.5760   -1.1340    0.7170 ho        1 R4G      0.411000
@<TRIPOS>BOND
     1    1    2 ar  
     2    1    8 ar  
     3    1   30 1   
     4    2    3 1   
     5    2    4 ar  
     6    3   31 1   
     7    4    5 ar  
     8    4   32 1   
     9    5    6 1   
    10    5    7 ar  
    11    6   33 1   
    12    7    8 ar  
    13    7   34 1   
    14    8    9 1   
    15    9   10 2   
    16    9   35 1   
    17   10   11 1   
    18   10   36 1   
    19   11   12 ar  
    20   11   14 ar  
    21   12   13 ar  
    22   12   37 1   
    23   13   16 ar  
    24   13   39 1   
    25   14   15 ar  
    26   14   38 1   
    27   15   16 ar  
    28   15   40 1   
    29   16   17 1   
    30   17   18 1   
    31   18   19 1   
    32   18   28 1   
    33   18   41 1   
    34   19   20 1   
    35   20   21 1   
    36   20   24 1   
    37   20   43 1   
    38   21   22 1   
    39   21   23 1   
    40   24   25 1   
    41   24   26 1   
    42   24   44 1   
    43   25   45 1   
    44   26   27 1   
    45   26   28 1   
    46   26   46 1   
    47   27   47 1   
    48   28   29 1   
    49   28   42 1   
    50   29   48 1   
@<TRIPOS>SUBSTRUCTURE
     1 R4G         1 TEMP              0 ****  ****    0 ROOT
