@<TRIPOS>MOLECULE
R4K
   29    30     1     0     0
SMALL
bcc


@<TRIPOS>ATOM
      1 C50         1.7270   -0.3180    0.3840 ca        1 R4K     -0.095300
      2 C51         2.2520   -1.5540    0.6890 ca        1 R4K     -0.056000
      3 C52         3.5390   -1.8770    0.2260 ca        1 R4K     -0.176000
      4 C53         4.2700   -0.9710   -0.5300 ca        1 R4K     -0.106000
      5 C54         3.7590    0.2940   -0.8510 ca        1 R4K     -0.190000
      6 C55         2.4870    0.6220   -0.3880 ca        1 R4K      0.075600
      7 N31         1.7800    1.8260   -0.5310 n         1 R4K     -0.483100
      8 C32         0.5080    1.7190    0.0760 c         1 R4K      0.694500
      9 O33        -0.3000    2.6530    0.0850 o         1 R4K     -0.612500
     10 N          -2.3830    0.9650    1.3720 n3        1 R4K     -0.931800
     11 CA         -2.1620    0.2460    0.1320 c3        1 R4K     -0.007500
     12 C          -3.2960   -0.7850   -0.2030 c         1 R4K      0.906600
     13 O          -4.3970   -0.6790    0.4010 o         1 R4K     -0.830800
     14 CB         -0.8040   -0.4980    0.1170 c3        1 R4K      0.166100
     15 O34        -0.4430   -0.7970   -1.2210 oh        1 R4K     -0.648800
     16 C29         0.3770    0.2950    0.7220 c3        1 R4K      0.170100
     17 O30         0.2860    0.4110    2.1230 oh        1 R4K     -0.603800
     18 H51         1.6700   -2.2770    1.2790 ha        1 R4K      0.143000
     19 H52         3.9630   -2.8630    0.4640 ha        1 R4K      0.120000
     20 H53         5.2730   -1.2430   -0.8900 ha        1 R4K      0.114000
     21 H31         2.0340    2.5270   -1.1750 hn        1 R4K      0.319500
     22 HA         -2.1380    0.9650   -0.7410 h1        1 R4K      0.047700
     23 HB2        -0.8950   -1.4540    0.7070 h1        1 R4K      0.051700
     24 H34        -1.1970   -1.2730   -1.6150 ho        1 R4K      0.462000
     25 H30        -0.6400    0.6380    2.3310 ho        1 R4K      0.458000
     26 H54         4.3490    0.9980   -1.4520 ha        1 R4K      0.124000
     27 OXT        -3.0440   -1.6530   -1.0870 o         1 R4K     -0.830800
     28 H          -2.4310    1.9480    1.1890 hn        1 R4K      0.360800
     29 H2         -3.2510    0.6640    1.7810 hn        1 R4K      0.360800
@<TRIPOS>BOND
     1    1    2 ar  
     2    1    6 ar  
     3    1   16 1   
     4    2    3 ar  
     5    2   18 1   
     6    3    4 ar  
     7    3   19 1   
     8    4    5 ar  
     9    4   20 1   
    10    5    6 ar  
    11    5   26 1   
    12    6    7 1   
    13    7    8 1   
    14    7   21 1   
    15    8    9 2   
    16    8   16 1   
    17   10   11 1   
    18   10   28 1   
    19   10   29 1   
    20   11   12 1   
    21   11   14 1   
    22   11   22 1   
    23   12   13 1   
    24   12   27 1   
    25   14   15 1   
    26   14   16 1   
    27   14   23 1   
    28   15   24 1   
    29   16   17 1   
    30   17   25 1   
@<TRIPOS>SUBSTRUCTURE
     1 R4K         1 TEMP              0 ****  ****    0 ROOT
