@<TRIPOS>MOLECULE
R4L
   90    96     1     0     0
SMALL
bcc


@<TRIPOS>ATOM
      1 CAP        -5.4380   -0.3260    2.8620 c3        1 R4L     -0.087900
      2 CAN        -4.5680   -1.4660    3.3630 c3        1 R4L     -0.076400
      3 CAO        -5.1180   -2.7430    2.7480 c3        1 R4L     -0.076400
      4 CAQ        -5.8420   -2.3350    1.4760 c3        1 R4L     -0.087900
      5 CBO        -6.2220   -0.8420    1.6330 c3        1 R4L      0.222500
      6 NBT        -6.1190   -0.1140    0.3760 na        1 R4L     -0.644700
      7 CBK        -6.8780    1.0850    0.2380 ca        1 R4L      0.164600
      8 CAK        -7.1760    1.9240    1.3320 ca        1 R4L     -0.168000
      9 CAG        -7.9370    3.0750    1.1570 ca        1 R4L     -0.093000
     10 CAF        -8.4160    3.4220   -0.1050 ca        1 R4L     -0.150000
     11 CAJ        -8.1490    2.5960   -1.1910 ca        1 R4L     -0.067000
     12 CBJ        -7.3880    1.4310   -1.0340 ca        1 R4L     -0.140600
     13 CBI        -7.2540    0.5620   -2.2330 c         1 R4L      0.728100
     14 OAE        -8.2130    0.4320   -3.0230 o         1 R4L     -0.633500
     15 NBS        -6.0610   -0.0980   -2.5260 n         1 R4L     -0.359000
     16 CAC        -5.9980   -0.9180   -3.7130 c3        1 R4L      0.078300
     17 C5         -4.8910   -0.0040   -1.7580 ca        1 R4L     -0.210000
     18 C6         -3.6190    0.0770   -2.3880 ca        1 R4L      0.436200
     19 N1         -2.4530    0.0770   -1.7350 nb        1 R4L     -0.720000
     20 C4         -4.8680   -0.0550   -0.3160 ca        1 R4L      0.673200
     21 N3         -3.6970   -0.0550    0.3700 nb        1 R4L     -0.760000
     22 C2         -2.5190    0.0050   -0.3530 ca        1 R4L      0.858900
     23 NBB        -1.3250    0.0840    0.4130 nh        1 R4L     -0.679300
     24 CBF        -0.0880   -0.2970   -0.1610 ca        1 R4L      0.113600
     25 CBH         0.6790   -1.3700    0.3880 ca        1 R4L      0.087100
     26 CAM         1.9420   -1.6820   -0.1170 ca        1 R4L     -0.152000
     27 OBC         0.0990   -2.0400    1.4520 os        1 R4L     -0.343900
     28 CAA         0.7670   -3.2150    1.8980 c3        1 R4L      0.116700
     29 CAI         0.4710    0.4270   -1.2300 ca        1 R4L     -0.088000
     30 CAH         1.7290    0.1050   -1.7350 ca        1 R4L     -0.124000
     31 CBE         2.4670   -0.9390   -1.1790 ca        1 R4L     -0.108600
     32 CBD         3.7900   -1.3470   -1.7360 c         1 R4L      0.665700
     33 OAD         3.9910   -2.5330   -2.0670 o         1 R4L     -0.595100
     34 NBQ         4.7660   -0.3730   -1.9540 n         1 R4L     -0.452800
     35 CAU         6.0580   -0.7700   -2.4800 c3        1 R4L      0.080000
     36 CAS         7.1970   -0.7180   -1.4620 c3        1 R4L     -0.118400
     37 CAT         4.7830    0.8700   -1.2150 c3        1 R4L      0.080000
     38 CAR         5.8980    0.9670   -0.1720 c3        1 R4L     -0.118400
     39 CBN         7.2620    0.6780   -0.8220 c3        1 R4L      0.188500
     40 NBR         8.4340    0.8440    0.0330 n3        1 R4L     -0.730600
     41 CAX         8.7270    2.2390    0.3270 c3        1 R4L      0.138800
     42 CAV         9.9910    2.4090    1.1980 c3        1 R4L      0.161800
     43 NBP        10.0340    1.5850    2.3950 n3        1 R4L     -0.719600
     44 CAB         9.2650    2.1210    3.4960 c3        1 R4L      0.149100
     45 CAW         9.7120    0.2030    2.0780 c3        1 R4L      0.161800
     46 CAY         8.4440    0.0030    1.2190 c3        1 R4L      0.138800
     47 HAP1       -6.1720   -0.0300    3.6550 hc        1 R4L      0.051700
     48 HAP2       -4.8180    0.5740    2.6320 hc        1 R4L      0.051700
     49 HAN1       -3.5070   -1.3100    3.0390 hc        1 R4L      0.043450
     50 HAN2       -4.5770   -1.5190    4.4790 hc        1 R4L      0.043450
     51 HBO        -7.3250   -0.7930    1.8900 h1        1 R4L      0.062700
     52 HAO1       -4.3000   -3.4710    2.5260 hc        1 R4L      0.043450
     53 HAO2       -5.8290   -3.2400    3.4560 hc        1 R4L      0.043450
     54 HAQ1       -5.1800   -2.5010    0.5890 hc        1 R4L      0.051700
     55 HAQ2       -6.7670   -2.9430    1.3200 hc        1 R4L      0.051700
     56 HAK        -6.8070    1.6750    2.3390 ha        1 R4L      0.147000
     57 HAG        -8.1560    3.7170    2.0250 ha        1 R4L      0.137000
     58 HAF        -9.0110    4.3370   -0.2410 ha        1 R4L      0.141000
     59 HAJ        -8.5510    2.8370   -2.1900 ha        1 R4L      0.157000
     60 HAC1       -7.0130   -1.3490   -3.9270 h1        1 R4L      0.052033
     61 HAC2       -5.6790   -0.2990   -4.5940 h1        1 R4L      0.052033
     62 HAC3       -5.2650   -1.7530   -3.5640 h1        1 R4L      0.052033
     63 H6         -3.5370    0.1260   -3.4920 h4        1 R4L      0.037100
     64 HBB        -1.4370   -0.2540    1.3540 hn        1 R4L      0.441800
     65 HAI        -0.0900    1.2610   -1.6830 ha        1 R4L      0.162000
     66 HAM         2.5250   -2.5230    0.2870 ha        1 R4L      0.156000
     67 HAA1        0.8930   -3.9430    1.0600 h1        1 R4L      0.049367
     68 HAA2        1.7560   -2.9540    2.3460 h1        1 R4L      0.049367
     69 HAA3        0.0750   -3.6230    2.6780 h1        1 R4L      0.049367
     70 HAH         2.1350    0.6800   -2.5820 ha        1 R4L      0.148000
     71 HAU1        5.9880   -1.8150   -2.8960 h1        1 R4L      0.061700
     72 HAU2        6.2950   -0.0670   -3.3300 h1        1 R4L      0.061700
     73 HAT1        4.9220    1.7010   -1.9680 h1        1 R4L      0.061700
     74 HAT2        3.7950    1.0330   -0.7000 h1        1 R4L      0.061700
     75 HAS1        7.0410   -1.5020   -0.6770 hc        1 R4L      0.055700
     76 HAS2        8.1570   -0.9460   -1.9910 hc        1 R4L      0.055700
     77 HBN         7.3930    1.4230   -1.6680 h1        1 R4L      0.055700
     78 HAR1        5.8820    2.0010    0.2590 hc        1 R4L      0.055700
     79 HAR2        5.7080    0.2430    0.6610 hc        1 R4L      0.055700
     80 HAX1        8.9030    2.7680   -0.6500 h1        1 R4L      0.033450
     81 HAX2        7.8630    2.7510    0.8450 h1        1 R4L      0.033450
     82 HAY1        7.5390    0.1820    1.8700 h1        1 R4L      0.033450
     83 HAY2        8.4190   -1.0710    0.8820 h1        1 R4L      0.033450
     84 HAV1       10.8950    2.1360    0.5840 h1        1 R4L      0.058450
     85 HAV2       10.0720    3.4930    1.4830 h1        1 R4L      0.058450
     86 HAB1        8.1610    2.1780    3.2900 h1        1 R4L      0.031033
     87 HAB2        9.4250    1.4740    4.3980 h1        1 R4L      0.031033
     88 HAB3        9.6370    3.1540    3.7270 h1        1 R4L      0.031033
     89 HAW1       10.5980   -0.2180    1.5240 h1        1 R4L      0.058450
     90 HAW2        9.5820   -0.3820    3.0300 h1        1 R4L      0.058450
@<TRIPOS>BOND
     1    1    2 1   
     2    1    5 1   
     3    1   47 1   
     4    1   48 1   
     5    2    3 1   
     6    2   49 1   
     7    2   50 1   
     8    3    4 1   
     9    3   52 1   
    10    3   53 1   
    11    4    5 1   
    12    4   54 1   
    13    4   55 1   
    14    5    6 1   
    15    5   51 1   
    16    6    7 1   
    17    6   20 1   
    18    7    8 ar  
    19    7   12 ar  
    20    8    9 ar  
    21    8   56 1   
    22    9   10 ar  
    23    9   57 1   
    24   10   11 ar  
    25   10   58 1   
    26   11   12 ar  
    27   11   59 1   
    28   12   13 1   
    29   13   14 2   
    30   13   15 1   
    31   15   16 1   
    32   15   17 1   
    33   16   60 1   
    34   16   61 1   
    35   16   62 1   
    36   17   18 ar  
    37   17   20 ar  
    38   18   19 ar  
    39   18   63 1   
    40   19   22 ar  
    41   20   21 ar  
    42   21   22 ar  
    43   22   23 1   
    44   23   24 1   
    45   23   64 1   
    46   24   25 ar  
    47   24   29 ar  
    48   25   26 ar  
    49   25   27 1   
    50   26   31 ar  
    51   26   66 1   
    52   27   28 1   
    53   28   67 1   
    54   28   68 1   
    55   28   69 1   
    56   29   30 ar  
    57   29   65 1   
    58   30   31 ar  
    59   30   70 1   
    60   31   32 1   
    61   32   33 2   
    62   32   34 1   
    63   34   35 1   
    64   34   37 1   
    65   35   36 1   
    66   35   71 1   
    67   35   72 1   
    68   36   39 1   
    69   36   75 1   
    70   36   76 1   
    71   37   38 1   
    72   37   73 1   
    73   37   74 1   
    74   38   39 1   
    75   38   78 1   
    76   38   79 1   
    77   39   40 1   
    78   39   77 1   
    79   40   41 1   
    80   40   46 1   
    81   41   42 1   
    82   41   80 1   
    83   41   81 1   
    84   42   43 1   
    85   42   84 1   
    86   42   85 1   
    87   43   44 1   
    88   43   45 1   
    89   44   86 1   
    90   44   87 1   
    91   44   88 1   
    92   45   46 1   
    93   45   89 1   
    94   45   90 1   
    95   46   82 1   
    96   46   83 1   
@<TRIPOS>SUBSTRUCTURE
     1 R4L         1 TEMP              0 ****  ****    0 ROOT
