@<TRIPOS>MOLECULE
R4L
   90    96     1     0     0
SMALL
bcc


@<TRIPOS>ATOM
      1 CAP        -0.7420    0.4330   -0.0180 c3        1 R4L     -0.087900
      2 CAN         0.1580   -0.1280   -1.1070 c3        1 R4L     -0.076400
      3 CAO         1.4950   -0.4420   -0.4540 c3        1 R4L     -0.076400
      4 CAQ         1.2160   -0.6660    1.0220 c3        1 R4L     -0.087900
      5 CBO        -0.1120    0.0620    1.3450 c3        1 R4L      0.222500
      6 NBT        -0.9160   -0.6680    2.3160 na        1 R4L     -0.644700
      7 CBK        -1.8790    0.0670    3.0670 ca        1 R4L      0.164600
      8 CAK        -2.5430    1.1990    2.5490 ca        1 R4L     -0.168000
      9 CAG        -3.4620    1.8990    3.3240 ca        1 R4L     -0.093000
     10 CAF        -3.7450    1.4930    4.6270 ca        1 R4L     -0.150000
     11 CAJ        -3.0860    0.3910    5.1600 ca        1 R4L     -0.067000
     12 CBJ        -2.1540   -0.3240    4.3980 ca        1 R4L     -0.140600
     13 CBI        -1.4250   -1.4160    5.0970 c         1 R4L      0.728100
     14 OAE        -1.0950   -1.2810    6.2940 o         1 R4L     -0.633500
     15 NBS        -1.1210   -2.6160    4.4570 n         1 R4L     -0.359000
     16 CAC        -0.4190   -3.6370    5.2000 c3        1 R4L      0.078300
     17 C5         -1.4730   -2.9240    3.1340 ca        1 R4L     -0.210000
     18 C6         -1.9230   -4.2290    2.7930 ca        1 R4L      0.436200
     19 N1         -2.1920   -4.6310    1.5470 nb        1 R4L     -0.720000
     20 C4         -1.3430   -2.0040    2.0310 ca        1 R4L      0.673200
     21 N3         -1.6110   -2.3880    0.7570 nb        1 R4L     -0.760000
     22 C2         -2.0220   -3.6920    0.5450 ca        1 R4L      0.858900
     23 NBB        -2.3670   -4.0210   -0.7940 nh        1 R4L     -0.679300
     24 CBF        -2.3620   -5.3730   -1.2160 ca        1 R4L      0.113600
     25 CBH        -1.5010   -5.8130   -2.2670 ca        1 R4L      0.087100
     26 CAM        -1.5650   -7.1220   -2.7470 ca        1 R4L     -0.152000
     27 OBC        -0.6390   -4.8570   -2.7770 os        1 R4L     -0.343900
     28 CAA         0.3410   -5.3190   -3.7000 c3        1 R4L      0.116700
     29 CAI        -3.2710   -6.3040   -0.6800 ca        1 R4L     -0.088000
     30 CAH        -3.3250   -7.6110   -1.1600 ca        1 R4L     -0.124000
     31 CBE        -2.4830   -8.0190   -2.1930 ca        1 R4L     -0.108600
     32 CBD        -2.4740   -9.4280   -2.6870 c         1 R4L      0.665700
     33 OAD        -1.4050  -10.0700   -2.7290 o         1 R4L     -0.595100
     34 NBQ        -3.6840  -10.0380   -3.0240 n         1 R4L     -0.452800
     35 CAU        -3.6750  -11.4020   -3.5180 c3        1 R4L      0.080000
     36 CAS        -3.9720  -11.5330   -5.0120 c3        1 R4L     -0.118400
     37 CAT        -4.8420   -9.2700   -3.4220 c3        1 R4L      0.080000
     38 CAR        -5.1750   -9.3580   -4.9130 c3        1 R4L     -0.118400
     39 CBN        -5.2970  -10.8290   -5.3450 c3        1 R4L      0.188500
     40 NBR        -5.7220  -11.0650   -6.7230 n3        1 R4L     -0.730600
     41 CAX        -7.1260  -10.7500   -6.9430 c3        1 R4L      0.138800
     42 CAV        -7.5780  -11.0410   -8.3900 c3        1 R4L      0.161800
     43 NBP        -6.7300  -10.4790   -9.4300 n3        1 R4L     -0.719600
     44 CAB        -6.9790   -9.0780   -9.6860 c3        1 R4L      0.149100
     45 CAW        -5.3320  -10.7840   -9.1710 c3        1 R4L      0.161800
     46 CAY        -4.8490  -10.4910   -7.7340 c3        1 R4L      0.138800
     47 HAP1       -1.7850    0.0510   -0.1300 hc        1 R4L      0.051700
     48 HAP2       -0.7850    1.5500   -0.0990 hc        1 R4L      0.051700
     49 HAN1        0.2790    0.6010   -1.9450 hc        1 R4L      0.043450
     50 HAN2       -0.2910   -1.0620   -1.5310 hc        1 R4L      0.043450
     51 HBO         0.1460    1.0300    1.8740 h1        1 R4L      0.062700
     52 HAO1        2.2030    0.4150   -0.5890 hc        1 R4L      0.043450
     53 HAO2        1.9680   -1.3440   -0.9140 hc        1 R4L      0.043450
     54 HAQ1        1.1480   -1.7630    1.2360 hc        1 R4L      0.051700
     55 HAQ2        2.0350   -0.2520    1.6590 hc        1 R4L      0.051700
     56 HAK        -2.3390    1.5400    1.5220 ha        1 R4L      0.147000
     57 HAG        -3.9700    2.7790    2.8990 ha        1 R4L      0.137000
     58 HAF        -4.4780    2.0440    5.2340 ha        1 R4L      0.141000
     59 HAJ        -3.2720    0.0770    6.2020 ha        1 R4L      0.157000
     60 HAC1       -1.1520   -4.2990    5.7340 h1        1 R4L      0.052033
     61 HAC2        0.2500   -3.1550    5.9630 h1        1 R4L      0.052033
     62 HAC3        0.2010   -4.2600    4.5030 h1        1 R4L      0.052033
     63 H6         -2.0590   -5.0030    3.5740 h4        1 R4L      0.037100
     64 HBB        -1.9560   -3.4010   -1.4720 hn        1 R4L      0.441800
     65 HAI        -3.9510   -6.0050    0.1330 ha        1 R4L      0.162000
     66 HAM        -0.8870   -7.4710   -3.5400 ha        1 R4L      0.156000
     67 HAA1        0.9640   -4.4080   -3.8910 h1        1 R4L      0.049367
     68 HAA2       -0.1460   -5.6680   -4.6430 h1        1 R4L      0.049367
     69 HAA3        0.9590   -6.1340   -3.2500 h1        1 R4L      0.049367
     70 HAH        -4.0350   -8.3230   -0.7120 ha        1 R4L      0.148000
     71 HAU1       -2.6740  -11.8730   -3.3020 h1        1 R4L      0.061700
     72 HAU2       -4.4630  -11.9650   -2.9380 h1        1 R4L      0.061700
     73 HAT1       -4.7060   -8.1860   -3.1480 h1        1 R4L      0.061700
     74 HAT2       -5.7210   -9.6670   -2.8340 h1        1 R4L      0.061700
     75 HAS1       -4.0390  -12.6220   -5.2670 hc        1 R4L      0.055700
     76 HAS2       -3.1330  -11.0900   -5.6070 hc        1 R4L      0.055700
     77 HBN        -6.0960  -11.3030   -4.6940 h1        1 R4L      0.055700
     78 HAR1       -6.1400   -8.8180   -5.0860 hc        1 R4L      0.055700
     79 HAR2       -4.3810   -8.8450   -5.5130 hc        1 R4L      0.055700
     80 HAX1       -7.3590   -9.6710   -6.7040 h1        1 R4L      0.033450
     81 HAX2       -7.7370  -11.3940   -6.2510 h1        1 R4L      0.033450
     82 HAY1       -4.7440   -9.3730   -7.6130 h1        1 R4L      0.033450
     83 HAY2       -3.8290  -10.9490   -7.6100 h1        1 R4L      0.033450
     84 HAV1       -8.6270  -10.6540   -8.5100 h1        1 R4L      0.058450
     85 HAV2       -7.5920  -12.1560   -8.5510 h1        1 R4L      0.058450
     86 HAB1       -6.7500   -8.4110   -8.8100 h1        1 R4L      0.031033
     87 HAB2       -6.3490   -8.7520  -10.5550 h1        1 R4L      0.031033
     88 HAB3       -8.0590   -8.9470   -9.9600 h1        1 R4L      0.031033
     89 HAW1       -4.6820  -10.2030   -9.8810 h1        1 R4L      0.058450
     90 HAW2       -5.1950  -11.8820   -9.3850 h1        1 R4L      0.058450
@<TRIPOS>BOND
     1    1    2 1   
     2    1    5 1   
     3    1   47 1   
     4    1   48 1   
     5    2    3 1   
     6    2   49 1   
     7    2   50 1   
     8    3    4 1   
     9    3   52 1   
    10    3   53 1   
    11    4    5 1   
    12    4   54 1   
    13    4   55 1   
    14    5    6 1   
    15    5   51 1   
    16    6    7 1   
    17    6   20 1   
    18    7    8 ar  
    19    7   12 ar  
    20    8    9 ar  
    21    8   56 1   
    22    9   10 ar  
    23    9   57 1   
    24   10   11 ar  
    25   10   58 1   
    26   11   12 ar  
    27   11   59 1   
    28   12   13 1   
    29   13   14 2   
    30   13   15 1   
    31   15   16 1   
    32   15   17 1   
    33   16   60 1   
    34   16   61 1   
    35   16   62 1   
    36   17   18 ar  
    37   17   20 ar  
    38   18   19 ar  
    39   18   63 1   
    40   19   22 ar  
    41   20   21 ar  
    42   21   22 ar  
    43   22   23 1   
    44   23   24 1   
    45   23   64 1   
    46   24   25 ar  
    47   24   29 ar  
    48   25   26 ar  
    49   25   27 1   
    50   26   31 ar  
    51   26   66 1   
    52   27   28 1   
    53   28   67 1   
    54   28   68 1   
    55   28   69 1   
    56   29   30 ar  
    57   29   65 1   
    58   30   31 ar  
    59   30   70 1   
    60   31   32 1   
    61   32   33 2   
    62   32   34 1   
    63   34   35 1   
    64   34   37 1   
    65   35   36 1   
    66   35   71 1   
    67   35   72 1   
    68   36   39 1   
    69   36   75 1   
    70   36   76 1   
    71   37   38 1   
    72   37   73 1   
    73   37   74 1   
    74   38   39 1   
    75   38   78 1   
    76   38   79 1   
    77   39   40 1   
    78   39   77 1   
    79   40   41 1   
    80   40   46 1   
    81   41   42 1   
    82   41   80 1   
    83   41   81 1   
    84   42   43 1   
    85   42   84 1   
    86   42   85 1   
    87   43   44 1   
    88   43   45 1   
    89   44   86 1   
    90   44   87 1   
    91   44   88 1   
    92   45   46 1   
    93   45   89 1   
    94   45   90 1   
    95   46   82 1   
    96   46   83 1   
@<TRIPOS>SUBSTRUCTURE
     1 R4L         1 TEMP              0 ****  ****    0 ROOT
