@<TRIPOS>MOLECULE
R4L
   90    96     1     0     0
SMALL
bcc


@<TRIPOS>ATOM
      1 CAP        -0.7440    0.4350   -0.0340 c3        1 R4L     -0.087900
      2 CAN         0.1500   -0.1270   -1.1260 c3        1 R4L     -0.076400
      3 CAO         1.4900   -0.4400   -0.4800 c3        1 R4L     -0.076400
      4 CAQ         1.2190   -0.6620    0.9980 c3        1 R4L     -0.087900
      5 CBO        -0.1070    0.0670    1.3260 c3        1 R4L      0.222500
      6 NBT        -0.9060   -0.6620    2.3030 na        1 R4L     -0.644700
      7 CBK        -1.8640    0.0740    3.0580 ca        1 R4L      0.164600
      8 CAK        -2.5310    1.2060    2.5420 ca        1 R4L     -0.168000
      9 CAG        -3.4460    1.9070    3.3210 ca        1 R4L     -0.093000
     10 CAF        -3.7230    1.5030    4.6260 ca        1 R4L     -0.150000
     11 CAJ        -3.0600    0.4010    5.1570 ca        1 R4L     -0.067000
     12 CBJ        -2.1330   -0.3150    4.3910 ca        1 R4L     -0.140600
     13 CBI        -1.4010   -1.4060    5.0880 c         1 R4L      0.728100
     14 OAE        -1.0640   -1.2690    6.2820 o         1 R4L     -0.633500
     15 NBS        -1.1000   -2.6070    4.4470 n         1 R4L     -0.359000
     16 CAC        -0.3940   -3.6270    5.1880 c3        1 R4L      0.078300
     17 C5         -1.4590   -2.9170    3.1270 ca        1 R4L     -0.210000
     18 C6         -1.9110   -4.2220    2.7900 ca        1 R4L      0.436200
     19 N1         -2.1860   -4.6260    1.5460 nb        1 R4L     -0.720000
     20 C4         -1.3350   -1.9980    2.0220 ca        1 R4L      0.673200
     21 N3         -1.6090   -2.3840    0.7500 nb        1 R4L     -0.760000
     22 C2         -2.0210   -3.6880    0.5410 ca        1 R4L      0.858900
     23 NBB        -2.3720   -4.0190   -0.7960 nu        1 R4L     -0.679300
     24 CBF        -2.3680   -5.3720   -1.2140 ca        1 R4L      0.113600
     25 CBH        -1.5100   -5.8140   -2.2670 ca        1 R4L      0.087100
     26 CAM        -1.5750   -7.1230   -2.7450 ca        1 R4L     -0.152000
     27 OBC        -0.6500   -4.8590   -2.7820 os        1 R4L     -0.343900
     28 CAA         0.3290   -5.3220   -3.7060 c3        1 R4L      0.116700
     29 CAI        -3.2750   -6.3020   -0.6740 ca        1 R4L     -0.088000
     30 CAH        -3.3290   -7.6110   -1.1510 ca        1 R4L     -0.124000
     31 CBE        -2.4900   -8.0200   -2.1860 ca        1 R4L     -0.108600
     32 CBD        -2.4820   -9.4300   -2.6770 c         1 R4L      0.665700
     33 OAD        -1.4130  -10.0730   -2.7180 o         1 R4L     -0.595100
     34 NBQ        -3.6920  -10.0400   -3.0110 n         1 R4L     -0.452800
     35 CAU        -3.6840  -11.4050   -3.5040 c3        1 R4L      0.080000
     36 CAS        -3.9810  -11.5390   -4.9970 c3        1 R4L     -0.118400
     37 CAT        -4.8510   -9.2730   -3.4100 c3        1 R4L      0.080000
     38 CAR        -5.1830   -9.3630   -4.9010 c3        1 R4L     -0.118400
     39 CBN        -5.3060  -10.8340   -5.3320 c3        1 R4L      0.188500
     40 NBR        -5.7300  -11.0720   -6.7090 n3        1 R4L     -0.730600
     41 CAX        -7.1340  -10.7570   -6.9300 c3        1 R4L      0.138800
     42 CAV        -7.5860  -11.0500   -8.3770 c3        1 R4L      0.161800
     43 NBP        -6.7370  -10.4900   -9.4170 n3        1 R4L     -0.719600
     44 CAB        -6.9860   -9.0890   -9.6760 c3        1 R4L      0.149100
     45 CAW        -5.3400  -10.7950   -9.1580 c3        1 R4L      0.161800
     46 CAY        -4.8570  -10.5000   -7.7200 c3        1 R4L      0.138800
     47 HAP1       -1.7880    0.0540   -0.1400 hc        1 R4L      0.051700
     48 HAP2       -0.7880    1.5530   -0.1160 hc        1 R4L      0.051700
     49 HAN1       -0.3020   -1.0610   -1.5470 hc        1 R4L      0.043450
     50 HAN2        0.2660    0.6010   -1.9660 hc        1 R4L      0.043450
     51 HBO         0.1540    1.0360    1.8530 h1        1 R4L      0.062700
     52 HAO1        1.9600   -1.3430   -0.9420 hc        1 R4L      0.043450
     53 HAO2        2.1980    0.4160   -0.6210 hc        1 R4L      0.043450
     54 HAQ1        1.1530   -1.7580    1.2140 hc        1 R4L      0.051700
     55 HAQ2        2.0420   -0.2470    1.6300 hc        1 R4L      0.051700
     56 HAK        -2.3330    1.5450    1.5140 ha        1 R4L      0.147000
     57 HAG        -3.9560    2.7860    2.8970 ha        1 R4L      0.137000
     58 HAF        -4.4520    2.0550    5.2360 ha        1 R4L      0.141000
     59 HAJ        -3.2410    0.0890    6.2000 ha        1 R4L      0.157000
     60 HAC1       -1.1250   -4.2880    5.7280 h1        1 R4L      0.052033
     61 HAC2        0.2220   -4.2510    4.4890 h1        1 R4L      0.052033
     62 HAC3        0.2790   -3.1440    5.9470 h1        1 R4L      0.052033
     63 H6         -2.0430   -4.9940    3.5730 h4        1 R4L      0.037100
     64 HBB        -1.9640   -3.4010   -1.4750 hn        1 R4L      0.441800
     65 HAI        -3.9530   -6.0020    0.1410 ha        1 R4L      0.162000
     66 HAM        -0.8980   -7.4740   -3.5390 ha        1 R4L      0.156000
     67 HAA1        0.9480   -6.1360   -3.2550 h1        1 R4L      0.049367
     68 HAA2       -0.1600   -5.6730   -4.6470 h1        1 R4L      0.049367
     69 HAA3        0.9500   -4.4110   -3.9000 h1        1 R4L      0.049367
     70 HAH        -4.0380   -8.3220   -0.7000 ha        1 R4L      0.148000
     71 HAU1       -4.4720  -11.9670   -2.9230 h1        1 R4L      0.061700
     72 HAU2       -2.6830  -11.8760   -3.2870 h1        1 R4L      0.061700
     73 HAT1       -4.7140   -8.1890   -3.1380 h1        1 R4L      0.061700
     74 HAT2       -5.7290   -9.6690   -2.8220 h1        1 R4L      0.061700
     75 HAS1       -4.0480  -12.6280   -5.2500 hc        1 R4L      0.055700
     76 HAS2       -3.1420  -11.0970   -5.5920 hc        1 R4L      0.055700
     77 HBN        -6.1050  -11.3070   -4.6800 h1        1 R4L      0.055700
     78 HAR1       -4.3890   -8.8510   -5.5020 hc        1 R4L      0.055700
     79 HAR2       -6.1480   -8.8220   -5.0750 hc        1 R4L      0.055700
     80 HAX1       -7.3660   -9.6780   -6.6920 h1        1 R4L      0.033450
     81 HAX2       -7.7450  -11.4000   -6.2370 h1        1 R4L      0.033450
     82 HAY1       -4.7510   -9.3810   -7.6010 h1        1 R4L      0.033450
     83 HAY2       -3.8370  -10.9580   -7.5960 h1        1 R4L      0.033450
     84 HAV1       -7.6000  -12.1650   -8.5360 h1        1 R4L      0.058450
     85 HAV2       -8.6340  -10.6630   -8.4980 h1        1 R4L      0.058450
     86 HAB1       -6.7570   -8.4210   -8.8010 h1        1 R4L      0.031033
     87 HAB2       -6.3550   -8.7650  -10.5450 h1        1 R4L      0.031033
     88 HAB3       -8.0660   -8.9580   -9.9500 h1        1 R4L      0.031033
     89 HAW1       -5.2030  -11.8930   -9.3690 h1        1 R4L      0.058450
     90 HAW2       -4.6890  -10.2160   -9.8680 h1        1 R4L      0.058450
@<TRIPOS>BOND
     1    1    2 1   
     2    1    5 1   
     3    1   47 1   
     4    1   48 1   
     5    2    3 1   
     6    2   49 1   
     7    2   50 1   
     8    3    4 1   
     9    3   52 1   
    10    3   53 1   
    11    4    5 1   
    12    4   54 1   
    13    4   55 1   
    14    5    6 1   
    15    5   51 1   
    16    6    7 1   
    17    6   20 1   
    18    7    8 ar  
    19    7   12 ar  
    20    8    9 ar  
    21    8   56 1   
    22    9   10 ar  
    23    9   57 1   
    24   10   11 ar  
    25   10   58 1   
    26   11   12 ar  
    27   11   59 1   
    28   12   13 1   
    29   13   14 2   
    30   13   15 1   
    31   15   16 1   
    32   15   17 1   
    33   16   60 1   
    34   16   61 1   
    35   16   62 1   
    36   17   18 ar  
    37   17   20 ar  
    38   18   19 ar  
    39   18   63 1   
    40   19   22 ar  
    41   20   21 ar  
    42   21   22 ar  
    43   22   23 1   
    44   23   24 1   
    45   23   64 1   
    46   24   25 ar  
    47   24   29 ar  
    48   25   26 ar  
    49   25   27 1   
    50   26   31 ar  
    51   26   66 1   
    52   27   28 1   
    53   28   67 1   
    54   28   68 1   
    55   28   69 1   
    56   29   30 ar  
    57   29   65 1   
    58   30   31 ar  
    59   30   70 1   
    60   31   32 1   
    61   32   33 2   
    62   32   34 1   
    63   34   35 1   
    64   34   37 1   
    65   35   36 1   
    66   35   71 1   
    67   35   72 1   
    68   36   39 1   
    69   36   75 1   
    70   36   76 1   
    71   37   38 1   
    72   37   73 1   
    73   37   74 1   
    74   38   39 1   
    75   38   78 1   
    76   38   79 1   
    77   39   40 1   
    78   39   77 1   
    79   40   41 1   
    80   40   46 1   
    81   41   42 1   
    82   41   80 1   
    83   41   81 1   
    84   42   43 1   
    85   42   84 1   
    86   42   85 1   
    87   43   44 1   
    88   43   45 1   
    89   44   86 1   
    90   44   87 1   
    91   44   88 1   
    92   45   46 1   
    93   45   89 1   
    94   45   90 1   
    95   46   82 1   
    96   46   83 1   
@<TRIPOS>SUBSTRUCTURE
     1 R4L         1 TEMP              0 ****  ****    0 ROOT
