@<TRIPOS>MOLECULE
R4L
   91    97     1     0     0
SMALL
bcc


@<TRIPOS>ATOM
      1 CAP        -2.9060   -0.8900    0.1470 c3        1 R4L     -0.090900
      2 CAN        -2.3710   -0.4190   -1.1950 c3        1 R4L     -0.077400
      3 CAO        -1.3250    0.6450   -0.9060 c3        1 R4L     -0.077400
      4 CAQ        -0.8220    0.3970    0.5060 c3        1 R4L     -0.090900
      5 CBO        -1.9130   -0.4220    1.2360 c3        1 R4L      0.215500
      6 NBT        -1.3510   -1.4200    2.1390 na        1 R4L     -0.637700
      7 CBK        -2.1680   -1.8670    3.2230 ca        1 R4L      0.141600
      8 CAK        -3.5670   -1.9970    3.1200 ca        1 R4L     -0.157000
      9 CAG        -4.3190   -2.4070    4.2180 ca        1 R4L     -0.082000
     10 CAF        -3.6990   -2.6970    5.4330 ca        1 R4L     -0.128000
     11 CAJ        -2.3190   -2.5590    5.5550 ca        1 R4L     -0.059000
     12 CBJ        -1.5490   -2.1480    4.4600 ca        1 R4L     -0.150600
     13 CBI        -0.1030   -1.9320    4.6990 c         1 R4L      0.734100
     14 OAE         0.3030   -1.3920    5.7390 o         1 R4L     -0.564500
     15 NBS         0.8660   -2.4020    3.7790 n         1 R4L     -0.362000
     16 CAC         2.2520   -2.4070    4.2100 c3        1 R4L      0.056300
     17 C5          0.5980   -2.9040    2.5160 ca        1 R4L     -0.073000
     18 C6          1.4510   -3.9000    1.9460 ca        1 R4L      0.381200
     19 N1          1.3330   -4.3630    0.6930 nb        1 R4L     -0.635000
     20 C4         -0.4720   -2.4210    1.6490 ca        1 R4L      0.651200
     21 N3         -0.6050   -2.8980    0.3820 nb        1 R4L     -0.694000
     22 C2          0.3150   -3.8190   -0.0380 ca        1 R4L      0.666900
     23 NBB         0.1750   -4.2930   -1.4520 n4        1 R4L     -0.584100
     24 CBF        -0.9560   -5.2080   -1.6200 ca        1 R4L     -0.086400
     25 CBH        -0.7290   -6.5990   -1.7780 ca        1 R4L      0.174100
     26 CAM        -1.8210   -7.4670   -1.9240 ca        1 R4L     -0.158000
     27 OBC         0.5850   -6.9990   -1.8000 os        1 R4L     -0.351900
     28 CAA         0.8330   -8.4090   -1.8220 c3        1 R4L      0.116700
     29 CAI        -2.2720   -4.7080   -1.6250 ca        1 R4L     -0.066000
     30 CAH        -3.3410   -5.5800   -1.7820 ca        1 R4L     -0.128000
     31 CBE        -3.1160   -6.9550   -1.9230 ca        1 R4L     -0.036600
     32 CBD        -4.2650   -7.9230   -1.9680 c         1 R4L      0.647700
     33 OAD        -4.3410   -8.7940   -1.0800 o         1 R4L     -0.569100
     34 NBQ        -5.2520   -7.7560   -2.9280 n         1 R4L     -0.440800
     35 CAU        -6.3460   -8.7140   -2.9900 c3        1 R4L      0.078000
     36 CAS        -6.2860   -9.6550   -4.1920 c3        1 R4L     -0.120400
     37 CAT        -5.0060   -7.0510   -4.1690 c3        1 R4L      0.078000
     38 CAR        -4.9250   -7.9560   -5.3990 c3        1 R4L     -0.120400
     39 CBN        -6.1810   -8.8410   -5.4920 c3        1 R4L      0.193500
     40 NBR        -6.2930   -9.6780   -6.6800 n3        1 R4L     -0.730600
     41 CAX        -6.6200   -8.9230   -7.8810 c3        1 R4L      0.139800
     42 CAV        -6.7880   -9.8280   -9.1220 c3        1 R4L      0.163800
     43 NBP        -5.7070  -10.7720   -9.3510 n3        1 R4L     -0.718600
     44 CAB        -4.5550  -10.1950  -10.0060 c3        1 R4L      0.150100
     45 CAW        -5.3890  -11.4950   -8.1310 c3        1 R4L      0.163800
     46 CAY        -5.2000  -10.6160   -6.8750 c3        1 R4L      0.139800
     47 HAP1       -3.9020   -0.4150    0.3460 hc        1 R4L      0.053950
     48 HAP2       -3.0630   -1.9960    0.1490 hc        1 R4L      0.053950
     49 HAN1       -1.9090   -1.2770   -1.7480 hc        1 R4L      0.045700
     50 HAN2       -3.1930   -0.0130   -1.8360 hc        1 R4L      0.045700
     51 HBO        -2.4700    0.2830    1.9270 h1        1 R4L      0.084700
     52 HAO1       -0.4880    0.6030   -1.6440 hc        1 R4L      0.045700
     53 HAO2       -1.7830    1.6650   -0.9780 hc        1 R4L      0.045700
     54 HAQ1        0.1570   -0.1440    0.4770 hc        1 R4L      0.053950
     55 HAQ2       -0.6500    1.3590    1.0500 hc        1 R4L      0.053950
     56 HAK        -4.0820   -1.7640    2.1750 ha        1 R4L      0.149000
     57 HAG        -5.4120   -2.5000    4.1220 ha        1 R4L      0.152000
     58 HAF        -4.2980   -3.0230    6.2980 ha        1 R4L      0.159000
     59 HAJ        -1.8210   -2.7510    6.5200 ha        1 R4L      0.166000
     60 HAC1        2.4080   -1.6040    4.9820 h1        1 R4L      0.068700
     61 HAC2        2.5100   -3.4010    4.6640 h1        1 R4L      0.068700
     62 HAC3        2.9280   -2.2030    3.3380 h1        1 R4L      0.068700
     63 H6          2.2850   -4.3460    2.5260 h4        1 R4L      0.067100
     64 HBB         1.0440   -4.7820   -1.7250 hn        1 R4L      0.478800
     65 HAI        -2.4640   -3.6280   -1.4960 ha        1 R4L      0.171000
     66 HAM        -1.6640   -8.5550   -2.0130 ha        1 R4L      0.182000
     67 HAA1        0.4610   -8.8490   -2.7780 h1        1 R4L      0.069033
     68 HAA2        0.3610   -8.9020   -0.9380 h1        1 R4L      0.069033
     69 HAA3        1.9510   -8.4640   -1.7630 h1        1 R4L      0.069033
     70 HAH        -4.3720   -5.1880   -1.7830 ha        1 R4L      0.174000
     71 HAU1       -7.2980   -8.1100   -3.0380 h1        1 R4L      0.063700
     72 HAU2       -6.3620   -9.3260   -2.0440 h1        1 R4L      0.063700
     73 HAT1       -5.8640   -6.3290   -4.3090 h1        1 R4L      0.063700
     74 HAT2       -4.0580   -6.4500   -4.0950 h1        1 R4L      0.063700
     75 HAS1       -7.2190  -10.2750   -4.2000 hc        1 R4L      0.060950
     76 HAS2       -5.4130  -10.3490   -4.0910 hc        1 R4L      0.060950
     77 HBN        -7.0760   -8.1450   -5.5190 h1        1 R4L      0.058700
     78 HAR1       -4.8400   -7.3040   -6.3060 hc        1 R4L      0.060950
     79 HAR2       -4.0070   -8.5960   -5.3480 hc        1 R4L      0.060950
     80 HAX1       -7.5970   -8.3940   -7.7030 h1        1 R4L      0.031450
     81 HAX2       -5.8390   -8.1400   -8.1080 h1        1 R4L      0.031450
     82 HAY1       -5.1600  -11.2950   -5.9790 h1        1 R4L      0.031450
     83 HAY2       -4.2040  -10.0880   -6.9540 h1        1 R4L      0.031450
     84 HAV1       -7.7300  -10.4340   -9.0050 h1        1 R4L      0.063200
     85 HAV2       -6.9050   -9.1630  -10.0210 h1        1 R4L      0.063200
     86 HAB1       -3.8170  -11.0110  -10.2250 h1        1 R4L      0.031700
     87 HAB2       -4.8820   -9.7390  -10.9770 h1        1 R4L      0.031700
     88 HAB3       -4.0400   -9.4020   -9.3960 h1        1 R4L      0.031700
     89 HAW1       -4.4480  -12.0920   -8.2810 h1        1 R4L      0.063200
     90 HAW2       -6.2380  -12.2130   -7.9480 h1        1 R4L      0.063200
     91 HBB2        0.0330   -3.4730   -2.0570 hn        1 R4L      0.478800
@<TRIPOS>BOND
     1    1    2 1   
     2    1    5 1   
     3    1   47 1   
     4    1   48 1   
     5    2    3 1   
     6    2   49 1   
     7    2   50 1   
     8    3    4 1   
     9    3   52 1   
    10    3   53 1   
    11    4    5 1   
    12    4   54 1   
    13    4   55 1   
    14    5    6 1   
    15    5   51 1   
    16    6    7 1   
    17    6   20 1   
    18    7    8 ar  
    19    7   12 ar  
    20    8    9 ar  
    21    8   56 1   
    22    9   10 ar  
    23    9   57 1   
    24   10   11 ar  
    25   10   58 1   
    26   11   12 ar  
    27   11   59 1   
    28   12   13 1   
    29   13   14 2   
    30   13   15 1   
    31   15   16 1   
    32   15   17 1   
    33   16   60 1   
    34   16   61 1   
    35   16   62 1   
    36   17   18 ar  
    37   17   20 ar  
    38   18   19 ar  
    39   18   63 1   
    40   19   22 ar  
    41   20   21 ar  
    42   21   22 ar  
    43   22   23 1   
    44   23   24 1   
    45   23   64 1   
    46   23   91 1   
    47   24   25 ar  
    48   24   29 ar  
    49   25   26 ar  
    50   25   27 1   
    51   26   31 ar  
    52   26   66 1   
    53   27   28 1   
    54   28   67 1   
    55   28   68 1   
    56   28   69 1   
    57   29   30 ar  
    58   29   65 1   
    59   30   31 ar  
    60   30   70 1   
    61   31   32 1   
    62   32   33 2   
    63   32   34 1   
    64   34   35 1   
    65   34   37 1   
    66   35   36 1   
    67   35   71 1   
    68   35   72 1   
    69   36   39 1   
    70   36   75 1   
    71   36   76 1   
    72   37   38 1   
    73   37   73 1   
    74   37   74 1   
    75   38   39 1   
    76   38   78 1   
    77   38   79 1   
    78   39   40 1   
    79   39   77 1   
    80   40   41 1   
    81   40   46 1   
    82   41   42 1   
    83   41   80 1   
    84   41   81 1   
    85   42   43 1   
    86   42   84 1   
    87   42   85 1   
    88   43   44 1   
    89   43   45 1   
    90   44   86 1   
    91   44   87 1   
    92   44   88 1   
    93   45   46 1   
    94   45   89 1   
    95   45   90 1   
    96   46   82 1   
    97   46   83 1   
@<TRIPOS>SUBSTRUCTURE
     1 R4L         1 TEMP              0 ****  ****    0 ROOT
