@<TRIPOS>MOLECULE
R4L
   90    91     1     0     0
SMALL
bcc


@<TRIPOS>ATOM
      1 CAP         5.8790    2.1600    2.4530 c3        1 R4L     -0.160000
      2 CAN         7.4000    2.0510    3.0760 c3        1 R4L     -0.157500
      3 CAO         7.6830    3.2670    3.5980 c3        1 R4L     -0.157500
      4 CAQ         6.2690    3.8910    3.9870 c3        1 R4L     -0.160000
      5 CBO         5.1800    2.9450    3.3010 c3        1 R4L      0.011000
      6 NBT         4.5150    2.1360    4.2990 na        1 R4L     -0.192000
      7 CBK         3.8390    2.9960    5.2380 c2        1 R4L      0.071000
      8 CAK         3.6860    4.3880    5.1280 c1        1 R4L     -0.163000
      9 CAG         3.3990    5.1400    6.2440 c1        1 R4L     -0.121500
     10 CAF         3.2600    4.5200    7.4870 c1        1 R4L     -0.121500
     11 CAJ         3.4110    3.1430    7.5990 c1        1 R4L     -0.068000
     12 CBJ         3.7020    2.3800    6.4660 c2        1 R4L     -0.116000
     13 CBI         4.1420    0.9100    6.3940 c2        1 R4L      0.367000
     14 OAE         5.0970    0.4490    6.9930 o         1 R4L     -0.357000
     15 NBS         3.1880    0.1290    5.6830 n         1 R4L     -0.262000
     16 CAC         2.0010   -0.5470    6.3160 c3        1 R4L     -0.077000
     17 C5          3.5620    0.0010    4.2650 c2        1 R4L     -0.067000
     18 C6          3.0900   -1.1110    3.5860 c2        1 R4L     -0.027000
     19 N1          2.6420   -0.9890    2.3190 n1        1 R4L     -0.193000
     20 C4          3.5750    1.2320    3.6450 c2        1 R4L      0.140000
     21 N3          3.1230    1.3520    2.3680 n2        1 R4L     -0.237000
     22 C2          2.6540    0.2440    1.6960 c1        1 R4L      0.141000
     23 NBB         1.8930    0.6740    0.5290 n3        1 R4L     -0.199000
     24 CBF         1.1780   -0.2840   -0.2480 c2        1 R4L      0.030000
     25 CBH         1.8660   -1.1550   -1.0780 c2        1 R4L      0.044000
     26 CAM         1.1680   -2.0340   -1.8860 c1        1 R4L     -0.153000
     27 OBC         3.2910   -1.0420   -1.2100 os        1 R4L     -0.226000
     28 CAA         3.7510   -0.9820   -2.5810 c3        1 R4L     -0.073000
     29 CAI        -0.2170   -0.2950   -0.2290 c1        1 R4L     -0.086000
     30 CAH        -0.9150   -1.1730   -1.0360 c1        1 R4L     -0.126000
     31 CBE        -0.2320   -2.0420   -1.8650 c1        1 R4L     -0.087000
     32 CBD        -0.9890   -3.1510   -2.5870 c2        1 R4L      0.339000
     33 OAD        -0.3740   -4.0160   -3.1750 o         1 R4L     -0.354000
     34 NBQ        -2.4800   -3.0940   -2.6960 n         1 R4L     -0.310000
     35 CAU        -3.2500   -4.0460   -3.4920 c3        1 R4L     -0.038500
     36 CAS        -4.2060   -3.3510   -4.4650 c3        1 R4L     -0.183500
     37 CAT        -3.3000   -2.0820   -2.0170 c3        1 R4L     -0.038500
     38 CAR        -4.2540   -1.3700   -2.9820 c3        1 R4L     -0.183500
     39 CBN        -5.0620   -2.3360   -3.7900 c3        1 R4L     -0.005000
     40 NBR        -5.8190   -1.5920   -4.8170 n3        1 R4L     -0.264000
     41 CAX        -6.6010   -2.6000   -5.7190 c3        1 R4L     -0.080500
     42 CAV        -7.5090   -1.9080   -6.7290 c3        1 R4L     -0.085000
     43 NBP        -7.7580   -0.7000   -6.3800 n3        1 R4L     -0.258000
     44 CAB        -8.7100   -0.1090   -7.3100 c3        1 R4L     -0.120000
     45 CAW        -7.9910   -0.2690   -5.1990 c3        1 R4L     -0.085000
     46 CAY        -7.0820   -0.9490   -4.1710 c3        1 R4L     -0.080500
     47 HAP1        5.9090    2.5700    1.5570 hc        1 R4L      0.094750
     48 HAP2        5.4730    1.2760    2.4030 hc        1 R4L      0.094750
     49 HAN1        7.4280    1.3730    3.7740 hc        1 R4L      0.082500
     50 HAN2        8.0470    1.8300    2.3590 hc        1 R4L      0.082500
     51 HBO         4.5280    3.4800    2.8080 h1        1 R4L      0.083000
     52 HAO1        8.2430    3.1740    4.3930 hc        1 R4L      0.082500
     53 HAO2        8.1320    3.8310    2.9270 hc        1 R4L      0.082500
     54 HAQ1        6.1550    3.8880    4.9590 hc        1 R4L      0.094750
     55 HAQ2        6.1920    4.8050    3.6380 hc        1 R4L      0.094750
     56 HAK         3.7850    4.8270    4.2510 ha        1 R4L      0.145000
     57 HAG         3.2910    6.1190    6.1650 ha        1 R4L      0.139000
     58 HAF         3.0570    5.0520    8.2740 ha        1 R4L      0.139000
     59 HAJ         3.3150    2.7130    8.4620 ha        1 R4L      0.157000
     60 HAC1        1.2880   -0.6580    5.6430 h1        1 R4L      0.091333
     61 HAC2        2.2730   -1.4390    6.6600 h1        1 R4L      0.091333
     62 HAC3        1.6640    0.0080    7.0660 h1        1 R4L      0.091333
     63 H6          3.0810   -1.9840    4.0250 h4        1 R4L      0.174000
     64 HBB         1.9410    1.5340    0.2510 hn        1 R4L      0.237000
     65 HAI        -0.7030    0.3190    0.3590 ha        1 R4L      0.162000
     66 HAM         1.6500   -2.6470   -2.4710 ha        1 R4L      0.156000
     67 HAA1        3.9560   -1.8970   -2.9010 h1        1 R4L      0.089000
     68 HAA2        4.5610   -0.4290   -2.6310 h1        1 R4L      0.089000
     69 HAA3        3.0490   -0.5870   -3.1450 h1        1 R4L      0.089000
     70 HAH        -1.8820   -1.1780   -1.0220 ha        1 R4L      0.148000
     71 HAU1       -2.6250   -4.6070   -4.0060 h1        1 R4L      0.100500
     72 HAU2       -3.7650   -4.6130   -2.8940 h1        1 R4L      0.100500
     73 HAT1       -2.7150   -1.4210   -1.6040 h1        1 R4L      0.100500
     74 HAT2       -3.8290   -2.5210   -1.3150 h1        1 R4L      0.100500
     75 HAS1       -3.6760   -2.9040   -5.1720 hc        1 R4L      0.097250
     76 HAS2       -4.7830   -4.0260   -4.8790 hc        1 R4L      0.097250
     77 HBN        -5.6880   -2.7910   -3.2030 h1        1 R4L      0.058000
     78 HAR1       -3.7310   -0.8120   -3.5870 hc        1 R4L      0.097250
     79 HAR2       -4.8650   -0.7940   -2.4650 hc        1 R4L      0.097250
     80 HAX1       -7.1510   -3.1810   -5.1430 h1        1 R4L      0.083750
     81 HAX2       -5.9570   -3.1550   -6.2020 h1        1 R4L      0.083750
     82 HAY1       -7.5950   -1.6510   -3.7070 h1        1 R4L      0.083750
     83 HAY2       -6.7910   -0.2740   -3.5070 h1        1 R4L      0.083750
     84 HAV1       -8.3570   -2.4070   -6.7960 h1        1 R4L      0.085750
     85 HAV2       -7.0630   -1.9050   -7.6160 h1        1 R4L      0.085750
     86 HAB1       -8.4080   -0.2740   -8.2410 h1        1 R4L      0.070667
     87 HAB2       -9.5990   -0.5170   -7.1750 h1        1 R4L      0.070667
     88 HAB3       -8.7650    0.8490   -7.1530 h1        1 R4L      0.070667
     89 HAW1       -8.9290   -0.4530   -4.9690 h1        1 R4L      0.085750
     90 HAW2       -7.8370    0.7000   -5.1740 h1        1 R4L      0.085750
@<TRIPOS>BOND
     1    1    2 1   
     2    1    5 1   
     3    1   47 1   
     4    1   48 1   
     5    2    3 1   
     6    2   49 1   
     7    2   50 1   
     8    3    4 1   
     9    3   52 1   
    10    3   53 1   
    11    4    5 1   
    12    4   54 1   
    13    4   55 1   
    14    5    6 1   
    15    5   51 1   
    16    6    7 1   
    17    6   20 1   
    18    7    8 1   
    19    7   12 1   
    20    8   56 1   
    21    9   10 1   
    22    9   57 1   
    23   10   58 1   
    24   11   12 1   
    25   11   59 1   
    26   12   13 1   
    27   13   14 1   
    28   13   15 1   
    29   15   16 1   
    30   15   17 1   
    31   16   60 1   
    32   16   61 1   
    33   16   62 1   
    34   17   18 1   
    35   17   20 1   
    36   18   19 1   
    37   18   63 1   
    38   20   21 1   
    39   21   22 1   
    40   22   23 1   
    41   23   24 1   
    42   23   64 1   
    43   24   25 1   
    44   24   29 1   
    45   25   26 1   
    46   25   27 1   
    47   26   66 1   
    48   27   28 1   
    49   28   67 1   
    50   28   68 1   
    51   28   69 1   
    52   29   65 1   
    53   30   31 1   
    54   30   70 1   
    55   31   32 1   
    56   32   33 1   
    57   32   34 1   
    58   34   35 1   
    59   34   37 1   
    60   35   36 1   
    61   35   71 1   
    62   35   72 1   
    63   36   39 1   
    64   36   75 1   
    65   36   76 1   
    66   37   38 1   
    67   37   73 1   
    68   37   74 1   
    69   38   39 1   
    70   38   78 1   
    71   38   79 1   
    72   39   40 1   
    73   39   77 1   
    74   40   41 1   
    75   40   46 1   
    76   41   42 1   
    77   41   80 1   
    78   41   81 1   
    79   42   43 1   
    80   42   84 1   
    81   42   85 1   
    82   43   44 1   
    83   43   45 1   
    84   44   86 1   
    85   44   87 1   
    86   44   88 1   
    87   45   46 1   
    88   45   89 1   
    89   45   90 1   
    90   46   82 1   
    91   46   83 1   
@<TRIPOS>SUBSTRUCTURE
     1 R4L         1 TEMP              0 ****  ****    0 ROOT
