@<TRIPOS>MOLECULE
R4M
   48    49     1     0     0
SMALL
bcc


@<TRIPOS>ATOM
      1 C2'         0.4610    1.0610   -0.5230 c3        1 R4M     -0.047200
      2 C1'         1.6900    1.9350   -0.3970 c3        1 R4M     -0.090400
      3 C18         2.3920    1.7320    0.9360 c3        1 R4M     -0.017400
      4 C4'         3.4180    2.8360    1.1200 c3        1 R4M     -0.106100
      5 C5          1.4410    1.6290    2.0880 ca        1 R4M     -0.034300
      6 C4          1.9530    1.6730    3.3920 ca        1 R4M     -0.139000
      7 C3          1.1230    1.5210    4.4980 ca        1 R4M     -0.135000
      8 C2         -0.2420    1.3110    4.3150 ca        1 R4M     -0.154000
      9 C1         -0.7680    1.2680    3.0270 ca        1 R4M     -0.126000
     10 C6          0.0550    1.4380    1.9030 ca        1 R4M     -0.047800
     11 C7         -0.5160    1.4030    0.5520 ce        1 R4M     -0.032400
     12 C8         -1.8080    1.6920    0.3150 cf        1 R4M     -0.142000
     13 C9         -2.4960    1.6530   -0.9720 cf        1 R4M     -0.106200
     14 C19        -3.5130    0.5710   -1.0750 c3        1 R4M     -0.048900
     15 C10        -2.3090    2.5240   -1.9770 c2        1 R4M     -0.141200
     16 C11        -1.3360    3.6390   -1.9850 c3        1 R4M     -0.057200
     17 C12        -0.6160    3.7430   -3.3230 c3        1 R4M     -0.030200
     18 C13         0.7280    4.3770   -3.1670 c2        1 R4M     -0.164400
     19 C20         0.7240    5.8500   -3.0140 c3        1 R4M     -0.049900
     20 C14         1.8390    3.6270   -3.1510 ce        1 R4M     -0.186200
     21 C15         3.2510    4.0850   -2.8780 c         1 R4M      0.898800
     22 O1          3.6910    5.1540   -3.3870 o         1 R4M     -0.842800
     23 O2          3.9460    3.3290   -2.1310 o         1 R4M     -0.842800
     24 H1         -0.0000    1.2090   -1.5360 hc        1 R4M      0.048700
     25 H2          0.7450   -0.0210   -0.4310 hc        1 R4M      0.048700
     26 H3          1.4020    3.0150   -0.5110 hc        1 R4M      0.086200
     27 H4          2.4190    1.7290   -1.2300 hc        1 R4M      0.086200
     28 H5          2.9400    0.7440    0.8920 hc        1 R4M      0.045700
     29 H6          4.2010    2.5330    1.8550 hc        1 R4M      0.051033
     30 H7          3.9080    3.0590    0.1330 hc        1 R4M      0.051033
     31 H8          2.9280    3.7700    1.4860 hc        1 R4M      0.051033
     32 H9          3.0330    1.8310    3.5380 ha        1 R4M      0.133000
     33 H10         1.5440    1.5620    5.5130 ha        1 R4M      0.117000
     34 H11        -0.9030    1.1800    5.1830 ha        1 R4M      0.116000
     35 H12        -1.8450    1.0890    2.8940 ha        1 R4M      0.123000
     36 H13        -2.4780    1.9750    1.1480 ha        1 R4M      0.115000
     37 H14        -3.0150   -0.4280   -1.0030 hc        1 R4M      0.031700
     38 H15        -4.2510    0.6540   -0.2390 hc        1 R4M      0.031700
     39 H16        -4.0680    0.6210   -2.0430 hc        1 R4M      0.031700
     40 H17        -2.9120    2.4310   -2.8980 ha        1 R4M      0.108000
     41 H18        -0.5810    3.5050   -1.1620 hc        1 R4M      0.056700
     42 H19        -1.8780    4.6020   -1.7770 hc        1 R4M      0.056700
     43 H20        -1.2410    4.3410   -4.0370 hc        1 R4M      0.026200
     44 H21        -0.5030    2.7160   -3.7640 hc        1 R4M      0.026200
     45 H22         0.1350    6.1430   -2.1090 hc        1 R4M      0.035700
     46 H23         0.2480    6.3290   -3.9060 hc        1 R4M      0.035700
     47 H24         1.7710    6.2370   -2.9180 hc        1 R4M      0.035700
     48 H25         1.7620    2.5340   -3.2860 ha        1 R4M      0.095000
@<TRIPOS>BOND
     1    1    2 1   
     2    1   11 1   
     3    1   24 1   
     4    1   25 1   
     5    2    3 1   
     6    2   26 1   
     7    2   27 1   
     8    3    4 1   
     9    3    5 1   
    10    3   28 1   
    11    4   29 1   
    12    4   30 1   
    13    4   31 1   
    14    5    6 ar  
    15    5   10 ar  
    16    6    7 ar  
    17    6   32 1   
    18    7    8 ar  
    19    7   33 1   
    20    8    9 ar  
    21    8   34 1   
    22    9   10 ar  
    23    9   35 1   
    24   10   11 1   
    25   11   12 2   
    26   12   13 1   
    27   12   36 1   
    28   13   14 1   
    29   13   15 2   
    30   14   37 1   
    31   14   38 1   
    32   14   39 1   
    33   15   16 1   
    34   15   40 1   
    35   16   17 1   
    36   16   41 1   
    37   16   42 1   
    38   17   18 1   
    39   17   43 1   
    40   17   44 1   
    41   18   19 1   
    42   18   20 2   
    43   19   45 1   
    44   19   46 1   
    45   19   47 1   
    46   20   21 1   
    47   20   48 1   
    48   21   22 1   
    49   21   23 1   
@<TRIPOS>SUBSTRUCTURE
     1 R4M         1 TEMP              0 ****  ****    0 ROOT
