@<TRIPOS>MOLECULE
R4M
   48    49     1     0     0
SMALL
bcc


@<TRIPOS>ATOM
      1 C2'        -1.2290    1.0200   -1.0740 c3        1 R4M     -0.047200
      2 C1'        -0.6930   -0.3660   -1.3560 c3        1 R4M     -0.090400
      3 C18        -1.7560   -1.4340   -1.1580 c3        1 R4M     -0.017400
      4 C4'        -1.0850   -2.7960   -1.1580 c3        1 R4M     -0.106100
      5 C5         -2.5950   -1.2040    0.0610 ca        1 R4M     -0.034300
      6 C4         -3.4540   -2.2240    0.4900 ca        1 R4M     -0.139000
      7 C3         -4.3010   -2.0430    1.5800 ca        1 R4M     -0.135000
      8 C2         -4.3080   -0.8240    2.2550 ca        1 R4M     -0.154000
      9 C1         -3.4590    0.1990    1.8430 ca        1 R4M     -0.126000
     10 C6         -2.5870    0.0230    0.7580 ca        1 R4M     -0.047800
     11 C7         -1.6890    1.1060    0.3430 ce        1 R4M     -0.032400
     12 C8         -1.2940    2.0710    1.1930 cf        1 R4M     -0.142000
     13 C9         -0.4390    3.2150    0.8890 cf        1 R4M     -0.106200
     14 C19        -1.1490    4.5230    0.9410 c3        1 R4M     -0.048900
     15 C10         0.8790    3.1540    0.6390 c2        1 R4M     -0.141200
     16 C11         1.6880    1.9160    0.5690 c3        1 R4M     -0.057200
     17 C12         2.6580    1.9490   -0.6050 c3        1 R4M     -0.030200
     18 C13         2.9960    0.5680   -1.0660 c2        1 R4M     -0.164400
     19 C20         3.9770   -0.1600   -0.2290 c3        1 R4M     -0.049900
     20 C14         2.4150    0.0520   -2.1570 ce        1 R4M     -0.186200
     21 C15         2.5440   -1.3550   -2.6860 c         1 R4M      0.898800
     22 O1          3.6670   -1.9310   -2.7180 o         1 R4M     -0.842800
     23 O2          1.4700   -1.8950   -3.0960 o         1 R4M     -0.842800
     24 H1         -0.4260    1.7800   -1.2750 hc        1 R4M      0.048700
     25 H2         -2.0930    1.2460   -1.7550 hc        1 R4M      0.048700
     26 H3         -0.2920   -0.4380   -2.4060 hc        1 R4M      0.086200
     27 H4          0.1840   -0.5780   -0.6860 hc        1 R4M      0.086200
     28 H5         -2.4620   -1.3870   -2.0390 hc        1 R4M      0.045700
     29 H6         -0.6370   -3.0140   -0.1600 hc        1 R4M      0.051033
     30 H7         -1.8190   -3.6000   -1.4030 hc        1 R4M      0.051033
     31 H8         -0.2610   -2.8070   -1.9240 hc        1 R4M      0.051033
     32 H9         -3.4550   -3.1860   -0.0460 ha        1 R4M      0.133000
     33 H10        -4.9640   -2.8570    1.9030 ha        1 R4M      0.117000
     34 H11        -4.9810   -0.6680    3.1090 ha        1 R4M      0.116000
     35 H12        -3.4830    1.1620    2.3740 ha        1 R4M      0.123000
     36 H13        -1.6380    2.0630    2.2440 ha        1 R4M      0.115000
     37 H14        -1.6420    4.6560    1.9360 hc        1 R4M      0.031700
     38 H15        -0.4480    5.3770    0.7760 hc        1 R4M      0.031700
     39 H16        -1.9410    4.5590    0.1520 hc        1 R4M      0.031700
     40 H17         1.4430    4.0860    0.4600 ha        1 R4M      0.108000
     41 H18         2.2650    1.8000    1.5260 hc        1 R4M      0.056700
     42 H19         1.0190    1.0170    0.4780 hc        1 R4M      0.056700
     43 H20         2.1990    2.5310   -1.4490 hc        1 R4M      0.026200
     44 H21         3.5920    2.4910   -0.3010 hc        1 R4M      0.026200
     45 H22         3.5900   -0.2680    0.8150 hc        1 R4M      0.035700
     46 H23         4.1790   -1.1770   -0.6580 hc        1 R4M      0.035700
     47 H24         4.9410    0.4050   -0.1850 hc        1 R4M      0.035700
     48 H25         1.7030    0.6640   -2.7390 ha        1 R4M      0.095000
@<TRIPOS>BOND
     1    1    2 1   
     2    1   11 1   
     3    1   24 1   
     4    1   25 1   
     5    2    3 1   
     6    2   26 1   
     7    2   27 1   
     8    3    4 1   
     9    3    5 1   
    10    3   28 1   
    11    4   29 1   
    12    4   30 1   
    13    4   31 1   
    14    5    6 ar  
    15    5   10 ar  
    16    6    7 ar  
    17    6   32 1   
    18    7    8 ar  
    19    7   33 1   
    20    8    9 ar  
    21    8   34 1   
    22    9   10 ar  
    23    9   35 1   
    24   10   11 1   
    25   11   12 2   
    26   12   13 1   
    27   12   36 1   
    28   13   14 1   
    29   13   15 2   
    30   14   37 1   
    31   14   38 1   
    32   14   39 1   
    33   15   16 1   
    34   15   40 1   
    35   16   17 1   
    36   16   41 1   
    37   16   42 1   
    38   17   18 1   
    39   17   43 1   
    40   17   44 1   
    41   18   19 1   
    42   18   20 2   
    43   19   45 1   
    44   19   46 1   
    45   19   47 1   
    46   20   21 1   
    47   20   48 1   
    48   21   22 1   
    49   21   23 1   
@<TRIPOS>SUBSTRUCTURE
     1 R4M         1 TEMP              0 ****  ****    0 ROOT
