@<TRIPOS>MOLECULE
R4M
   48    49     1     0     0
SMALL
bcc


@<TRIPOS>ATOM
      1 C2'         0.2380    0.3290   -0.0780 c3        1 R4M     -0.037200
      2 C1'         1.6960    0.7180   -0.1900 c3        1 R4M     -0.097400
      3 C18         2.3590    0.9410    1.1630 c3        1 R4M     -0.011400
      4 C4'         3.5830    1.8160    0.9550 c3        1 R4M     -0.109100
      5 C5          1.4430    1.4900    2.2140 ca        1 R4M     -0.021300
      6 C4          1.9650    1.7710    3.4840 ca        1 R4M     -0.136000
      7 C3          1.1530    2.2480    4.5080 ca        1 R4M     -0.137000
      8 C2         -0.2080    2.4440    4.2810 ca        1 R4M     -0.153000
      9 C1         -0.7460    2.1600    3.0300 ca        1 R4M     -0.126000
     10 C6          0.0660    1.6860    1.9890 ca        1 R4M     -0.041800
     11 C7         -0.5120    1.3700    0.6810 ce        1 R4M     -0.031400
     12 C8         -1.5960    2.0040    0.2000 cf        1 R4M     -0.133000
     13 C9         -2.2140    1.7470   -1.0990 cf        1 R4M     -0.109200
     14 C19        -3.0660    0.5320   -1.1720 c3        1 R4M     -0.046900
     15 C10        -2.0540    2.5630   -2.1530 c2        1 R4M     -0.137200
     16 C11        -1.2280    3.7930   -2.1600 c3        1 R4M     -0.049200
     17 C12        -0.1510    3.7280   -3.2320 c3        1 R4M     -0.037200
     18 C13         0.6330    4.9930   -3.3050 c2        1 R4M     -0.165400
     19 C20        -0.0200    6.0970   -4.0540 c3        1 R4M     -0.043900
     20 C14         1.8470    5.1370   -2.7590 ce        1 R4M     -0.174200
     21 C15         2.6030    4.1100   -1.9560 c         1 R4M      0.894800
     22 O1          3.1760    4.5080   -0.8990 o         1 R4M     -0.843800
     23 O2          2.6670    2.9090   -2.3580 o         1 R4M     -0.843800
     24 H1          0.1360   -0.6550    0.4550 hc        1 R4M      0.037200
     25 H2         -0.1920    0.2040   -1.1070 hc        1 R4M      0.037200
     26 H3          1.7930    1.6540   -0.8190 hc        1 R4M      0.085200
     27 H4          2.2530   -0.0890   -0.7320 hc        1 R4M      0.085200
     28 H5          2.7010   -0.0650    1.5560 hc        1 R4M      0.020700
     29 H6          4.3100    1.2790    0.2990 hc        1 R4M      0.055367
     30 H7          4.0840    2.0510    1.9230 hc        1 R4M      0.055367
     31 H8          3.3090    2.7770    0.4360 hc        1 R4M      0.055367
     32 H9          3.0380    1.6150    3.6730 ha        1 R4M      0.129000
     33 H10         1.5850    2.4720    5.4940 ha        1 R4M      0.114000
     34 H11        -0.8550    2.8220    5.0850 ha        1 R4M      0.114000
     35 H12        -1.8220    2.3060    2.8550 ha        1 R4M      0.122000
     36 H13        -2.0810    2.8070    0.7810 ha        1 R4M      0.120000
     37 H14        -2.4600   -0.3730   -0.9150 hc        1 R4M      0.030700
     38 H15        -3.4950    0.3930   -2.1940 hc        1 R4M      0.030700
     39 H16        -3.9080    0.6080   -0.4410 hc        1 R4M      0.030700
     40 H17        -2.5500    2.3310   -3.1110 ha        1 R4M      0.104000
     41 H18        -0.7380    3.9540   -1.1620 hc        1 R4M      0.047700
     42 H19        -1.8990    4.6750   -2.3510 hc        1 R4M      0.047700
     43 H20         0.5490    2.8730   -3.0030 hc        1 R4M      0.058200
     44 H21        -0.6290    3.5260   -4.2270 hc        1 R4M      0.058200
     45 H22        -1.0180    6.3350   -3.6080 hc        1 R4M      0.017033
     46 H23         0.6000    7.0270   -4.0400 hc        1 R4M      0.017033
     47 H24        -0.1810    5.8000   -5.1210 hc        1 R4M      0.017033
     48 H25         2.3840    6.0960   -2.8490 ha        1 R4M      0.099000
@<TRIPOS>BOND
     1    1    2 1   
     2    1   11 1   
     3    1   24 1   
     4    1   25 1   
     5    2    3 1   
     6    2   26 1   
     7    2   27 1   
     8    3    4 1   
     9    3    5 1   
    10    3   28 1   
    11    4   29 1   
    12    4   30 1   
    13    4   31 1   
    14    5    6 ar  
    15    5   10 ar  
    16    6    7 ar  
    17    6   32 1   
    18    7    8 ar  
    19    7   33 1   
    20    8    9 ar  
    21    8   34 1   
    22    9   10 ar  
    23    9   35 1   
    24   10   11 1   
    25   11   12 2   
    26   12   13 1   
    27   12   36 1   
    28   13   14 1   
    29   13   15 2   
    30   14   37 1   
    31   14   38 1   
    32   14   39 1   
    33   15   16 1   
    34   15   40 1   
    35   16   17 1   
    36   16   41 1   
    37   16   42 1   
    38   17   18 1   
    39   17   43 1   
    40   17   44 1   
    41   18   19 1   
    42   18   20 2   
    43   19   45 1   
    44   19   46 1   
    45   19   47 1   
    46   20   21 1   
    47   20   48 1   
    48   21   22 1   
    49   21   23 1   
@<TRIPOS>SUBSTRUCTURE
     1 R4M         1 TEMP              0 ****  ****    0 ROOT
