@<TRIPOS>MOLECULE
R4M
   48    41     1     0     0
SMALL
bcc


@<TRIPOS>ATOM
      1 C2'         1.6390   -1.8340   -0.4950 c3        1 R4M     -0.118000
      2 C1'         3.1270   -1.8080   -0.5150 c3        1 R4M     -0.149000
      3 C18         3.8050   -1.8180    0.7660 c3        1 R4M     -0.066000
      4 C4'         5.2660   -1.2550    0.5450 c3        1 R4M     -0.205000
      5 C5          3.1400   -0.9890    1.9370 c1        1 R4M     -0.060000
      6 C4          3.7680   -0.8220    3.1650 c1        1 R4M     -0.135000
      7 C3          3.1390   -0.0760    4.1850 c1        1 R4M     -0.140500
      8 C2          1.8660    0.5040    3.9600 c1        1 R4M     -0.140500
      9 C1          1.2210    0.3370    2.7090 c1        1 R4M     -0.115500
     10 C6          1.8370   -0.3960    1.7030 c1        1 R4M     -0.089500
     11 C7          1.0690   -0.7730    0.3510 c1        1 R4M     -0.112000
     12 C8         -0.2160   -0.3590    0.1570 c1        1 R4M     -0.062000
     13 C9         -1.0740   -1.0010   -0.9510 c1        1 R4M     -0.089500
     14 C19        -1.0790   -2.5390   -1.1340 c2        1 R4M     -0.161000
     15 C10        -1.8240   -0.2190   -1.7640 c1        1 R4M     -0.115500
     16 C11        -1.8180    1.3070   -1.5790 c2        1 R4M     -0.126000
     17 C12        -2.9940    1.9230   -2.3530 c3        1 R4M     -0.115000
     18 C13        -3.9090    2.6270   -1.3940 c2        1 R4M     -0.162000
     19 C20        -3.4140    3.8510   -0.6260 c3        1 R4M     -0.165000
     20 C14        -5.1790    2.1740   -1.2070 c1        1 R4M     -0.159000
     21 C15        -5.6780    0.9370   -1.9820 c1        1 R4M      0.346000
     22 O1         -6.2420    1.0780   -3.1090 o         1 R4M     -0.575500
     23 O2         -5.5260   -0.2220   -1.4900 o         1 R4M     -0.575500
     24 H1          1.1410   -1.8290   -1.3190 hc        1 R4M      0.093500
     25 H2          1.4210   -2.7070   -0.1720 hc        1 R4M      0.093500
     26 H3          3.3950   -1.0070   -0.9750 hc        1 R4M      0.083000
     27 H4          3.4260   -2.6060   -1.0100 hc        1 R4M      0.083000
     28 H5          3.8790   -2.7520    1.0620 hc        1 R4M      0.087000
     29 H6          5.6440   -1.6340   -0.2900 hc        1 R4M      0.071667
     30 H7          5.2330   -0.2710    0.4760 hc        1 R4M      0.071667
     31 H8          5.8340   -1.5100    1.3060 hc        1 R4M      0.071667
     32 H9          4.6560   -1.2180    3.3210 ha        1 R4M      0.122000
     33 H10         3.5940    0.0450    5.0700 ha        1 R4M      0.121500
     34 H11         1.4300    1.0220    4.6730 ha        1 R4M      0.121500
     35 H12         0.3230    0.7490    2.5500 ha        1 R4M      0.174000
     36 H13        -0.5990    0.3590    0.7310 ha        1 R4M      0.116000
     37 H14        -2.0080   -2.8570   -1.2040 ha        1 R4M      0.072667
     38 H15        -0.6440   -2.9640   -0.3580 ha        1 R4M      0.072667
     39 H16        -0.5880   -2.7730   -1.9550 ha        1 R4M      0.072667
     40 H17        -2.3690   -0.6260   -2.4700 ha        1 R4M      0.174000
     41 H18        -1.9110    1.5210   -0.6120 ha        1 R4M      0.070000
     42 H19        -0.9610    1.6820   -1.9220 ha        1 R4M      0.070000
     43 H20        -2.6540    2.5600   -3.0060 hc        1 R4M      0.091000
     44 H21        -3.4860    1.2170   -2.8130 hc        1 R4M      0.091000
     45 H22        -2.4620    4.0190   -0.8500 hc        1 R4M      0.056333
     46 H23        -3.9520    4.6350   -0.8760 hc        1 R4M      0.056333
     47 H24        -3.5000    3.6870    0.3510 hc        1 R4M      0.056333
     48 H25        -5.7680    2.6280   -0.5890 ha        1 R4M      0.099000
@<TRIPOS>BOND
     1    1    2 1   
     2    1   11 1   
     3    1   24 1   
     4    1   25 1   
     5    2    3 1   
     6    2   26 1   
     7    2   27 1   
     8    3    4 1   
     9    3    5 1   
    10    3   28 1   
    11    4   29 1   
    12    4   30 1   
    13    4   31 1   
    14    5    6 1   
    15    6   32 1   
    16    7    8 1   
    17    7   33 1   
    18    8   34 1   
    19    9   10 1   
    20    9   35 1   
    21   11   12 1   
    22   12   36 1   
    23   13   15 1   
    24   14   37 1   
    25   14   38 1   
    26   14   39 1   
    27   15   40 1   
    28   16   17 1   
    29   16   41 1   
    30   16   42 1   
    31   17   18 1   
    32   17   43 1   
    33   17   44 1   
    34   18   19 1   
    35   18   20 1   
    36   19   45 1   
    37   19   46 1   
    38   19   47 1   
    39   20   48 1   
    40   21   22 1   
    41   21   23 1   
@<TRIPOS>SUBSTRUCTURE
     1 R4M         1 TEMP              0 ****  ****    0 ROOT
