@<TRIPOS>MOLECULE
R4N
   55    54     1     0     0
SMALL
bcc


@<TRIPOS>ATOM
      1 C1          2.2580    3.7240    2.4360 c1        1 R4N     -0.133000
      2 C2          3.8460    0.0120    2.3340 c1        1 R4N     -0.108000
      3 C3          7.9710   -1.7820   12.9460 c2        1 R4N     -0.235000
      4 C4          5.5760   -2.2180    4.5740 c3        1 R4N     -0.036000
      5 C5          8.3550   -1.4160   11.6930 c2        1 R4N     -0.010000
      6 C6          2.0760    2.9390    3.3240 c1        1 R4N     -0.135000
      7 C7          3.1750    0.3130    3.2800 c1        1 R4N     -0.234000
      8 C8          6.9540   -2.5430    4.7560 c1        1 R4N     -0.142000
      9 C9          6.6640   -1.5280   13.4520 c1        1 R4N     -0.018000
     10 C10         5.9410   -1.7080    6.9610 c1        1 R4N     -0.280000
     11 C11         6.1480   -0.5320   11.1800 c2        1 R4N     -0.105000
     12 C12         4.9460   -1.8490    5.9480 c3        1 R4N      0.053000
     13 C13         7.4210   -0.7690   10.7930 c2        1 R4N     -0.153000
     14 C14         6.9040   -1.5830    7.6750 c1        1 R4N      0.069000
     15 C15         1.8640    2.0260    4.3590 c2        1 R4N     -0.170000
     16 C16         2.3760    0.7080    4.3990 c2        1 R4N      0.387000
     17 C17         8.0990   -2.7360    5.0900 c1        1 R4N     -0.382000
     18 C18         5.6720   -0.9660   12.5200 c3        1 R4N     -0.122000
     19 C19         9.1560   -2.1740    8.3070 c2        1 R4N      0.331000
     20 C20         3.9510   -2.9380    6.3350 c2        1 R4N      0.262000
     21 C21         9.1880   -3.3450    7.3580 c3        1 R4N     -0.370000
     22 C22         0.7390    1.9840    6.4470 c2        1 R4N     -0.014000
     23 C23         1.5120   -4.1760    3.9420 c2        1 R4N     -0.124000
     24 C25         2.0800   -4.0520    5.1450 c2        1 R4N     -0.208000
     25 N26         7.9770   -1.3970    8.4520 n         1 R4N     -0.216000
     26 N27         2.5860   -2.7940    5.6740 ny        1 R4N     -0.078000
     27 O28        10.1330   -1.8830    9.0100 o         1 R4N     -0.296000
     28 O29         4.0880   -3.8810    7.0920 o         1 R4N     -0.163000
     29 O30         1.0710    2.5780    5.3490 os        1 R4N      0.092000
     30 O31         2.1660   -0.1100    5.3490 o         1 R4N     -0.530000
     31 S32         9.5490   -2.9760    5.6630 ss        1 R4N      0.536000
     32 Cl33        4.8090    0.3540   13.3030 cl        1 R4N     -0.035000
     33 H1         -0.0930   -4.7690    1.0050 ha        1 R4N      0.000000
     34 H2          4.4380   -0.2400    1.4860 ha        1 R4N      0.244000
     35 H6          2.4260    4.4120    1.6450 ha        1 R4N      0.241000
     36 H7          0.2420   -4.5850    1.5650 ha        1 R4N      0.000000
     37 H9          4.9070   -1.7930   12.3810 h1        1 R4N      0.175000
     38 H4          5.0230   -3.0780    4.1050 hc        1 R4N      0.114500
     39 H8          5.4690   -1.3310    3.8860 hc        1 R4N      0.114500
     40 H10         4.3830   -0.8680    5.8400 hc        1 R4N      0.165000
     41 H11         5.4240   -0.0220   10.5270 ha        1 R4N      0.137000
     42 H211        8.2490   -3.9440    7.4580 h1        1 R4N      0.161500
     43 H212       10.0490   -3.9960    7.6810 h1        1 R4N      0.161500
     44 H27         2.6390   -2.0650    4.9370 hn        1 R4N      0.270000
     45 H221        1.1410   -5.1600    3.6070 ha        1 R4N      0.165500
     46 H222        0.0950    2.6210    7.0860 h4        1 R4N      0.191000
     47 H23         1.0470    0.9700    6.7310 h4        1 R4N      0.191000
     48 H251        1.3690   -3.3550    3.2230 ha        1 R4N      0.165500
     49 H252        2.2130   -4.8950    5.8540 hx        1 R4N      0.206000
     50 C24         7.9330   -0.3300    9.4510 c3        1 R4N      0.013000
     51 H3          8.6850   -2.2620   13.6370 ha        1 R4N      0.167000
     52 H241        8.9850    0.0660    9.5700 h1        1 R4N      0.127500
     53 H242        7.2830    0.5010    9.0500 h1        1 R4N      0.127500
     54 H272        1.9260   -2.4420    6.3820 hn        1 R4N      0.270000
     55 H5          9.3820   -1.5820   11.3180 ha        1 R4N      0.161000
@<TRIPOS>BOND
     1    1    6 1   
     2    1   35 1   
     3    2    7 1   
     4    2   34 1   
     5    3    5 1   
     6    3    9 1   
     7    3   51 1   
     8    4    8 1   
     9    4   12 1   
    10    4   38 1   
    11    4   39 1   
    12    5   13 1   
    13    5   55 1   
    14    6   15 1   
    15    7   16 1   
    16    8   17 1   
    17    9   18 1   
    18   10   12 1   
    19   10   14 1   
    20   11   13 1   
    21   11   18 1   
    22   11   41 1   
    23   12   20 1   
    24   12   40 1   
    25   13   50 1   
    26   14   25 1   
    27   15   16 1   
    28   15   29 1   
    29   16   30 1   
    30   17   31 1   
    31   18   32 1   
    32   18   37 1   
    33   19   21 1   
    34   19   25 1   
    35   19   27 1   
    36   20   26 1   
    37   20   28 1   
    38   21   31 1   
    39   21   42 1   
    40   21   43 1   
    41   22   29 1   
    42   22   46 1   
    43   22   47 1   
    44   23   24 1   
    45   23   45 1   
    46   23   48 1   
    47   24   26 1   
    48   24   49 1   
    49   25   50 1   
    50   26   44 1   
    51   26   54 1   
    52   33   36 1   
    53   50   52 1   
    54   50   53 1   
@<TRIPOS>SUBSTRUCTURE
     1 R4N         1 TEMP              0 ****  ****    0 ROOT
