@<TRIPOS>MOLECULE
R4N
   55    55     1     0     0
SMALL
bcc


@<TRIPOS>ATOM
      1 C1          2.5180    1.8400    0.4770 c1        1 R4N      0.214000
      2 C2          1.6850   -4.3300    4.3530 c2        1 R4N     -0.120000
      3 C3          7.7520   -3.4960   12.0500 c2        1 R4N     -0.233000
      4 C4          8.0010   -3.2590    4.5100 c2        1 R4N     -0.127000
      5 C5          7.5810   -2.3410   11.3520 c2        1 R4N     -0.010000
      6 C6          2.2860    2.6000    1.5310 c2        1 R4N     -0.407000
      7 C7          2.6280   -3.4000    4.5160 c2        1 R4N     -0.196500
      8 C8          8.0980   -2.3660    5.4420 c1        1 R4N     -0.124000
      9 C9          6.9630   -4.6570   11.8110 c1        1 R4N     -0.020000
     10 C10         5.9040   -1.1010    6.7530 c1        1 R4N     -0.141000
     11 C11         5.8780   -3.3450    9.9360 c2        1 R4N     -0.105000
     12 C12         4.7130   -1.1440    6.2240 c2        1 R4N     -0.158000
     13 C13         6.6100   -2.2600   10.2800 c2        1 R4N     -0.156000
     14 C14         7.1350   -1.0640    7.2580 c2        1 R4N      0.214000
     15 C15         2.2290    2.2030    2.9150 c2        1 R4N     -0.243000
     16 C16         2.3970    0.8750    3.3550 c2        1 R4N      0.216000
     17 C17         8.2640   -1.4770    6.3940 c2        1 R4N     -0.236000
     18 C18         6.0670   -4.6380   10.6440 c3        1 R4N     -0.119000
     19 C19         8.5770    0.0450    8.9090 c2        1 R4N      0.326000
     20 C20         3.8740   -2.3440    6.3440 c2        1 R4N      0.309000
     21 C21         9.5060    0.4400    7.7960 c3        1 R4N     -0.355000
     22 C22         1.8930    3.2080    5.0210 c2        1 R4N     -0.038000
     23 C23         0.5120   -1.4030    6.4450 c2        1 R4N     -0.120000
     24 C25         1.4320   -2.3700    6.3840 c2        1 R4N     -0.196500
     25 N26         7.3840   -0.6250    8.5670 n         1 R4N     -0.293000
     26 N27         2.5940   -2.3140    5.4950 n4        1 R4N     -0.012000
     27 O28         8.8020    0.3250   10.0950 o         1 R4N     -0.298000
     28 O29         4.0480   -3.3410    7.0300 o         1 R4N     -0.198000
     29 O30         1.9880    3.2830    3.7320 os        1 R4N      0.084000
     30 O31         2.3560    0.4820    4.5540 o         1 R4N     -0.507000
     31 S32         9.8200   -0.8470    6.6540 ss        1 R4N      0.340000
     32 CL33        4.4960   -5.3000   11.0950 cl        1 R4N     -0.043000
     33 H1          0.7610   -4.4010    4.9470 ha        1 R4N      0.163000
     34 H2          1.8020   -5.1010    3.5730 ha        1 R4N      0.163000
     35 H6          2.1130    3.6840    1.3290 ha        1 R4N      0.214000
     36 H7          2.5810    0.1400    2.5360 h4        1 R4N      0.110000
     37 H9          6.5160   -5.3870    9.9180 h1        1 R4N      0.180000
     38 H4          8.1890   -4.3290    4.7000 ha        1 R4N      0.155500
     39 H8          7.7420   -3.0000    3.4700 ha        1 R4N      0.155500
     40 H10         4.2880   -0.2740    5.6820 ha        1 R4N      0.187000
     41 H11         5.1360   -3.3200    9.1210 ha        1 R4N      0.142000
     42 H211       10.5030    0.7170    8.2390 h1        1 R4N      0.164500
     43 H212        9.0950    1.3550    7.2970 h1        1 R4N      0.164500
     44 H27         3.5520   -3.3630    3.9060 hx        1 R4N      0.189500
     45 H221       -0.3360   -1.4900    7.1440 ha        1 R4N      0.163000
     46 H222        1.6960    4.1930    5.4860 h4        1 R4N      0.190000
     47 H23         1.9940    2.2780    5.5970 h4        1 R4N      0.190000
     48 H251        0.5370   -0.4880    5.8300 ha        1 R4N      0.163000
     49 H252        1.4200   -3.2850    7.0080 hx        1 R4N      0.189500
     50 C24         6.4160   -0.9290    9.6110 c3        1 R4N      0.016000
     51 H3          8.4890   -3.5570   12.8680 ha        1 R4N      0.167000
     52 H241        5.3830   -0.8810    9.1600 h1        1 R4N      0.116000
     53 H242        6.4970   -0.1180   10.3950 h1        1 R4N      0.116000
     54 H272        2.5730   -1.4180    4.9610 hn        1 R4N      0.287000
     55 H5          8.1610   -1.4260   11.5750 ha        1 R4N      0.164000
@<TRIPOS>BOND
     1    1    6 1   
     2    2    7 1   
     3    2   33 1   
     4    2   34 1   
     5    3    5 1   
     6    3    9 1   
     7    3   51 1   
     8    4    8 1   
     9    4   38 1   
    10    4   39 1   
    11    5   13 1   
    12    5   55 1   
    13    6   15 1   
    14    6   35 1   
    15    7   26 1   
    16    7   44 1   
    17    8   17 1   
    18    9   18 1   
    19   10   12 1   
    20   10   14 1   
    21   11   13 1   
    22   11   18 1   
    23   11   41 1   
    24   12   20 1   
    25   12   40 1   
    26   13   50 1   
    27   14   17 1   
    28   14   25 1   
    29   15   16 1   
    30   15   29 1   
    31   16   30 1   
    32   16   36 1   
    33   17   31 1   
    34   18   32 1   
    35   18   37 1   
    36   19   21 1   
    37   19   25 1   
    38   19   27 1   
    39   20   26 1   
    40   20   28 1   
    41   21   31 1   
    42   21   42 1   
    43   21   43 1   
    44   22   29 1   
    45   22   46 1   
    46   22   47 1   
    47   23   24 1   
    48   23   45 1   
    49   23   48 1   
    50   24   26 1   
    51   24   49 1   
    52   25   50 1   
    53   26   54 1   
    54   50   52 1   
    55   50   53 1   
@<TRIPOS>SUBSTRUCTURE
     1 R4N         1 TEMP              0 ****  ****    0 ROOT
