@<TRIPOS>MOLECULE
R51
   23    22     1     0     0
SMALL
bcc


@<TRIPOS>ATOM
      1 C2          0.2190    1.0110    0.3950 c         1 R51      0.594900
      2 C5          2.5080    1.2640   -0.5870 c3        1 R51      0.118100
      3 O13         1.8090    1.9210   -1.6180 oh        1 R51     -0.691800
      4 C6          3.7400    0.5180   -1.1350 c3        1 R51      0.079100
      5 O14         4.5480    0.1010   -0.0390 oh        1 R51     -0.671800
      6 C7          4.5740    1.3970   -2.1000 c3        1 R51      0.198400
      7 O8          5.3110    2.3140   -1.3940 os        1 R51     -0.574200
      8 P9          4.8610    3.9680   -1.7160 p5        1 R51      1.327900
      9 O12         3.4770    3.9420   -1.0970 o         1 R51     -0.920833
     10 O11         5.9110    4.7470   -0.9870 o         1 R51     -0.920833
     11 O10         4.8530    4.0010   -3.2150 o         1 R51     -0.920833
     12 O4          2.0010   -0.2690    1.2820 oh        1 R51     -0.632800
     13 C4          1.5100    0.2850    0.0680 c3        1 R51      0.029100
     14 O1         -0.8340    0.4270    0.6710 o         1 R51     -0.597100
     15 H4          1.2850   -0.5670   -0.6330 h1        1 R51      0.041700
     16 H5          2.8590    2.0110    0.1840 h1        1 R51      0.092700
     17 H13         2.2890    2.7900   -1.7510 ho        1 R51      0.510000
     18 H6          3.4230   -0.4300   -1.6470 h1        1 R51      0.017700
     19 H14         5.1530    0.8400    0.1420 ho        1 R51      0.443000
     20 H7C1        3.8990    1.8920   -2.8520 h1        1 R51      0.008200
     21 H7C2        5.2700    0.6900   -2.6440 h1        1 R51      0.008200
     22 HA          2.9660   -0.1870    1.2620 ho        1 R51      0.437000
     23 H2          0.2800    2.1210    0.3380 h4        1 R51      0.026200
@<TRIPOS>BOND
     1    1   13 1   
     2    1   14 2   
     3    1   23 1   
     4    2    3 1   
     5    2    4 1   
     6    2   13 1   
     7    2   16 1   
     8    3   17 1   
     9    4    5 1   
    10    4    6 1   
    11    4   18 1   
    12    5   19 1   
    13    6    7 1   
    14    6   20 1   
    15    6   21 1   
    16    7    8 1   
    17    8    9 1   
    18    8   10 1   
    19    8   11 1   
    20   12   13 1   
    21   12   22 1   
    22   13   15 1   
@<TRIPOS>SUBSTRUCTURE
     1 R51         1 TEMP              0 ****  ****    0 ROOT
