@<TRIPOS>MOLECULE
R51
   23    22     1     0     0
SMALL
bcc


@<TRIPOS>ATOM
      1 C2          0.2190    1.0750    0.4070 c         1 R51      0.595900
      2 C5          2.5080    1.2810   -0.5870 c3        1 R51      0.118100
      3 O13         1.8190    1.9660   -1.6060 oh        1 R51     -0.691800
      4 C6          3.7170    0.5110   -1.1510 c3        1 R51      0.079100
      5 O14         4.5210    0.0620   -0.0640 oh        1 R51     -0.671800
      6 C7          4.5670    1.3780   -2.1120 c3        1 R51      0.198400
      7 O8          5.3300    2.2690   -1.4020 os        1 R51     -0.574200
      8 P9          4.9210    3.9370   -1.7030 p5        1 R51      1.327900
      9 O12         3.5400    3.9390   -1.0760 o         1 R51     -0.920833
     10 O11         5.9940    4.6820   -0.9730 o         1 R51     -0.920833
     11 O10         4.9040    3.9860   -3.2030 o         1 R51     -0.920833
     12 O4          1.9740   -0.2560    1.2700 oh        1 R51     -0.632800
     13 C4          1.4900    0.3210    0.0650 c3        1 R51      0.029100
     14 O1         -0.8470    0.5150    0.6790 o         1 R51     -0.597100
     15 H4          1.2400   -0.5190   -0.6430 h1        1 R51      0.041700
     16 H5          2.8820    2.0120    0.1890 h1        1 R51      0.092700
     17 H13         2.3200    2.8240   -1.7340 ho        1 R51      0.510000
     18 H6          3.3730   -0.4240   -1.6710 h1        1 R51      0.017700
     19 H14         5.1460    0.7840    0.1190 ho        1 R51      0.443000
     20 H7C1        3.9000    1.8980   -2.8540 h1        1 R51      0.007700
     21 H7C2        5.2420    0.6600   -2.6680 h1        1 R51      0.007700
     22 HA          2.9420   -0.1990    1.2450 ho        1 R51      0.437000
     23 H2          0.3090    2.1840    0.3660 h4        1 R51      0.025200
@<TRIPOS>BOND
     1    1   13 1   
     2    1   14 2   
     3    1   23 1   
     4    2    3 1   
     5    2    4 1   
     6    2   13 1   
     7    2   16 1   
     8    3   17 1   
     9    4    5 1   
    10    4    6 1   
    11    4   18 1   
    12    5   19 1   
    13    6    7 1   
    14    6   20 1   
    15    6   21 1   
    16    7    8 1   
    17    8    9 1   
    18    8   10 1   
    19    8   11 1   
    20   12   13 1   
    21   12   22 1   
    22   13   15 1   
@<TRIPOS>SUBSTRUCTURE
     1 R51         1 TEMP              0 ****  ****    0 ROOT
