@<TRIPOS>MOLECULE
R51
   23    21     1     0     0
SMALL
bcc


@<TRIPOS>ATOM
      1 C2         -2.9660   -1.3060    1.2430 c1        1 R51      0.200000
      2 C5         -0.9500   -0.0720    0.5310 c3        1 R51      0.205000
      3 O13        -1.8890    0.3250   -0.4410 oh        1 R51     -0.720000
      4 C6          0.3690   -0.3800   -0.1390 c3        1 R51     -0.055000
      5 O14         1.2760   -0.8760    0.8160 oh        1 R51     -0.382000
      6 C7          0.9270    0.8810   -0.7580 c3        1 R51      0.015000
      7 O8          2.1710    0.6000   -1.3560 os        1 R51     -0.771000
      8 P9          2.9270    1.7680   -2.1070 p5        1 R51      1.581500
      9 O12         2.0150    2.3680   -3.1500 o         1 R51     -0.733500
     10 O11         4.1640    1.2180   -2.7760 o         1 R51     -0.733500
     11 O10         3.3230    2.8330   -1.1120 o         1 R51     -0.733500
     12 O4         -0.9850   -1.3060    2.5710 oh        1 R51     -0.360000
     13 C4         -1.4540   -1.3060    1.2430 c2        1 R51     -0.115000
     14 O1         -3.5740   -0.6470    2.0660 o         1 R51     -0.395000
     15 H4         -1.1290   -2.1030    0.7830 h4        1 R51      0.073000
     16 H5         -0.8260    0.6490    1.1770 h1        1 R51     -0.043000
     17 H13        -2.1990    1.1330   -0.2400 ho        1 R51      0.224000
     18 H6          0.2310   -1.0510   -0.8360 h1        1 R51      0.055000
     19 H14         1.7620   -1.5250    0.4540 ho        1 R51      0.206000
     20 H7C1        0.3080    1.2130   -1.4360 h1        1 R51      0.075000
     21 H7C2        1.0440    1.5590   -0.0650 h1        1 R51      0.075000
     22 HA         -1.0940   -2.1130    2.9230 ho        1 R51      0.215000
     23 H2         -3.4540   -1.8630    0.6070 ha        1 R51      0.116000
@<TRIPOS>BOND
     1    1   14 1   
     2    1   23 1   
     3    2    3 1   
     4    2    4 1   
     5    2   13 1   
     6    2   16 1   
     7    3   17 1   
     8    4    5 1   
     9    4    6 1   
    10    4   18 1   
    11    5   19 1   
    12    6    7 1   
    13    6   20 1   
    14    6   21 1   
    15    7    8 1   
    16    8    9 1   
    17    8   10 1   
    18    8   11 1   
    19   12   13 1   
    20   12   22 1   
    21   13   15 1   
@<TRIPOS>SUBSTRUCTURE
     1 R51         1 TEMP              0 ****  ****    0 ROOT
