@<TRIPOS>MOLECULE
R51
   23    22     1     0     0
SMALL
bcc


@<TRIPOS>ATOM
      1 C2         -3.1170   -0.2210   -1.4390 c         1 R51      0.548900
      2 C5         -1.6060   -0.7240    0.4620 c3        1 R51      0.054100
      3 O13        -2.3810   -1.8190    0.9520 oh        1 R51     -0.630800
      4 C6         -0.7010   -0.1880    1.5870 c3        1 R51      0.095100
      5 O14        -1.1460    1.0470    2.1200 oh        1 R51     -0.644800
      6 C7          0.7630   -0.0790    1.0900 c3        1 R51      0.174400
      7 O8          0.8800    0.7450    0.0010 os        1 R51     -0.580200
      8 P9          1.1670   -0.0100   -1.5370 p5        1 R51      1.323900
      9 O12        -0.2350    0.1870   -2.0830 o         1 R51     -0.921167
     10 O11         2.2700    0.8010   -2.1380 o         1 R51     -0.921167
     11 O10         1.4600   -1.4400   -1.1750 o         1 R51     -0.921167
     12 O4         -1.9380    1.5410   -0.3800 oh        1 R51     -0.662800
     13 C4         -2.5830    0.3150   -0.1190 c3        1 R51      0.080100
     14 O1         -4.3110   -0.4970   -1.6180 o         1 R51     -0.634100
     15 H4         -3.4040    0.5420    0.6120 h1        1 R51      0.050700
     16 H5         -0.9260   -1.0560   -0.3930 h1        1 R51      0.134700
     17 H13        -1.8120   -2.5900    0.8660 ho        1 R51      0.388000
     18 H6         -0.7490   -0.8980    2.4600 h1        1 R51      0.021700
     19 H14        -0.9380    1.7160    1.4500 ho        1 R51      0.433000
     20 H7C1        1.3590    0.3570    1.9480 h1        1 R51      0.009700
     21 H7C2        1.1430   -1.1160    0.8630 h1        1 R51      0.009700
     22 HA         -1.1020    1.3330   -0.8820 ho        1 R51      0.499000
     23 H2         -2.3300   -0.3130   -2.2300 h4        1 R51      0.092200
@<TRIPOS>BOND
     1    1   13 1   
     2    1   14 2   
     3    1   23 1   
     4    2    3 1   
     5    2    4 1   
     6    2   13 1   
     7    2   16 1   
     8    3   17 1   
     9    4    5 1   
    10    4    6 1   
    11    4   18 1   
    12    5   19 1   
    13    6    7 1   
    14    6   20 1   
    15    6   21 1   
    16    7    8 1   
    17    8    9 1   
    18    8   10 1   
    19    8   11 1   
    20   12   13 1   
    21   12   22 1   
    22   13   15 1   
@<TRIPOS>SUBSTRUCTURE
     1 R51         1 TEMP              0 ****  ****    0 ROOT
