@<TRIPOS>MOLECULE
R52
   23    22     1     0     0
SMALL
bcc


@<TRIPOS>ATOM
      1 O2          0.2930    1.3000    0.1910 o         1 R52     -0.634100
      2 C1          1.1060    1.6210    1.0680 c         1 R52      0.548900
      3 O3          1.8690    0.6500    3.0920 oh        1 R52     -0.662800
      4 C3          3.5070    1.0630    1.3330 c3        1 R52      0.054100
      5 O4          3.7160    0.7500   -0.0440 oh        1 R52     -0.630800
      6 C2          4.6080    0.4040    2.1850 c3        1 R52      0.095100
      7 O5          4.1500   -0.7220    2.9130 oh        1 R52     -0.644800
      8 C5          5.2510    1.4490    3.1320 c3        1 R52      0.174400
      9 C4          2.0750    0.6310    1.6970 c3        1 R52      0.080100
     10 O6          4.3310    2.0240    3.9700 os        1 R52     -0.580200
     11 P1          3.8700    3.6650    3.6350 p5        1 R52      1.323900
     12 O9          4.8570    4.0980    2.5860 o         1 R52     -0.921167
     13 O7          2.5030    3.3400    3.0640 o         1 R52     -0.921167
     14 O8          3.9270    4.3350    4.9700 o         1 R52     -0.921167
     15 H4          1.8820   -0.4240    1.3660 h1        1 R52      0.050700
     16 H3          2.2070    1.5270    3.4280 ho        1 R52      0.499000
     17 HA          3.5700    2.1900    1.5090 h1        1 R52      0.134700
     18 HB          4.3530    1.4000   -0.3580 ho        1 R52      0.388000
     19 H2          5.3970   -0.0150    1.4970 h1        1 R52      0.021700
     20 H5          3.6130   -0.3690    3.6390 ho        1 R52      0.433000
     21 H5C1        5.7760    2.2250    2.5050 h1        1 R52      0.009700
     22 H5C2        6.0160    0.8900    3.7510 h1        1 R52      0.009700
     23 HC          1.1860    2.6520    1.4970 h4        1 R52      0.092200
@<TRIPOS>BOND
     1    1    2 2   
     2    2    9 1   
     3    2   23 1   
     4    3    9 1   
     5    3   16 1   
     6    4    5 1   
     7    4    6 1   
     8    4    9 1   
     9    4   17 1   
    10    5   18 1   
    11    6    7 1   
    12    6    8 1   
    13    6   19 1   
    14    7   20 1   
    15    8   10 1   
    16    8   21 1   
    17    8   22 1   
    18    9   15 1   
    19   10   11 1   
    20   11   12 1   
    21   11   13 1   
    22   11   14 1   
@<TRIPOS>SUBSTRUCTURE
     1 R52         1 TEMP              0 ****  ****    0 ROOT
