@<TRIPOS>MOLECULE
R52
   23    22     1     0     0
SMALL
bcc


@<TRIPOS>ATOM
      1 O2          0.5590    0.3630   -0.4370 o         1 R52     -0.610100
      2 C1          1.0870    1.1270    0.3780 c         1 R52      0.593900
      3 O3          1.1170    1.1150    2.7310 oh        1 R52     -0.655800
      4 C3          3.2720    1.2280    1.5710 c3        1 R52      0.041100
      5 O4          3.7270    1.2300    0.2210 oh        1 R52     -0.647800
      6 C2          4.2420    0.4200    2.4590 c3        1 R52      0.098100
      7 O5          3.5900    0.0370    3.6500 oh        1 R52     -0.656800
      8 C5          5.4890    1.3000    2.7670 c3        1 R52      0.195400
      9 C4          1.8460    0.6610    1.6060 c3        1 R52      0.073100
     10 O6          5.3790    1.9910    3.9460 os        1 R52     -0.573200
     11 P1          4.5010    3.4870    3.9000 p5        1 R52      1.331900
     12 O9          4.7290    3.9410    2.4820 o         1 R52     -0.927500
     13 O7          3.1280    2.8620    4.0760 o         1 R52     -0.927500
     14 O8          5.0680    4.3040    5.0160 o         1 R52     -0.927500
     15 H4          1.8670   -0.4630    1.6530 h1        1 R52      0.048700
     16 H3          1.7080    1.6670    3.2920 ho        1 R52      0.501000
     17 HA          3.2580    2.2960    1.9870 h1        1 R52      0.158700
     18 HB          4.3760    1.9460    0.1830 ho        1 R52      0.421000
     19 H2          4.5380   -0.5320    1.9450 h1        1 R52      0.017700
     20 H5          3.5190    0.8630    4.1860 ho        1 R52      0.475000
     21 H5C1        5.6570    2.0090    1.9080 h1        1 R52     -0.008300
     22 H5C2        6.3750    0.6040    2.8460 h1        1 R52     -0.008300
     23 HC          1.0280    2.2320    0.2590 h4        1 R52     -0.011800
@<TRIPOS>BOND
     1    1    2 2   
     2    2    9 1   
     3    2   23 1   
     4    3    9 1   
     5    3   16 1   
     6    4    5 1   
     7    4    6 1   
     8    4    9 1   
     9    4   17 1   
    10    5   18 1   
    11    6    7 1   
    12    6    8 1   
    13    6   19 1   
    14    7   20 1   
    15    8   10 1   
    16    8   21 1   
    17    8   22 1   
    18    9   15 1   
    19   10   11 1   
    20   11   12 1   
    21   11   13 1   
    22   11   14 1   
@<TRIPOS>SUBSTRUCTURE
     1 R52         1 TEMP              0 ****  ****    0 ROOT
