@<TRIPOS>MOLECULE
R52
   23    22     1     0     0
SMALL
bcc


@<TRIPOS>ATOM
      1 O2         -5.0740   -0.7770   -1.0150 o         1 R52     -0.597100
      2 C1         -3.8530   -0.5910   -1.0440 c         1 R52      0.595900
      3 O3         -3.4120    1.4730    0.0250 oh        1 R52     -0.632800
      4 C3         -1.5780   -0.1760   -0.0840 c3        1 R52      0.118100
      5 O4         -1.4310   -1.5650   -0.2720 oh        1 R52     -0.691800
      6 C2         -0.7940    0.3050    1.1520 c3        1 R52      0.079100
      7 O5         -0.7570    1.7290    1.1430 oh        1 R52     -0.671800
      8 C5          0.6480   -0.2600    1.1870 c3        1 R52      0.198400
      9 C4         -3.0900    0.0900    0.0770 c3        1 R52      0.029100
     10 O6          1.4440    0.4070    0.2890 os        1 R52     -0.574200
     11 P1          2.0420   -0.6030   -1.0000 p5        1 R52      1.327900
     12 O9          2.5810   -1.7820   -0.2440 o         1 R52     -0.920833
     13 O7          0.7210   -0.8750   -1.6950 o         1 R52     -0.920833
     14 O8          3.0050    0.2960   -1.7090 o         1 R52     -0.920833
     15 H4         -3.4520   -0.3120    1.0650 h1        1 R52      0.041700
     16 H3         -2.6040    1.9610    0.2440 ho        1 R52      0.437000
     17 HA         -1.1950    0.3810   -0.9880 h1        1 R52      0.092700
     18 HB         -0.5660   -1.6750   -0.7640 ho        1 R52      0.510000
     19 H2         -1.3430    0.0290    2.0920 h1        1 R52      0.017700
     20 H5          0.0310    1.9710    0.6270 ho        1 R52      0.443000
     21 H5C1        1.0290   -0.0800    2.2370 h1        1 R52      0.007700
     22 H5C2        0.6330   -1.3670    0.9900 h1        1 R52      0.007700
     23 HC         -3.2230   -0.9440   -1.8910 h4        1 R52      0.025200
@<TRIPOS>BOND
     1    1    2 2   
     2    2    9 1   
     3    2   23 1   
     4    3    9 1   
     5    3   16 1   
     6    4    5 1   
     7    4    6 1   
     8    4    9 1   
     9    4   17 1   
    10    5   18 1   
    11    6    7 1   
    12    6    8 1   
    13    6   19 1   
    14    7   20 1   
    15    8   10 1   
    16    8   21 1   
    17    8   22 1   
    18    9   15 1   
    19   10   11 1   
    20   11   12 1   
    21   11   13 1   
    22   11   14 1   
@<TRIPOS>SUBSTRUCTURE
     1 R52         1 TEMP              0 ****  ****    0 ROOT
