@<TRIPOS>MOLECULE
R55
   83    87     1     0     0
SMALL
bcc


@<TRIPOS>ATOM
      1 O22        -0.0650   -0.5130   -0.0500 o         1 R55     -0.427100
      2 C21         0.6110   -1.4250   -0.5030 c         1 R55      0.588700
      3 C14         0.7100   -2.8070   -0.0320 ca        1 R55     -0.165600
      4 C13        -0.2820   -3.2480    0.8590 ca        1 R55     -0.192800
      5 C12        -0.2050   -4.5750    1.3370 ca        1 R55      0.425700
      6 N11         0.7690   -5.4310    0.9860 nb        1 R55     -0.578000
      7 C16         1.7200   -4.9890    0.1360 ca        1 R55      0.425700
      8 C15         1.7380   -3.6900   -0.4020 ca        1 R55     -0.192800
      9 N23         1.4620   -1.0760   -1.7250 n4        1 R55     -0.682800
     10 C31         1.0440    0.1940   -2.4110 c3        1 R55      0.116500
     11 C32        -0.3100   -0.0120   -3.1570 c3        1 R55      0.157800
     12 N33        -0.2830   -1.1490   -4.0350 n3        1 R55     -0.871200
     13 C34         0.1410   -0.8800   -5.3940 c3        1 R55      0.149800
     14 C35         1.5810   -0.3880   -5.4980 c3        1 R55     -0.089400
     15 C36         1.8140    0.9320   -4.7940 c3        1 R55     -0.104400
     16 C37         2.1920    0.7420   -3.3150 c3        1 R55      0.125500
     17 N41         2.7360    2.0390   -2.7630 n4        1 R55     -0.698800
     18 C42         3.6340    1.8810   -1.5310 c         1 R55      0.610700
     19 O43         3.5990    0.7580   -1.0300 o         1 R55     -0.530100
     20 C51         4.4050    3.0380   -1.1430 ca        1 R55     -0.235600
     21 C52         5.3940    2.8320   -0.1540 ca        1 R55     -0.054500
     22 C53         6.2080    3.8860    0.2470 ca        1 R55     -0.092000
     23 C56         4.2270    4.3270   -1.6890 ca        1 R55     -0.054500
     24 C55         5.0390    5.3720   -1.2780 ca        1 R55     -0.092000
     25 C54         6.0470    5.1540   -0.3210 ca        1 R55     -0.012600
     26 C61         6.9810    6.2640    0.0540 c         1 R55      0.590300
     27 O62         7.9990    6.4440   -0.6160 o         1 R55     -0.467100
     28 C71         6.6380    7.0400    1.2560 ca        1 R55     -0.183600
     29 C72         5.3670    7.5970    1.4700 ca        1 R55      0.111100
     30 O99         4.3930    7.3960    0.5120 oh        1 R55     -0.537100
     31 C73         5.1170    8.3420    2.6300 ca        1 R55     -0.173000
     32 C74         6.1180    8.5350    3.5700 ca        1 R55     -0.116000
     33 C75         7.4130    7.9870    3.3850 ca        1 R55      0.139600
     34 C76         7.6480    7.2490    2.2020 ca        1 R55     -0.097000
     35 N91         8.4230    8.0780    4.3640 nh        1 R55     -0.637000
     36 C92         8.0320    8.6260    5.6540 c3        1 R55      0.188300
     37 C93         9.1050    8.4540    6.7270 c3        1 R55     -0.073900
     38 C94        10.4720    8.9750    6.2920 c3        1 R55     -0.054000
     39 C97        10.4670   10.4940    6.2080 c3        1 R55     -0.090600
     40 C98        11.5140    8.5480    7.3190 c3        1 R55     -0.090600
     41 C95        10.8290    8.3620    4.9400 c3        1 R55     -0.073900
     42 C96         9.7270    8.5380    3.9000 c3        1 R55      0.188300
     43 H13        -1.0980   -2.5830    1.1850 ha        1 R55      0.160500
     44 H12        -0.9680   -4.9650    2.0420 h4        1 R55      0.069600
     45 H16         2.5100   -5.7230   -0.1220 h4        1 R55      0.069600
     46 H15         2.5630   -3.4110   -1.0700 ha        1 R55      0.160500
     47 H23         2.4380   -0.9950   -1.4050 hn        1 R55      0.477800
     48 H31         0.8180    0.9350   -1.5790 hx        1 R55      0.117700
     49 H321       -1.0990   -0.1660   -2.3610 h1        1 R55      0.083700
     50 H322       -0.5490    0.9630   -3.6720 h1        1 R55      0.083700
     51 H33        -1.1610   -1.6360   -4.0300 hn        1 R55      0.419800
     52 H341        0.0570   -1.8500   -5.9660 h1        1 R55      0.076700
     53 H342       -0.5320   -0.1260   -5.9000 h1        1 R55      0.076700
     54 H351        1.8010   -0.2460   -6.5940 hc        1 R55      0.081200
     55 H352        2.2920   -1.1690   -5.1210 hc        1 R55      0.081200
     56 H361        0.9170    1.5960   -4.9000 hc        1 R55      0.081700
     57 H362        2.6690    1.4460   -5.3200 hc        1 R55      0.081700
     58 H37         3.0750    0.0250   -3.3030 hx        1 R55      0.113700
     59 H41         1.9620    2.6700   -2.5230 hn        1 R55      0.469300
     60 H52         5.5250    1.8310    0.2920 ha        1 R55      0.146000
     61 H53         6.9870    3.7160    1.0120 ha        1 R55      0.189500
     62 H56         3.4430    4.5430   -2.4300 ha        1 R55      0.146000
     63 H55         4.8910    6.3910   -1.6800 ha        1 R55      0.189500
     64 H99         3.6700    8.0150    0.6980 ho        1 R55      0.434000
     65 H73         4.1240    8.7900    2.7890 ha        1 R55      0.147000
     66 H74         5.8860    9.1370    4.4630 ha        1 R55      0.157000
     67 H76         8.6420    6.8170    1.9990 ha        1 R55      0.159000
     68 H921        7.1060    8.0820    5.9950 h1        1 R55      0.040450
     69 H922        7.7810    9.7240    5.5660 h1        1 R55      0.040450
     70 H931        8.7650    9.0040    7.6430 hc        1 R55      0.056200
     71 H932        9.1970    7.3680    6.9920 hc        1 R55      0.056200
     72 H971        9.7130   10.8500    5.4660 hc        1 R55      0.040367
     73 H972       11.4730   10.8660    5.8980 hc        1 R55      0.040367
     74 H973       10.2190   10.9330    7.2050 hc        1 R55      0.040367
     75 H981       11.5460    7.4360    7.4080 hc        1 R55      0.040367
     76 H982       11.2650    8.9780    8.3190 hc        1 R55      0.040367
     77 H983       12.5240    8.9120    7.0150 hc        1 R55      0.040367
     78 H951       11.7590    8.8440    4.5410 hc        1 R55      0.056200
     79 H952       11.0410    7.2690    5.0800 hc        1 R55      0.056200
     80 H961       10.0130    7.9510    2.9830 h1        1 R55      0.040450
     81 H962        9.6750    9.6280    3.6050 h1        1 R55      0.040450
     82 H232        1.3970   -1.8590   -2.3930 hn        1 R55      0.477800
     83 H412        3.2960    2.4970   -3.4970 hn        1 R55      0.469300
@<TRIPOS>BOND
     1    1    2 2   
     2    2    3 1   
     3    2    9 1   
     4    3    4 ar  
     5    3    8 ar  
     6    4    5 ar  
     7    4   43 1   
     8    5    6 ar  
     9    5   44 1   
    10    6    7 ar  
    11    7    8 ar  
    12    7   45 1   
    13    8   46 1   
    14    9   10 1   
    15    9   47 1   
    16    9   82 1   
    17   10   11 1   
    18   10   16 1   
    19   10   48 1   
    20   11   12 1   
    21   11   49 1   
    22   11   50 1   
    23   12   13 1   
    24   12   51 1   
    25   13   14 1   
    26   13   52 1   
    27   13   53 1   
    28   14   15 1   
    29   14   54 1   
    30   14   55 1   
    31   15   16 1   
    32   15   56 1   
    33   15   57 1   
    34   16   17 1   
    35   16   58 1   
    36   17   18 1   
    37   17   59 1   
    38   17   83 1   
    39   18   19 2   
    40   18   20 1   
    41   20   21 ar  
    42   20   23 ar  
    43   21   22 ar  
    44   21   60 1   
    45   22   25 ar  
    46   22   61 1   
    47   23   24 ar  
    48   23   62 1   
    49   24   25 ar  
    50   24   63 1   
    51   25   26 1   
    52   26   27 2   
    53   26   28 1   
    54   28   29 ar  
    55   28   34 ar  
    56   29   30 1   
    57   29   31 ar  
    58   30   64 1   
    59   31   32 ar  
    60   31   65 1   
    61   32   33 ar  
    62   32   66 1   
    63   33   34 ar  
    64   33   35 1   
    65   34   67 1   
    66   35   36 1   
    67   35   42 1   
    68   36   37 1   
    69   36   68 1   
    70   36   69 1   
    71   37   38 1   
    72   37   70 1   
    73   37   71 1   
    74   38   39 1   
    75   38   40 1   
    76   38   41 1   
    77   39   72 1   
    78   39   73 1   
    79   39   74 1   
    80   40   75 1   
    81   40   76 1   
    82   40   77 1   
    83   41   42 1   
    84   41   78 1   
    85   41   79 1   
    86   42   80 1   
    87   42   81 1   
@<TRIPOS>SUBSTRUCTURE
     1 R55         1 TEMP              0 ****  ****    0 ROOT
