@<TRIPOS>MOLECULE
R55
   81    78     1     0     0
SMALL
bcc


@<TRIPOS>ATOM
      1 O22        -1.8240   -6.8860   -1.4420 o         1 R55     -0.347000
      2 C21        -1.3880   -5.8050   -1.7580 c1        1 R55      0.349000
      3 C14         0.1160   -5.5980   -1.8810 c1        1 R55     -0.082000
      4 C13         0.9830   -6.6090   -1.5380 c2        1 R55     -0.134000
      5 C12         2.3420   -6.3910   -1.5750 c1        1 R55     -0.078000
      6 N11         2.8360   -5.1540   -1.9550 n1        1 R55     -0.134000
      7 C16         1.9950   -4.1710   -2.2890 c1        1 R55     -0.079000
      8 C15         0.6010   -4.3920   -2.2530 c1        1 R55     -0.156000
      9 N23        -2.2990   -4.7300   -2.1260 n3        1 R55     -0.378000
     10 C31        -3.7130   -4.9520   -2.1170 c3        1 R55      0.007000
     11 C32        -4.1370   -5.5410   -3.4520 c3        1 R55     -0.086000
     12 N33        -5.5420   -5.5830   -3.5580 n3        1 R55     -0.316000
     13 C34        -6.1410   -5.8920   -2.2990 c3        1 R55     -0.072000
     14 C35        -6.7050   -4.6220   -1.6320 c3        1 R55     -0.157000
     15 C36        -5.6050   -3.8400   -0.9360 c3        1 R55     -0.166000
     16 C37        -4.4200   -3.6400   -1.8580 c3        1 R55      0.038000
     17 N41        -3.4940   -2.7110   -1.2530 n         1 R55     -0.382000
     18 C42        -3.4190   -2.5970    0.2090 c2        1 R55      0.336000
     19 O43        -4.1510   -3.2970    0.9220 o         1 R55     -0.347000
     20 C51        -2.5010   -1.5340    0.8570 c2        1 R55     -0.105000
     21 C52        -1.3470   -1.1310    0.2140 c2        1 R55     -0.135000
     22 C53        -0.5000   -0.1940    0.8210 c1        1 R55     -0.089000
     23 C56        -2.8240   -1.0060    2.1120 c1        1 R55     -0.091000
     24 C55        -1.9840   -0.0770    2.7130 c1        1 R55     -0.081000
     25 C54        -0.8250    0.3310    2.0720 c1        1 R55     -0.117000
     26 C61         0.1890    1.2470    2.8180 c2        1 R55      0.324000
     27 O62         0.0580    1.4550    4.0510 o         1 R55     -0.275000
     28 C71         1.3310    1.8790    2.0650 c2        1 R55     -0.147000
     29 C72         2.3430    1.0700    1.5200 c2        1 R55      0.080000
     30 O99         2.2740   -0.3170    1.6530 oh        1 R55     -0.255000
     31 C73         3.4600    1.6590    0.9190 c1        1 R55     -0.191000
     32 C74         3.5710    3.0530    0.8600 c1        1 R55     -0.128000
     33 C75         2.5610    3.8590    1.4040 c1        1 R55      0.020000
     34 C76         1.4420    3.2700    2.0060 c1        1 R55     -0.091000
     35 N91         2.6740    5.2790    1.3500 n3        1 R55     -0.233000
     36 C92         3.5190    5.6690    0.2050 c3        1 R55     -0.052000
     37 C93         3.7890    7.1630    0.1650 c3        1 R55     -0.150500
     38 C94         4.3140    7.6850    1.4720 c3        1 R55     -0.054000
     39 C97         5.7350    7.1420    1.6940 c3        1 R55     -0.206000
     40 C98         4.3740    9.2170    1.4050 c3        1 R55     -0.206000
     41 C95         3.4570    7.2840    2.6250 c3        1 R55     -0.150500
     42 C96         3.1890    5.7930    2.6530 c3        1 R55     -0.052000
     43 H13         0.6280   -7.5010   -1.2650 ha        1 R55      0.162000
     44 H12         2.9720   -7.1250   -1.3250 ha        1 R55      0.164000
     45 H16         2.3570   -3.2680   -2.5660 ha        1 R55      0.168000
     46 H15        -0.0110   -3.6770   -2.4940 ha        1 R55      0.157000
     47 H23        -1.9690   -3.9030   -2.3300 hn        1 R55      0.221000
     48 H31        -3.9410   -5.5990   -1.3840 h1        1 R55      0.137000
     49 H321       -3.7720   -4.9810   -4.1870 h1        1 R55      0.075500
     50 H322       -3.7760   -6.4600   -3.5320 h1        1 R55      0.075500
     51 H33        -5.7910   -6.2410   -4.1980 hn        1 R55      0.164000
     52 H341       -6.8460   -6.5100   -2.4330 h1        1 R55      0.074000
     53 H342       -5.4750   -6.2890   -1.7190 h1        1 R55      0.074000
     54 H351       -7.1200   -4.0590   -2.3140 hc        1 R55      0.087500
     55 H352       -7.3940   -4.8850   -0.9600 hc        1 R55      0.087500
     56 H361       -5.9660   -2.9350   -0.6560 hc        1 R55      0.102500
     57 H362       -5.3160   -4.3290   -0.1430 hc        1 R55      0.102500
     58 H37        -4.7330   -3.2730   -2.7070 h1        1 R55      0.111000
     59 H41        -2.9630   -2.1450   -1.8020 hn        1 R55      0.223000
     60 H52        -1.1150   -1.5110   -0.6850 ha        1 R55      0.129000
     61 H53         0.3180    0.0940    0.3670 ha        1 R55      0.149000
     62 H56        -3.6480   -1.2930    2.5690 ha        1 R55      0.164000
     63 H55        -2.2120    0.2910    3.5920 ha        1 R55      0.162000
     64 H99         3.0080   -0.6900    1.2920 ho        1 R55      0.226000
     65 H73         4.1660    1.0950    0.5400 ha        1 R55      0.141000
     66 H74         4.3480    3.4620    0.4420 ha        1 R55      0.140000
     67 H76         0.7440    3.8270    2.3810 ha        1 R55      0.152000
     68 H921        4.3990    5.1820    0.2690 h1        1 R55      0.076750
     69 H922        3.0500    5.3940   -0.6600 h1        1 R55      0.076750
     70 H931        4.4580    7.3510   -0.5500 hc        1 R55      0.090250
     71 H932        2.9420    7.6370   -0.0540 hc        1 R55      0.090250
     72 H971        5.7050    6.1820    1.7680 hc        1 R55      0.075333
     73 H972        6.1080    7.5280    2.5330 hc        1 R55      0.075333
     74 H973        6.3150    7.4000    0.9220 hc        1 R55      0.075333
     75 H981        3.4870    9.5700    1.2020 hc        1 R55      0.075333
     76 H982        4.9830    9.4800    0.7240 hc        1 R55      0.075333
     77 H983        4.6680    9.5610    2.2430 hc        1 R55      0.075333
     78 H951        3.9140    7.5460    3.4700 hc        1 R55      0.090250
     79 H952        2.5790    7.7730    2.5640 hc        1 R55      0.090250
     80 H961        2.5300    5.6010    3.3520 h1        1 R55      0.076750
     81 H962        4.0360    5.3170    2.8710 h1        1 R55      0.076750
@<TRIPOS>BOND
     1    1    2 1   
     2    2    9 1   
     3    3    4 1   
     4    3    8 1   
     5    4    5 1   
     6    4   43 1   
     7    5   44 1   
     8    6    7 1   
     9    7   45 1   
    10    8   46 1   
    11    9   10 1   
    12    9   47 1   
    13   10   11 1   
    14   10   16 1   
    15   10   48 1   
    16   11   12 1   
    17   11   49 1   
    18   11   50 1   
    19   12   13 1   
    20   12   51 1   
    21   13   14 1   
    22   13   52 1   
    23   13   53 1   
    24   14   15 1   
    25   14   54 1   
    26   14   55 1   
    27   15   16 1   
    28   15   56 1   
    29   15   57 1   
    30   16   17 1   
    31   16   58 1   
    32   17   18 1   
    33   17   59 1   
    34   18   19 1   
    35   18   20 1   
    36   20   21 1   
    37   20   23 1   
    38   21   22 1   
    39   21   60 1   
    40   22   61 1   
    41   23   62 1   
    42   24   25 1   
    43   24   63 1   
    44   25   26 1   
    45   26   27 1   
    46   26   28 1   
    47   28   29 1   
    48   28   34 1   
    49   29   30 1   
    50   29   31 1   
    51   30   64 1   
    52   31   65 1   
    53   32   33 1   
    54   32   66 1   
    55   33   35 1   
    56   34   67 1   
    57   35   36 1   
    58   35   42 1   
    59   36   37 1   
    60   36   68 1   
    61   36   69 1   
    62   37   38 1   
    63   37   70 1   
    64   37   71 1   
    65   38   39 1   
    66   38   40 1   
    67   38   41 1   
    68   39   72 1   
    69   39   73 1   
    70   39   74 1   
    71   40   75 1   
    72   40   76 1   
    73   40   77 1   
    74   41   42 1   
    75   41   78 1   
    76   41   79 1   
    77   42   80 1   
    78   42   81 1   
@<TRIPOS>SUBSTRUCTURE
     1 R55         1 TEMP              0 ****  ****    0 ROOT
