@<TRIPOS>MOLECULE
R55
   83    87     1     0     0
SMALL
bcc


@<TRIPOS>ATOM
      1 O22        -0.0390   -0.5640   -0.0470 o         1 R55     -0.427100
      2 C21         0.6440   -1.4670   -0.5060 c         1 R55      0.588700
      3 C14         0.7570   -2.8510   -0.0420 ca        1 R55     -0.165600
      4 C13        -0.2280   -3.3040    0.8520 ca        1 R55     -0.192800
      5 C12        -0.1380   -4.6320    1.3240 ca        1 R55      0.425700
      6 N11         0.8410   -5.4780    0.9650 nb        1 R55     -0.578000
      7 C16         1.7840   -5.0260    0.1130 ca        1 R55      0.425700
      8 C15         1.7900   -3.7240   -0.4200 ca        1 R55     -0.192800
      9 N23         1.4890   -1.1060   -1.7290 ny        1 R55     -0.682800
     10 C31         1.0570    0.1640   -2.4070 c3        1 R55      0.116500
     11 C32        -0.2980   -0.0510   -3.1510 c3        1 R55      0.157800
     12 N33        -0.2630   -1.1850   -4.0340 n7        1 R55     -0.871200
     13 C34         0.1550   -0.9060   -5.3930 c3        1 R55      0.149800
     14 C35         1.5900   -0.4010   -5.4990 c3        1 R55     -0.089400
     15 C36         1.8140    0.9180   -4.7900 c3        1 R55     -0.104400
     16 C37         2.1980    0.7260   -3.3130 c3        1 R55      0.125500
     17 N41         2.7310    2.0260   -2.7560 ny        1 R55     -0.698800
     18 C42         3.6340    1.8700   -1.5280 c         1 R55      0.610700
     19 O43         3.6110    0.7440   -1.0320 o         1 R55     -0.530100
     20 C51         4.3960    3.0320   -1.1370 ca        1 R55     -0.235600
     21 C52         5.3900    2.8310   -0.1520 ca        1 R55     -0.054500
     22 C53         6.1970    3.8900    0.2500 ca        1 R55     -0.092000
     23 C56         4.2040    4.3220   -1.6760 ca        1 R55     -0.054500
     24 C55         5.0080    5.3720   -1.2640 ca        1 R55     -0.092000
     25 C54         6.0210    5.1590   -0.3110 ca        1 R55     -0.012600
     26 C61         6.9470    6.2760    0.0650 c         1 R55      0.590300
     27 O62         7.9590    6.4700   -0.6100 o         1 R55     -0.467100
     28 C71         6.6050    7.0410    1.2740 ca        1 R55     -0.183600
     29 C72         5.3280    7.5760    1.5060 ca        1 R55      0.111100
     30 O99         4.3460    7.3630    0.5580 oh        1 R55     -0.537100
     31 C73         5.0790    8.3110    2.6720 ca        1 R55     -0.173000
     32 C74         6.0880    8.5170    3.6010 ca        1 R55     -0.116000
     33 C75         7.3900    7.9920    3.3980 ca        1 R55      0.139600
     34 C76         7.6220    7.2630    2.2090 ca        1 R55     -0.097000
     35 N91         8.4090    8.0950    4.3660 nh        1 R55     -0.637000
     36 C92         8.0240    8.6320    5.6620 c3        1 R55      0.188300
     37 C93         9.1120    8.4740    6.7220 c3        1 R55     -0.073900
     38 C94        10.4650    9.0210    6.2730 c3        1 R55     -0.054000
     39 C97        10.4320   10.5390    6.1950 c3        1 R55     -0.090600
     40 C98        11.5250    8.6090    7.2860 c3        1 R55     -0.090600
     41 C95        10.8170    8.4180    4.9150 c3        1 R55     -0.073900
     42 C96         9.6990    8.5790    3.8880 c3        1 R55      0.188300
     43 H13        -1.0480   -2.6470    1.1840 ha        1 R55      0.160500
     44 H12        -0.8950   -5.0320    2.0300 h4        1 R55      0.069600
     45 H16         2.5800   -5.7520   -0.1520 h4        1 R55      0.069600
     46 H15         2.6090   -3.4350   -1.0910 ha        1 R55      0.160500
     47 H23         1.4280   -1.8860   -2.4000 hn        1 R55      0.477800
     48 H31         0.8270    0.8990   -1.5720 hx        1 R55      0.117700
     49 H321       -1.0830   -0.2150   -2.3530 h1        1 R55      0.083700
     50 H322       -0.5460    0.9240   -3.6610 h1        1 R55      0.083700
     51 H33        -1.1370   -1.6790   -4.0280 hn        1 R55      0.419800
     52 H341        0.0780   -1.8740   -5.9690 h1        1 R55      0.076700
     53 H342       -0.5250   -0.1550   -5.8940 h1        1 R55      0.076700
     54 H351        2.3090   -1.1770   -5.1270 hc        1 R55      0.081200
     55 H352        1.8070   -0.2530   -6.5950 hc        1 R55      0.081200
     56 H361        0.9110    1.5750   -4.8910 hc        1 R55      0.081700
     57 H362        2.6630    1.4420   -5.3160 hc        1 R55      0.081700
     58 H37         3.0870    0.0170   -3.3060 hx        1 R55      0.113700
     59 H41         3.2850    2.4910   -3.4900 hn        1 R55      0.469300
     60 H52         5.5320    1.8290    0.2880 ha        1 R55      0.146000
     61 H53         6.9790    3.7240    1.0120 ha        1 R55      0.189500
     62 H56         3.4160    4.5340   -2.4130 ha        1 R55      0.146000
     63 H55         4.8490    6.3920   -1.6600 ha        1 R55      0.189500
     64 H99         3.6140    7.9670    0.7560 ho        1 R55      0.434000
     65 H73         4.0800    8.7420    2.8450 ha        1 R55      0.147000
     66 H74         5.8560    9.1110    4.5000 ha        1 R55      0.157000
     67 H76         8.6210    6.8480    1.9930 ha        1 R55      0.159000
     68 H921        7.1110    8.0700    6.0120 h1        1 R55      0.040450
     69 H922        7.7530    9.7260    5.5820 h1        1 R55      0.040450
     70 H931        9.2260    7.3890    6.9810 hc        1 R55      0.056200
     71 H932        8.7740    9.0150    7.6440 hc        1 R55      0.056200
     72 H971       11.4280   10.9300    5.8750 hc        1 R55      0.040367
     73 H972        9.6640   10.8850    5.4630 hc        1 R55      0.040367
     74 H973       10.1880   10.9710    7.1960 hc        1 R55      0.040367
     75 H981       12.5260    8.9910    6.9720 hc        1 R55      0.040367
     76 H982       11.2820    9.0310    8.2910 hc        1 R55      0.040367
     77 H983       11.5790    7.4970    7.3710 hc        1 R55      0.040367
     78 H951       11.7340    8.9180    4.5070 hc        1 R55      0.056200
     79 H952       11.0490    7.3290    5.0490 hc        1 R55      0.056200
     80 H961        9.9850    8.0000    2.9660 h1        1 R55      0.040450
     81 H962        9.6250    9.6690    3.5980 h1        1 R55      0.040450
     82 H232        2.4650   -1.0180   -1.4120 hn        1 R55      0.477800
     83 H412        1.9530    2.6480   -2.5110 hn        1 R55      0.469300
@<TRIPOS>BOND
     1    1    2 2   
     2    2    3 1   
     3    2    9 1   
     4    3    4 ar  
     5    3    8 ar  
     6    4    5 ar  
     7    4   43 1   
     8    5    6 ar  
     9    5   44 1   
    10    6    7 ar  
    11    7    8 ar  
    12    7   45 1   
    13    8   46 1   
    14    9   10 1   
    15    9   47 1   
    16    9   82 1   
    17   10   11 1   
    18   10   16 1   
    19   10   48 1   
    20   11   12 1   
    21   11   49 1   
    22   11   50 1   
    23   12   13 1   
    24   12   51 1   
    25   13   14 1   
    26   13   52 1   
    27   13   53 1   
    28   14   15 1   
    29   14   54 1   
    30   14   55 1   
    31   15   16 1   
    32   15   56 1   
    33   15   57 1   
    34   16   17 1   
    35   16   58 1   
    36   17   18 1   
    37   17   59 1   
    38   17   83 1   
    39   18   19 2   
    40   18   20 1   
    41   20   21 ar  
    42   20   23 ar  
    43   21   22 ar  
    44   21   60 1   
    45   22   25 ar  
    46   22   61 1   
    47   23   24 ar  
    48   23   62 1   
    49   24   25 ar  
    50   24   63 1   
    51   25   26 1   
    52   26   27 2   
    53   26   28 1   
    54   28   29 ar  
    55   28   34 ar  
    56   29   30 1   
    57   29   31 ar  
    58   30   64 1   
    59   31   32 ar  
    60   31   65 1   
    61   32   33 ar  
    62   32   66 1   
    63   33   34 ar  
    64   33   35 1   
    65   34   67 1   
    66   35   36 1   
    67   35   42 1   
    68   36   37 1   
    69   36   68 1   
    70   36   69 1   
    71   37   38 1   
    72   37   70 1   
    73   37   71 1   
    74   38   39 1   
    75   38   40 1   
    76   38   41 1   
    77   39   72 1   
    78   39   73 1   
    79   39   74 1   
    80   40   75 1   
    81   40   76 1   
    82   40   77 1   
    83   41   42 1   
    84   41   78 1   
    85   41   79 1   
    86   42   80 1   
    87   42   81 1   
@<TRIPOS>SUBSTRUCTURE
     1 R55         1 TEMP              0 ****  ****    0 ROOT
