@<TRIPOS>MOLECULE
R55
   83    87     1     0     0
SMALL
bcc


@<TRIPOS>ATOM
      1 O22        -0.0850   -0.5190   -0.0950 o         1 R55     -0.427100
      2 C21         0.5940   -1.4300   -0.5440 c         1 R55      0.588700
      3 C14         0.6860   -2.8140   -0.0780 ca        1 R55     -0.165600
      4 C13        -0.3160   -3.2560    0.8010 ca        1 R55     -0.192800
      5 C12        -0.2460   -4.5850    1.2750 ca        1 R55      0.425700
      6 N11         0.7300   -5.4410    0.9310 nb        1 R55     -0.578000
      7 C16         1.6900   -4.9990    0.0920 ca        1 R55      0.425700
      8 C15         1.7160   -3.6980   -0.4410 ca        1 R55     -0.192800
      9 N23         1.4590   -1.0770   -1.7560 n4        1 R55     -0.682800
     10 C31         1.0480    0.1950   -2.4420 c3        1 R55      0.116500
     11 C32        -0.2980   -0.0080   -3.2040 c3        1 R55      0.157800
     12 N33        -0.2610   -1.1420   -4.0850 n3        1 R55     -0.871200
     13 C34         0.1770   -0.8680   -5.4380 c3        1 R55      0.149800
     14 C35         1.6180   -0.3770   -5.5260 c3        1 R55     -0.089400
     15 C36         1.8450    0.9400   -4.8140 c3        1 R55     -0.104400
     16 C37         2.2070    0.7450   -3.3320 c3        1 R55      0.125500
     17 N41         2.7460    2.0400   -2.7700 n4        1 R55     -0.698800
     18 C42         3.6320    1.8760   -1.5300 c         1 R55      0.610700
     19 O43         3.5910    0.7510   -1.0330 o         1 R55     -0.530100
     20 C51         4.4020    3.0300   -1.1310 ca        1 R55     -0.235600
     21 C52         5.3830    2.8190   -0.1360 ca        1 R55     -0.054500
     22 C53         6.1960    3.8700    0.2750 ca        1 R55     -0.092000
     23 C56         4.2300    4.3220   -1.6730 ca        1 R55     -0.054500
     24 C55         5.0410    5.3630   -1.2530 ca        1 R55     -0.092000
     25 C54         6.0410    5.1400   -0.2900 ca        1 R55     -0.012600
     26 C61         6.9760    6.2470    0.0940 c         1 R55      0.590300
     27 O62         7.9950    6.4300   -0.5730 o         1 R55     -0.468100
     28 C71         6.6330    7.0160    1.3000 ca        1 R55     -0.183600
     29 C72         5.3560    7.5570    1.5260 ca        1 R55      0.111100
     30 O99         4.3770    7.3470    0.5750 oh        1 R55     -0.537100
     31 C73         5.1060    8.2960    2.6900 ca        1 R55     -0.173000
     32 C74         6.1130    8.4990    3.6220 ca        1 R55     -0.116000
     33 C75         7.4130    7.9680    3.4260 ca        1 R55      0.139600
     34 C76         7.6470    7.2360    2.2390 ca        1 R55     -0.097000
     35 N91         8.4300    8.0690    4.3960 nh        1 R55     -0.637000
     36 C92         8.0420    8.6100    5.6910 c3        1 R55      0.188300
     37 C93         9.1250    8.4500    6.7550 c3        1 R55     -0.073900
     38 C94        10.4820    8.9890    6.3090 c3        1 R55     -0.054000
     39 C97        10.4570   10.5070    6.2290 c3        1 R55     -0.090600
     40 C98        11.5370    8.5730    7.3280 c3        1 R55     -0.090600
     41 C95        10.8360    8.3820    4.9540 c3        1 R55     -0.073900
     42 C96         9.7230    8.5460    3.9230 c3        1 R55      0.188300
     43 H13        -1.1340   -2.5910    1.1220 ha        1 R55      0.160500
     44 H12        -1.0170   -4.9770    1.9710 h4        1 R55      0.069600
     45 H16         2.4820   -5.7330   -0.1610 h4        1 R55      0.069600
     46 H15         2.5480   -3.4170   -1.1000 ha        1 R55      0.160500
     47 H23         1.3990   -1.8580   -2.4280 hn        1 R55      0.477800
     48 H31         0.8150    0.9330   -1.6100 hx        1 R55      0.117700
     49 H321       -0.5300    0.9690   -3.7180 h1        1 R55      0.083200
     50 H322       -1.0950   -0.1640   -2.4160 h1        1 R55      0.083200
     51 H33        -1.1400   -1.6280   -4.0910 hn        1 R55      0.419800
     52 H341       -0.4900   -0.1120   -5.9490 h1        1 R55      0.076700
     53 H342        0.0980   -1.8370   -6.0150 h1        1 R55      0.076700
     54 H351        2.3250   -1.1590   -5.1440 hc        1 R55      0.081200
     55 H352        1.8500   -0.2320   -6.6190 hc        1 R55      0.081200
     56 H361        2.7050    1.4560   -5.3300 hc        1 R55      0.081700
     57 H362        0.9490    1.6050   -4.9280 hc        1 R55      0.081700
     58 H37         3.0890    0.0270   -3.3130 hx        1 R55      0.113700
     59 H41         3.3130    2.5000   -3.4970 hn        1 R55      0.469300
     60 H52         5.5090    1.8160    0.3070 ha        1 R55      0.146000
     61 H53         6.9690    3.6960    1.0450 ha        1 R55      0.189000
     62 H56         3.4520    4.5410   -2.4190 ha        1 R55      0.146000
     63 H55         4.8970    6.3840   -1.6520 ha        1 R55      0.189000
     64 H99         3.6460    7.9520    0.7720 ho        1 R55      0.434000
     65 H73         4.1090    8.7310    2.8580 ha        1 R55      0.147000
     66 H74         5.8800    9.0960    4.5190 ha        1 R55      0.157000
     67 H76         8.6450    6.8160    2.0270 ha        1 R55      0.159000
     68 H921        7.1250    8.0540    6.0380 h1        1 R55      0.040450
     69 H922        7.7760    9.7050    5.6070 h1        1 R55      0.040450
     70 H931        8.7860    8.9930    7.6750 hc        1 R55      0.056200
     71 H932        9.2330    7.3640    7.0170 hc        1 R55      0.056200
     72 H971        9.6930   10.8550    5.4930 hc        1 R55      0.040367
     73 H972       11.4560   10.8920    5.9110 hc        1 R55      0.040367
     74 H973       10.2120   10.9420    7.2280 hc        1 R55      0.040367
     75 H981       11.2920    8.9990    8.3300 hc        1 R55      0.040367
     76 H982       12.5410    8.9500    7.0160 hc        1 R55      0.040367
     77 H983       11.5850    7.4610    7.4140 hc        1 R55      0.040367
     78 H951       11.0630    7.2920    5.0910 hc        1 R55      0.056200
     79 H952       11.7570    8.8760    4.5480 hc        1 R55      0.056200
     80 H961       10.0090    7.9630    3.0030 h1        1 R55      0.040450
     81 H962        9.6560    9.6350    3.6300 h1        1 R55      0.040450
     82 H232        2.4310   -0.9990   -1.4260 hn        1 R55      0.477800
     83 H412        1.9710    2.6700   -2.5340 hn        1 R55      0.469300
@<TRIPOS>BOND
     1    1    2 2   
     2    2    3 1   
     3    2    9 1   
     4    3    4 ar  
     5    3    8 ar  
     6    4    5 ar  
     7    4   43 1   
     8    5    6 ar  
     9    5   44 1   
    10    6    7 ar  
    11    7    8 ar  
    12    7   45 1   
    13    8   46 1   
    14    9   10 1   
    15    9   47 1   
    16    9   82 1   
    17   10   11 1   
    18   10   16 1   
    19   10   48 1   
    20   11   12 1   
    21   11   49 1   
    22   11   50 1   
    23   12   13 1   
    24   12   51 1   
    25   13   14 1   
    26   13   52 1   
    27   13   53 1   
    28   14   15 1   
    29   14   54 1   
    30   14   55 1   
    31   15   16 1   
    32   15   56 1   
    33   15   57 1   
    34   16   17 1   
    35   16   58 1   
    36   17   18 1   
    37   17   59 1   
    38   17   83 1   
    39   18   19 2   
    40   18   20 1   
    41   20   21 ar  
    42   20   23 ar  
    43   21   22 ar  
    44   21   60 1   
    45   22   25 ar  
    46   22   61 1   
    47   23   24 ar  
    48   23   62 1   
    49   24   25 ar  
    50   24   63 1   
    51   25   26 1   
    52   26   27 2   
    53   26   28 1   
    54   28   29 ar  
    55   28   34 ar  
    56   29   30 1   
    57   29   31 ar  
    58   30   64 1   
    59   31   32 ar  
    60   31   65 1   
    61   32   33 ar  
    62   32   66 1   
    63   33   34 ar  
    64   33   35 1   
    65   34   67 1   
    66   35   36 1   
    67   35   42 1   
    68   36   37 1   
    69   36   68 1   
    70   36   69 1   
    71   37   38 1   
    72   37   70 1   
    73   37   71 1   
    74   38   39 1   
    75   38   40 1   
    76   38   41 1   
    77   39   72 1   
    78   39   73 1   
    79   39   74 1   
    80   40   75 1   
    81   40   76 1   
    82   40   77 1   
    83   41   42 1   
    84   41   78 1   
    85   41   79 1   
    86   42   80 1   
    87   42   81 1   
@<TRIPOS>SUBSTRUCTURE
     1 R55         1 TEMP              0 ****  ****    0 ROOT
