@<TRIPOS>MOLECULE
R55
   81    85     1     0     0
SMALL
bcc


@<TRIPOS>ATOM
      1 O22         4.3590    2.5690    1.2900 o         1 R55     -0.613100
      2 C21         4.3730    2.3250    0.0640 c         1 R55      0.665700
      3 C14         3.5020    3.0830   -0.8830 ca        1 R55     -0.106600
      4 C13         3.2050    4.4200   -0.5900 ca        1 R55     -0.210300
      5 C12         2.3780    5.1300   -1.4780 ca        1 R55      0.386700
      6 N11         1.8500    4.5930   -2.5950 nb        1 R55     -0.649000
      7 C16         2.1390    3.3040   -2.8560 ca        1 R55      0.386700
      8 C15         2.9590    2.5050   -2.0360 ca        1 R55     -0.210300
      9 N23         5.2260    1.3870   -0.4780 n         1 R55     -0.554900
     10 C31         6.0590    0.5310    0.3340 c3        1 R55      0.084700
     11 C32         7.4850    0.4980   -0.2890 c3        1 R55      0.162800
     12 N33         8.4260   -0.4290    0.2910 n3        1 R55     -0.839200
     13 C34         8.3160   -0.7080    1.7040 c3        1 R55      0.169800
     14 C35         7.3460   -1.8500    2.0020 c3        1 R55     -0.076400
     15 C36         5.8960   -1.4500    1.8980 c3        1 R55     -0.088400
     16 C37         5.5090   -0.9340    0.4980 c3        1 R55      0.094700
     17 N41         4.0790   -1.0650    0.3080 n         1 R55     -0.557900
     18 C42         3.4760   -1.0670   -0.9280 c         1 R55      0.668700
     19 O43         4.1260   -0.8840   -1.9810 o         1 R55     -0.626100
     20 C51         2.0050   -1.3310   -0.9700 ca        1 R55     -0.116600
     21 C52         1.5140   -2.1590   -1.9860 ca        1 R55     -0.108500
     22 C53         0.1500   -2.4250   -2.0680 ca        1 R55     -0.088500
     23 C56         1.1250   -0.7590   -0.0470 ca        1 R55     -0.108500
     24 C55        -0.2410   -1.0270   -0.1300 ca        1 R55     -0.088500
     25 C54        -0.7360   -1.8670   -1.1350 ca        1 R55     -0.173600
     26 C61        -2.1870   -2.1420   -1.2670 c         1 R55      0.584300
     27 O62        -2.6540   -2.5830   -2.3250 o         1 R55     -0.511100
     28 C71        -3.0620   -1.8340   -0.1130 ca        1 R55     -0.222600
     29 C72        -2.8570   -2.3570    1.1740 ca        1 R55      0.131100
     30 O99        -1.8390   -3.2170    1.5140 oh        1 R55     -0.496100
     31 C73        -3.7430   -2.0310    2.2160 ca        1 R55     -0.145000
     32 C74        -4.8250   -1.2000    1.9750 ca        1 R55     -0.127000
     33 C75        -5.0610   -0.6620    0.6880 ca        1 R55      0.097600
     34 C76        -4.1640   -1.0030   -0.3450 ca        1 R55     -0.080000
     35 N91        -6.1070    0.2600    0.4160 nh        1 R55     -0.630000
     36 C92        -6.7760    0.8220    1.5780 c3        1 R55      0.184800
     37 C93        -7.7310    1.9580    1.2150 c3        1 R55     -0.071900
     38 C94        -8.7390    1.5630    0.1380 c3        1 R55     -0.054000
     39 C97        -9.7590    0.5820    0.6940 c3        1 R55     -0.088100
     40 C98        -9.4740    2.8130   -0.3320 c3        1 R55     -0.088100
     41 C95        -7.9950    0.9510   -1.0460 c3        1 R55     -0.071900
     42 C96        -7.0310   -0.1580   -0.6310 c3        1 R55      0.184800
     43 H13         3.6040    4.8920    0.3200 ha        1 R55      0.163500
     44 H12         2.1210    6.1870   -1.2850 h4        1 R55      0.028100
     45 H16         1.6890    2.8860   -3.7750 h4        1 R55      0.028100
     46 H15         3.1440    1.4540   -2.3080 ha        1 R55      0.163500
     47 H23         5.1160    1.1190   -1.4320 hn        1 R55      0.332500
     48 H31         6.1230    0.9990    1.3620 h1        1 R55      0.086700
     49 H321        7.8780    1.5590   -0.2490 h1        1 R55      0.040200
     50 H322        7.4030    0.2060   -1.3770 h1        1 R55      0.040200
     51 H33         9.3580   -0.1340    0.0640 hn        1 R55      0.371800
     52 H341        8.0050    0.1980    2.3020 h1        1 R55      0.032200
     53 H342        9.3340   -1.0200    2.0770 h1        1 R55      0.032200
     54 H351        7.5430   -2.1980    3.0520 hc        1 R55      0.052700
     55 H352        7.5510   -2.7150    1.3170 hc        1 R55      0.052700
     56 H361        5.6610   -0.6620    2.6630 hc        1 R55      0.048700
     57 H362        5.2760   -2.3530    2.1530 hc        1 R55      0.048700
     58 H37         6.0040   -1.5730   -0.2950 h1        1 R55      0.091700
     59 H41         3.5100   -1.0920    1.1220 hn        1 R55      0.317500
     60 H52         2.2140   -2.5850   -2.7240 ha        1 R55      0.154500
     61 H53        -0.2480   -3.0670   -2.8720 ha        1 R55      0.160000
     62 H56         1.4910   -0.0800    0.7400 ha        1 R55      0.154500
     63 H55        -0.9340   -0.5740    0.5980 ha        1 R55      0.160000
     64 H99        -1.2500   -3.3120    0.7500 ho        1 R55      0.424000
     65 H73        -3.5670   -2.4540    3.2160 ha        1 R55      0.154000
     66 H74        -5.5030   -0.9700    2.8120 ha        1 R55      0.140000
     67 H76        -4.3120   -0.6140   -1.3670 ha        1 R55      0.154000
     68 H921       -5.9840    1.2290    2.2690 h1        1 R55      0.037200
     69 H922       -7.3580    0.0340    2.1430 h1        1 R55      0.037200
     70 H931       -7.1390    2.8400    0.8540 hc        1 R55      0.050450
     71 H932       -8.2730    2.2670    2.1460 hc        1 R55      0.050450
     72 H971      -10.5020    0.3110   -0.0940 hc        1 R55      0.035700
     73 H972       -9.2600   -0.3520    1.0470 hc        1 R55      0.035700
     74 H973      -10.3050    1.0390    1.5550 hc        1 R55      0.035700
     75 H981      -10.0210    3.2820    0.5210 hc        1 R55      0.035700
     76 H982       -8.7540    3.5590   -0.7470 hc        1 R55      0.035700
     77 H983      -10.2110    2.5490   -1.1280 hc        1 R55      0.035700
     78 H951       -8.7310    0.5180   -1.7710 hc        1 R55      0.050450
     79 H952       -7.4260    1.7600   -1.5760 hc        1 R55      0.050450
     80 H961       -6.4300   -0.4640   -1.5330 h1        1 R55      0.037200
     81 H962       -7.6320   -1.0570   -0.3020 h1        1 R55      0.037200
@<TRIPOS>BOND
     1    1    2 2   
     2    2    3 1   
     3    2    9 1   
     4    3    4 ar  
     5    3    8 ar  
     6    4    5 ar  
     7    4   43 1   
     8    5    6 ar  
     9    5   44 1   
    10    6    7 ar  
    11    7    8 ar  
    12    7   45 1   
    13    8   46 1   
    14    9   10 1   
    15    9   47 1   
    16   10   11 1   
    17   10   16 1   
    18   10   48 1   
    19   11   12 1   
    20   11   49 1   
    21   11   50 1   
    22   12   13 1   
    23   12   51 1   
    24   13   14 1   
    25   13   52 1   
    26   13   53 1   
    27   14   15 1   
    28   14   54 1   
    29   14   55 1   
    30   15   16 1   
    31   15   56 1   
    32   15   57 1   
    33   16   17 1   
    34   16   58 1   
    35   17   18 1   
    36   17   59 1   
    37   18   19 2   
    38   18   20 1   
    39   20   21 ar  
    40   20   23 ar  
    41   21   22 ar  
    42   21   60 1   
    43   22   25 ar  
    44   22   61 1   
    45   23   24 ar  
    46   23   62 1   
    47   24   25 ar  
    48   24   63 1   
    49   25   26 1   
    50   26   27 2   
    51   26   28 1   
    52   28   29 ar  
    53   28   34 ar  
    54   29   30 1   
    55   29   31 ar  
    56   30   64 1   
    57   31   32 ar  
    58   31   65 1   
    59   32   33 ar  
    60   32   66 1   
    61   33   34 ar  
    62   33   35 1   
    63   34   67 1   
    64   35   36 1   
    65   35   42 1   
    66   36   37 1   
    67   36   68 1   
    68   36   69 1   
    69   37   38 1   
    70   37   70 1   
    71   37   71 1   
    72   38   39 1   
    73   38   40 1   
    74   38   41 1   
    75   39   72 1   
    76   39   73 1   
    77   39   74 1   
    78   40   75 1   
    79   40   76 1   
    80   40   77 1   
    81   41   42 1   
    82   41   78 1   
    83   41   79 1   
    84   42   80 1   
    85   42   81 1   
@<TRIPOS>SUBSTRUCTURE
     1 R55         1 TEMP              0 ****  ****    0 ROOT
