@<TRIPOS>MOLECULE
R56
   63    64     1     0     0
SMALL
bcc


@<TRIPOS>ATOM
      1 C1         -1.0030   -0.2800   -0.2080 ca        1 R56     -0.044000
      2 C3         -0.1540   -1.2500    0.3330 ca        1 R56     -0.110500
      3 C5          0.5570   -0.9850    1.5010 ca        1 R56     -0.091000
      4 C7          0.4360    0.2690    2.1220 ca        1 R56     -0.228300
      5 C8         -0.4350    1.2340    1.5910 ca        1 R56     -0.091000
      6 C10        -1.1410    0.9600    0.4230 ca        1 R56     -0.110500
      7 C12         1.1470    0.5340    3.4110 c3        1 R56     -0.367800
      8 S15         2.5790    1.1930    3.0030 s4        1 R56      1.580500
      9 O16         2.6420    2.5270    2.7920 o         1 R56     -0.403900
     10 O17         3.6290    0.3690    2.7780 o         1 R56     -0.403900
     11 N18         3.4720    1.6390    5.3140 n8        1 R56     -0.996800
     12 C20         4.7390    0.9730    5.6150 c3        1 R56      0.109500
     13 C22         5.6630    1.8790    6.4620 c         1 R56      0.682500
     14 O23         5.8250    3.0750    6.1620 o         1 R56     -0.608500
     15 N24         6.3830    1.3580    7.5480 n         1 R56     -0.453800
     16 C25         6.0640    0.0550    8.1150 c3        1 R56      0.147800
     17 C27         4.6890   -0.4570    7.7090 c3        1 R56     -0.095400
     18 C30         4.5690   -0.4330    6.2040 c3        1 R56     -0.097400
     19 S33         6.1980    0.1720    9.9160 ss        1 R56     -0.148200
     20 C34         6.8650    1.8110    9.9110 c3        1 R56     -0.076300
     21 C37         7.0660    2.2480    8.4520 c3        1 R56      0.079700
     22 C39         8.5910    2.2470    8.1570 c         1 R56      0.535100
     23 O40         9.2890    1.4640    7.5560 o         1 R56     -0.360100
     24 N41         9.3430    3.4820    8.7460 ny        1 R56     -0.701800
     25 C43        10.8150    3.2840    8.8070 c3        1 R56      0.103800
     26 C46        11.5980    4.4900    9.3420 c3        1 R56     -0.133400
     27 C49        13.0920    4.1360    9.3420 c3        1 R56      0.108800
     28 N52        13.9500    5.2640    9.8600 ny        1 R56     -0.790000
     29 C54        15.4350    4.9240    9.8770 c2        1 R56      0.621100
     30 N55        16.3060    6.0240   10.4270 nz        1 R56     -0.820600
     31 N58        16.0160    3.8640    9.4980 n2        1 R56     -0.572100
     32 H1         -1.5740   -0.4980   -1.1280 ha        1 R56      0.181000
     33 H3         -0.0580   -2.2330   -0.1570 ha        1 R56      0.177500
     34 H5          1.1980   -1.7670    1.9360 ha        1 R56      0.147000
     35 H8         -0.5740    2.2020    2.0970 ha        1 R56      0.147000
     36 H10        -1.8240    1.7200    0.0040 ha        1 R56      0.177500
     37 H121        1.2000   -0.4400    3.9860 h1        1 R56      0.188700
     38 H122        0.4720    1.1830    4.0500 h1        1 R56      0.188700
     39 HNI         3.6190    2.6360    5.2200 hn        1 R56      0.407800
     40 H20         5.2850    0.8700    4.6200 h1        1 R56      0.129700
     41 H25         6.8480   -0.6800    7.7650 h2        1 R56      0.115700
     42 H271        4.5770   -1.5120    8.0840 hc        1 R56      0.099700
     43 H272        3.8780    0.1540    8.1870 hc        1 R56      0.099700
     44 H301        5.3630   -1.0910    5.7540 hc        1 R56      0.090200
     45 H302        3.5820   -0.8760    5.9040 hc        1 R56      0.090200
     46 H341        6.1430    2.5070   10.4130 h1        1 R56      0.100200
     47 H342        7.8110    1.8180   10.5020 h1        1 R56      0.100200
     48 H37         6.6970    3.3090    8.2820 h1        1 R56      0.133700
     49 HN          9.1200    4.2900    8.1510 hn        1 R56      0.464300
     50 H431       11.1640    3.0330    7.7590 hx        1 R56      0.130200
     51 H432       11.0050    2.3800    9.4590 hx        1 R56      0.130200
     52 H461       11.4110    5.3870    8.6900 hc        1 R56      0.100700
     53 H462       11.2560    4.7370   10.3840 hc        1 R56      0.100700
     54 H491       13.2640    3.2350   10.0040 hx        1 R56      0.134200
     55 H492       13.4210    3.9040    8.2850 hx        1 R56      0.134200
     56 HN2        13.6390    5.4940   10.8180 hn        1 R56      0.486800
     57 HN51       16.0700    6.2290   11.4120 hn        1 R56      0.523467
     58 HN52       17.3090    5.7130   10.4000 hn        1 R56      0.523467
     59 HN8        15.6000    3.0380    9.1100 hn        1 R56      0.550400
     60 H182        2.8050    1.4780    6.0500 hn        1 R56      0.407800
     61 H412        8.9690    3.6630    9.6840 hn        1 R56      0.464300
     62 H522       13.7970    6.0910    9.2590 hn        1 R56      0.486800
     63 H553       16.2310    6.8810    9.8540 hn        1 R56      0.523467
@<TRIPOS>BOND
     1    1    2 ar  
     2    1    6 ar  
     3    1   32 1   
     4    2    3 ar  
     5    2   33 1   
     6    3    4 ar  
     7    3   34 1   
     8    4    5 ar  
     9    4    7 1   
    10    5    6 ar  
    11    5   35 1   
    12    6   36 1   
    13    7    8 1   
    14    7   37 1   
    15    7   38 1   
    16    8    9 1   
    17    8   10 1   
    18   11   12 1   
    19   11   39 1   
    20   11   60 1   
    21   12   13 1   
    22   12   18 1   
    23   12   40 1   
    24   13   14 2   
    25   13   15 1   
    26   15   16 1   
    27   15   21 1   
    28   16   17 1   
    29   16   19 1   
    30   16   41 1   
    31   17   18 1   
    32   17   42 1   
    33   17   43 1   
    34   18   44 1   
    35   18   45 1   
    36   19   20 1   
    37   20   21 1   
    38   20   46 1   
    39   20   47 1   
    40   21   22 1   
    41   21   48 1   
    42   22   23 2   
    43   22   24 1   
    44   24   25 1   
    45   24   49 1   
    46   24   61 1   
    47   25   26 1   
    48   25   50 1   
    49   25   51 1   
    50   26   27 1   
    51   26   52 1   
    52   26   53 1   
    53   27   28 1   
    54   27   54 1   
    55   27   55 1   
    56   28   29 1   
    57   28   56 1   
    58   28   62 1   
    59   29   30 1   
    60   29   31 2   
    61   30   57 1   
    62   30   58 1   
    63   30   63 1   
    64   31   59 1   
@<TRIPOS>SUBSTRUCTURE
     1 R56         1 TEMP              0 ****  ****    0 ROOT
