@<TRIPOS>MOLECULE
R56
   63    64     1     0     0
SMALL
bcc


@<TRIPOS>ATOM
      1 C1         -0.9690   -0.3180   -0.2340 ca        1 R56     -0.044000
      2 C3         -0.1390   -1.2870    0.3360 ca        1 R56     -0.110500
      3 C5          0.5650   -1.0060    1.5040 ca        1 R56     -0.091000
      4 C7          0.4550    0.2620    2.0970 ca        1 R56     -0.228300
      5 C8         -0.3970    1.2260    1.5360 ca        1 R56     -0.091000
      6 C10        -1.0960    0.9370    0.3680 ca        1 R56     -0.110500
      7 C12         1.1580    0.5460    3.3870 c3        1 R56     -0.367800
      8 S15         2.6020    1.1760    2.9790 s4        1 R56      1.580500
      9 O16         2.6850    2.5040    2.7400 o         1 R56     -0.403900
     10 O17         3.6420    0.3330    2.7820 o         1 R56     -0.403900
     11 N18         3.4790    1.6590    5.2880 n3        1 R56     -0.996800
     12 C20         4.7340    0.9830    5.6160 c3        1 R56      0.109500
     13 C22         5.6620    1.8940    6.4530 c         1 R56      0.682500
     14 O23         5.8430    3.0800    6.1300 o         1 R56     -0.608500
     15 N24         6.3640    1.3860    7.5570 n         1 R56     -0.453800
     16 C25         6.0220    0.1000    8.1470 c3        1 R56      0.147800
     17 C27         4.6440   -0.4020    7.7380 c3        1 R56     -0.095400
     18 C30         4.5390   -0.4080    6.2320 c3        1 R56     -0.097400
     19 S33         6.1390    0.2520    9.9470 ss        1 R56     -0.148200
     20 C34         6.8300    1.8820    9.9150 c3        1 R56     -0.076300
     21 C37         7.0500    2.2850    8.4480 c3        1 R56      0.079700
     22 C39         8.5770    2.2580    8.1690 c         1 R56      0.535100
     23 O40         9.2710    1.4540    7.5910 o         1 R56     -0.360100
     24 N41         9.3410    3.4950    8.7410 n4        1 R56     -0.701800
     25 C43        10.8100    3.2780    8.8170 c3        1 R56      0.103800
     26 C46        11.6040    4.4840    9.3370 c3        1 R56     -0.133400
     27 C49        13.0930    4.1110    9.3560 c3        1 R56      0.108800
     28 N52        13.9620    5.2370    9.8610 n4        1 R56     -0.790000
     29 C54        15.4420    4.8780    9.8970 c2        1 R56      0.621100
     30 N55        16.3220    5.9770   10.4340 n4        1 R56     -0.820600
     31 N58        16.0120    3.8050    9.5410 n2        1 R56     -0.572100
     32 H1         -1.5340   -0.5480   -1.1550 ha        1 R56      0.181000
     33 H3         -0.0510   -2.2830   -0.1320 ha        1 R56      0.177500
     34 H5          1.1910   -1.7880    1.9630 ha        1 R56      0.147000
     35 H8         -0.5280    2.2080    2.0190 ha        1 R56      0.147000
     36 H10        -1.7640    1.6960   -0.0740 ha        1 R56      0.177500
     37 H121        0.4850    1.2170    4.0050 h1        1 R56      0.188700
     38 H122        1.1910   -0.4160    3.9840 h1        1 R56      0.188700
     39 HNI         3.6400    2.6520    5.1750 hn        1 R56      0.407800
     40 H20         5.2880    0.8520    4.6280 h1        1 R56      0.129700
     41 H25         6.7990   -0.6530    7.8210 h2        1 R56      0.115700
     42 H271        4.5140   -1.4480    8.1340 hc        1 R56      0.099700
     43 H272        3.8370    0.2300    8.1950 hc        1 R56      0.099700
     44 H301        3.5490   -0.8450    5.9310 hc        1 R56      0.090200
     45 H302        5.3290   -1.0860    5.8040 hc        1 R56      0.090200
     46 H341        6.1120    2.5980   10.3950 h1        1 R56      0.100200
     47 H342        7.7690    1.8880   10.5140 h1        1 R56      0.100200
     48 H37         6.6970    3.3480    8.2530 h1        1 R56      0.133700
     49 HN          9.1330    4.2930    8.1280 hn        1 R56      0.464300
     50 H431       11.1640    3.0030    7.7770 hx        1 R56      0.130200
     51 H432       10.9830    2.3840    9.4880 hx        1 R56      0.130200
     52 H461       11.4330    5.3720    8.6680 hc        1 R56      0.100700
     53 H462       11.2570    4.7540   10.3720 hc        1 R56      0.100700
     54 H491       13.2480    3.2200   10.0350 hx        1 R56      0.134200
     55 H492       13.4280    3.8560    8.3060 hx        1 R56      0.134200
     56 HN2        13.6450    5.4880   10.8130 hn        1 R56      0.486800
     57 HN51       17.3210    5.6530   10.4210 hn        1 R56      0.523467
     58 HN52       16.2620    6.8240    9.8460 hn        1 R56      0.523467
     59 HN8        15.5880    2.9770    9.1640 hn        1 R56      0.550400
     60 H182        2.8040    1.5230    6.0210 hn        1 R56      0.407800
     61 H412        8.9620    3.6980    9.6720 hn        1 R56      0.464300
     62 H522       13.8240    6.0550    9.2440 hn        1 R56      0.486800
     63 H553       16.0810    6.2020   11.4140 hn        1 R56      0.523467
@<TRIPOS>BOND
     1    1    2 ar  
     2    1    6 ar  
     3    1   32 1   
     4    2    3 ar  
     5    2   33 1   
     6    3    4 ar  
     7    3   34 1   
     8    4    5 ar  
     9    4    7 1   
    10    5    6 ar  
    11    5   35 1   
    12    6   36 1   
    13    7    8 1   
    14    7   37 1   
    15    7   38 1   
    16    8    9 1   
    17    8   10 1   
    18   11   12 1   
    19   11   39 1   
    20   11   60 1   
    21   12   13 1   
    22   12   18 1   
    23   12   40 1   
    24   13   14 2   
    25   13   15 1   
    26   15   16 1   
    27   15   21 1   
    28   16   17 1   
    29   16   19 1   
    30   16   41 1   
    31   17   18 1   
    32   17   42 1   
    33   17   43 1   
    34   18   44 1   
    35   18   45 1   
    36   19   20 1   
    37   20   21 1   
    38   20   46 1   
    39   20   47 1   
    40   21   22 1   
    41   21   48 1   
    42   22   23 2   
    43   22   24 1   
    44   24   25 1   
    45   24   49 1   
    46   24   61 1   
    47   25   26 1   
    48   25   50 1   
    49   25   51 1   
    50   26   27 1   
    51   26   52 1   
    52   26   53 1   
    53   27   28 1   
    54   27   54 1   
    55   27   55 1   
    56   28   29 1   
    57   28   56 1   
    58   28   62 1   
    59   29   30 1   
    60   29   31 2   
    61   30   57 1   
    62   30   58 1   
    63   30   63 1   
    64   31   59 1   
@<TRIPOS>SUBSTRUCTURE
     1 R56         1 TEMP              0 ****  ****    0 ROOT
