@<TRIPOS>MOLECULE
R56
   59    61     1     0     0
SMALL
bcc


@<TRIPOS>ATOM
      1 C1         -3.0750   -0.6120   -7.9280 ca        1 R56     -0.119000
      2 C3         -3.4490    0.1650   -6.8310 ca        1 R56     -0.126500
      3 C5         -2.5380    0.4150   -5.8070 ca        1 R56     -0.113500
      4 C7         -1.2430   -0.1160   -5.8720 ca        1 R56     -0.078300
      5 C8         -0.8720   -0.8950   -6.9740 ca        1 R56     -0.113500
      6 C10        -1.7870   -1.1430   -7.9970 ca        1 R56     -0.126500
      7 C12        -0.2640    0.1760   -4.7970 c3        1 R56     -0.249300
      8 S15        -0.6760   -0.5790   -3.2870 s6        1 R56      1.451900
      9 O16        -0.5750   -1.9700   -3.4410 o         1 R56     -0.635800
     10 O17        -1.8890   -0.0260   -2.8340 o         1 R56     -0.635800
     11 N18         0.5510   -0.0620   -2.3470 n3        1 R56     -0.910100
     12 C20         0.4330    0.9390   -1.3250 c3        1 R56      0.185500
     13 C22         0.7460    0.3140    0.0580 c         1 R56      0.686500
     14 O23        -0.0490   -0.5030    0.5590 o         1 R56     -0.632500
     15 N24         1.8940    0.6730    0.7460 n         1 R56     -0.459800
     16 C25         2.8690    1.6100    0.2340 c3        1 R56      0.192800
     17 C27         2.7380    1.9400   -1.2450 c3        1 R56     -0.085400
     18 C30         1.2860    2.1880   -1.5820 c3        1 R56     -0.099400
     19 S33         4.5120    0.9250    0.5850 ss        1 R56     -0.317200
     20 C34         3.9170   -0.1930    1.8340 c3        1 R56     -0.014300
     21 C37         2.3830   -0.1450    1.8490 c3        1 R56      0.033700
     22 C39         1.8630    0.3470    3.2260 c         1 R56      0.649100
     23 O40         2.6510    0.6420    4.1440 o         1 R56     -0.605100
     24 N41         0.4980    0.4330    3.3690 n         1 R56     -0.554900
     25 C43        -0.1210    0.7640    4.6230 c3        1 R56      0.087000
     26 C46        -0.7910   -0.4210    5.3250 c3        1 R56     -0.116400
     27 C49        -1.4430    0.0790    6.6130 c3        1 R56      0.180800
     28 N52        -2.1640   -0.9600    7.3160 nh        1 R56     -0.841200
     29 C54        -2.5510   -0.6710    8.6720 c2        1 R56      0.743100
     30 N55        -2.7250   -1.8320    9.5040 nh        1 R56     -0.881800
     31 N58        -2.7700    0.5160    9.1800 n2        1 R56     -0.875100
     32 H1         -3.7960   -0.8090   -8.7350 ha        1 R56      0.135000
     33 H3         -4.4660    0.5800   -6.7700 ha        1 R56      0.136000
     34 H5         -2.8410    1.0130   -4.9320 ha        1 R56      0.142500
     35 H8          0.1410   -1.3190   -7.0340 ha        1 R56      0.142500
     36 H10        -1.4910   -1.7600   -8.8570 ha        1 R56      0.136000
     37 H121       -0.2050    1.2930   -4.6810 h1        1 R56      0.109200
     38 H122        0.7570   -0.1450   -5.1390 h1        1 R56      0.109200
     39 HNI         1.4510   -0.4760   -2.3980 hn        1 R56      0.448800
     40 H20        -0.6580    1.2580   -1.2690 h1        1 R56      0.115700
     41 H25         2.7770    2.5640    0.8310 h2        1 R56      0.087700
     42 H271        3.3470    2.8570   -1.4600 hc        1 R56      0.070200
     43 H272        3.1520    1.1060   -1.8710 hc        1 R56      0.070200
     44 H301        0.8850    3.0190   -0.9440 hc        1 R56      0.064700
     45 H302        1.1900    2.5090   -2.6520 hc        1 R56      0.064700
     46 H341        4.3390    0.1000    2.8290 h1        1 R56      0.103700
     47 H342        4.2690   -1.2220    1.5890 h1        1 R56      0.103700
     48 H37         1.9770   -1.1970    1.7180 h1        1 R56      0.100700
     49 HN         -0.0900    0.0610    2.6560 hn        1 R56      0.336500
     50 H431       -0.9050    1.5510    4.4200 h1        1 R56      0.065200
     51 H432        0.6560    1.2080    5.3090 h1        1 R56      0.065200
     52 H461       -0.0270   -1.2070    5.5590 hc        1 R56      0.056700
     53 H462       -1.5620   -0.8820    4.6550 hc        1 R56      0.056700
     54 H491       -2.1840    0.8900    6.3530 h1        1 R56      0.042200
     55 H492       -0.6420    0.5460    7.2590 h1        1 R56      0.042200
     56 HN2        -1.7520   -1.8630    7.1940 hn        1 R56      0.400800
     57 HN51       -3.0810   -1.5980   10.4090 hn        1 R56      0.391300
     58 HN52       -3.2910   -2.5300    9.0650 hn        1 R56      0.391300
     59 HN8        -2.5360    1.2910    8.6010 hn        1 R56      0.393400
@<TRIPOS>BOND
     1    1    2 ar  
     2    1    6 ar  
     3    1   32 1   
     4    2    3 ar  
     5    2   33 1   
     6    3    4 ar  
     7    3   34 1   
     8    4    5 ar  
     9    4    7 1   
    10    5    6 ar  
    11    5   35 1   
    12    6   36 1   
    13    7    8 1   
    14    7   37 1   
    15    7   38 1   
    16    8    9 2   
    17    8   10 2   
    18    8   11 1   
    19   11   12 1   
    20   11   39 1   
    21   12   13 1   
    22   12   18 1   
    23   12   40 1   
    24   13   14 2   
    25   13   15 1   
    26   15   16 1   
    27   15   21 1   
    28   16   17 1   
    29   16   19 1   
    30   16   41 1   
    31   17   18 1   
    32   17   42 1   
    33   17   43 1   
    34   18   44 1   
    35   18   45 1   
    36   19   20 1   
    37   20   21 1   
    38   20   46 1   
    39   20   47 1   
    40   21   22 1   
    41   21   48 1   
    42   22   23 2   
    43   22   24 1   
    44   24   25 1   
    45   24   49 1   
    46   25   26 1   
    47   25   50 1   
    48   25   51 1   
    49   26   27 1   
    50   26   52 1   
    51   26   53 1   
    52   27   28 1   
    53   27   54 1   
    54   27   55 1   
    55   28   29 1   
    56   28   56 1   
    57   29   30 1   
    58   29   31 2   
    59   30   57 1   
    60   30   58 1   
    61   31   59 1   
@<TRIPOS>SUBSTRUCTURE
     1 R56         1 TEMP              0 ****  ****    0 ROOT
