@<TRIPOS>MOLECULE
R56
   63    64     1     0     0
SMALL
bcc


@<TRIPOS>ATOM
      1 C1         -0.9810   -0.3330   -0.2150 ca        1 R56     -0.044000
      2 C3         -0.1480   -1.3000    0.3540 ca        1 R56     -0.110500
      3 C5          0.5570   -1.0180    1.5200 ca        1 R56     -0.091000
      4 C7          0.4480    0.2510    2.1120 ca        1 R56     -0.228300
      5 C8         -0.4060    1.2140    1.5530 ca        1 R56     -0.091000
      6 C10        -1.1080    0.9230    0.3860 ca        1 R56     -0.110500
      7 C12         1.1540    0.5360    3.4000 c3        1 R56     -0.367800
      8 S15         2.5960    1.1680    2.9880 s4        1 R56      1.580500
      9 O16         2.6780    2.4960    2.7470 o         1 R56     -0.403900
     10 O17         3.6370    0.3260    2.7890 o         1 R56     -0.403900
     11 N18         3.4780    1.6540    5.2940 n3        1 R56     -0.996800
     12 C20         4.7340    0.9800    5.6200 c3        1 R56      0.109500
     13 C22         5.6630    1.8920    6.4550 c         1 R56      0.682500
     14 O23         5.8430    3.0790    6.1300 o         1 R56     -0.608500
     15 N24         6.3670    1.3860    7.5590 n         1 R56     -0.453800
     16 C25         6.0270    0.1000    8.1500 c3        1 R56      0.147800
     17 C27         4.6490   -0.4040    7.7440 c3        1 R56     -0.095400
     18 C30         4.5420   -0.4110    6.2370 c3        1 R56     -0.097400
     19 S33         6.1480    0.2540    9.9500 ss        1 R56     -0.148200
     20 C34         6.8360    1.8840    9.9150 c3        1 R56     -0.076300
     21 C37         7.0540    2.2870    8.4480 c3        1 R56      0.079700
     22 C39         8.5810    2.2600    8.1660 c         1 R56      0.535100
     23 O40         9.2740    1.4560    7.5880 o         1 R56     -0.360100
     24 N41         9.3440    3.4980    8.7350 n4        1 R56     -0.701800
     25 C43        10.8130    3.2830    8.8110 c3        1 R56      0.103800
     26 C46        11.6070    4.4900    9.3270 c3        1 R56     -0.133400
     27 C49        13.0970    4.1180    9.3450 c3        1 R56      0.108800
     28 N52        13.9650    5.2450    9.8470 n4        1 R56     -0.790000
     29 C54        15.4460    4.8880    9.8820 c2        1 R56      0.621100
     30 N55        16.3260    5.9880   10.4150 n4        1 R56     -0.820600
     31 N58        16.0160    3.8130    9.5280 n2        1 R56     -0.572100
     32 H1         -1.5490   -0.5640   -1.1340 ha        1 R56      0.181000
     33 H3         -0.0610   -2.2960   -0.1130 ha        1 R56      0.177500
     34 H5          1.1860   -1.7980    1.9780 ha        1 R56      0.147000
     35 H8         -0.5360    2.1960    2.0350 ha        1 R56      0.147000
     36 H10        -1.7780    1.6810   -0.0550 ha        1 R56      0.177500
     37 H121        1.1900   -0.4250    3.9970 h1        1 R56      0.188700
     38 H122        0.4820    1.2080    4.0190 h1        1 R56      0.188700
     39 HNI         2.8040    1.5180    6.0290 hn        1 R56      0.407800
     40 H20         5.2860    0.8480    4.6320 h1        1 R56      0.129700
     41 H25         6.8050   -0.6520    7.8230 h2        1 R56      0.115700
     42 H271        4.5210   -1.4490    8.1410 hc        1 R56      0.099700
     43 H272        3.8420    0.2270    8.2020 hc        1 R56      0.099700
     44 H301        5.3320   -1.0890    5.8090 hc        1 R56      0.090200
     45 H302        3.5520   -0.8490    5.9390 hc        1 R56      0.090200
     46 H341        6.1190    2.6000   10.3960 h1        1 R56      0.100200
     47 H342        7.7770    1.8910   10.5130 h1        1 R56      0.100200
     48 H37         6.7000    3.3490    8.2520 h1        1 R56      0.133700
     49 HN          9.1360    4.2950    8.1220 hn        1 R56      0.464300
     50 H431       11.1660    3.0060    7.7710 hx        1 R56      0.130200
     51 H432       10.9880    2.3900    9.4830 hx        1 R56      0.130200
     52 H461       11.2610    4.7620   10.3620 hc        1 R56      0.100700
     53 H462       11.4350    5.3760    8.6570 hc        1 R56      0.100700
     54 H491       13.2530    3.2280   10.0260 hx        1 R56      0.134200
     55 H492       13.4300    3.8610    8.2960 hx        1 R56      0.134200
     56 HN2        13.8260    6.0620    9.2290 hn        1 R56      0.486800
     57 HN51       16.0870    6.2150   11.3950 hn        1 R56      0.523467
     58 HN52       16.2650    6.8340    9.8250 hn        1 R56      0.523467
     59 HN8        15.5920    2.9850    9.1540 hn        1 R56      0.550400
     60 H182        3.6380    2.6470    5.1800 hn        1 R56      0.407800
     61 H412        8.9660    3.7030    9.6660 hn        1 R56      0.464300
     62 H522       13.6500    5.4980   10.7980 hn        1 R56      0.486800
     63 H553       17.3250    5.6650   10.4020 hn        1 R56      0.523467
@<TRIPOS>BOND
     1    1    2 ar  
     2    1    6 ar  
     3    1   32 1   
     4    2    3 ar  
     5    2   33 1   
     6    3    4 ar  
     7    3   34 1   
     8    4    5 ar  
     9    4    7 1   
    10    5    6 ar  
    11    5   35 1   
    12    6   36 1   
    13    7    8 1   
    14    7   37 1   
    15    7   38 1   
    16    8    9 1   
    17    8   10 1   
    18   11   12 1   
    19   11   39 1   
    20   11   60 1   
    21   12   13 1   
    22   12   18 1   
    23   12   40 1   
    24   13   14 2   
    25   13   15 1   
    26   15   16 1   
    27   15   21 1   
    28   16   17 1   
    29   16   19 1   
    30   16   41 1   
    31   17   18 1   
    32   17   42 1   
    33   17   43 1   
    34   18   44 1   
    35   18   45 1   
    36   19   20 1   
    37   20   21 1   
    38   20   46 1   
    39   20   47 1   
    40   21   22 1   
    41   21   48 1   
    42   22   23 2   
    43   22   24 1   
    44   24   25 1   
    45   24   49 1   
    46   24   61 1   
    47   25   26 1   
    48   25   50 1   
    49   25   51 1   
    50   26   27 1   
    51   26   52 1   
    52   26   53 1   
    53   27   28 1   
    54   27   54 1   
    55   27   55 1   
    56   28   29 1   
    57   28   56 1   
    58   28   62 1   
    59   29   30 1   
    60   29   31 2   
    61   30   57 1   
    62   30   58 1   
    63   30   63 1   
    64   31   59 1   
@<TRIPOS>SUBSTRUCTURE
     1 R56         1 TEMP              0 ****  ****    0 ROOT
