@<TRIPOS>MOLECULE
R57
   40    42     1     0     0
SMALL
bcc


@<TRIPOS>ATOM
      1 FAU         2.0130   -2.5790    0.0890 f         1 R57     -0.143900
      2 CAU         2.4020   -1.3360   -0.2840 ca        1 R57      0.085900
      3 CAV         3.0890   -0.4940    0.6260 ca        1 R57      0.075100
      4 OAW         3.3070   -1.0350    1.8810 os        1 R57     -0.324900
      5 CAX         4.0960   -0.2450    2.7630 c3        1 R57      0.115700
      6 CAY         3.4830    0.7840    0.2260 ca        1 R57     -0.176000
      7 CAZ         3.2000    1.2360   -1.0620 ca        1 R57     -0.098000
      8 CAT         2.1270   -0.8690   -1.5780 ca        1 R57     -0.141000
      9 CAS         2.5220    0.4140   -1.9670 ca        1 R57     -0.118300
     10 CAR         2.1600    0.8580   -3.3610 c3        1 R57      0.240100
     11 NAQ         2.8110    2.0320   -3.8770 nh        1 R57     -0.817900
     12 CAP         4.1150    1.9620   -4.3870 ca        1 R57      0.553900
     13 CAC         4.9630    3.1920   -4.3100 ca        1 R57      0.280500
     14 CAB         4.4170    4.4010   -3.5030 c         1 R57      0.827100
     15 OAA         4.3420    5.5090   -4.0730 o         1 R57     -0.795800
     16 OBA         4.0470    4.1340   -2.3240 o         1 R57     -0.795800
     17 NAD         6.1540    3.2360   -4.8590 nb        1 R57     -0.622000
     18 CAE         6.6110    2.1040   -5.5270 ca        1 R57      0.278300
     19 CAF         7.8890    2.1130   -6.1550 ca        1 R57     -0.145300
     20 CAG         8.3540    0.9950   -6.8060 ca        1 R57     -0.131000
     21 NAO         4.5620    0.8510   -4.9940 nb        1 R57     -0.739000
     22 CAN         5.8110    0.9140   -5.5840 ca        1 R57      0.311300
     23 CAM         6.3240   -0.2300   -6.2630 ca        1 R57     -0.119300
     24 CAH         7.5660   -0.1750   -6.8560 ca        1 R57     -0.176300
     25 CAI         8.1280   -1.3940   -7.5700 c3        1 R57      0.688200
     26 FAJ         7.1950   -2.3150   -7.9860 f         1 R57     -0.248633
     27 FAK         8.8380   -1.1160   -8.7150 f         1 R57     -0.248633
     28 FAL         9.0090   -2.1420   -6.8230 f         1 R57     -0.248633
     29 H1          4.1910   -0.8880    3.6740 h1        1 R57      0.041367
     30 H2          3.5720    0.7110    3.0090 h1        1 R57      0.041367
     31 H3          5.1000   -0.0360    2.3200 h1        1 R57      0.041367
     32 H4          4.0210    1.4480    0.9180 ha        1 R57      0.144000
     33 H5          3.5330    2.2580   -1.3460 ha        1 R57      0.206000
     34 H6          1.6010   -1.5290   -2.2830 ha        1 R57      0.141000
     35 H7          2.3200   -0.0080   -4.0660 h1        1 R57      0.064700
     36 H8          1.0530    1.0930   -3.3570 h1        1 R57      0.064700
     37 H9          2.6700    2.8480   -3.2990 hn        1 R57      0.452800
     38 H11         8.4980    3.0300   -6.1130 ha        1 R57      0.150000
     39 H12         9.3380    0.9980   -7.2980 ha        1 R57      0.135000
     40 H13         5.7170   -1.1490   -6.3120 ha        1 R57      0.154000
@<TRIPOS>BOND
     1    1    2 1   
     2    2    3 ar  
     3    2    8 ar  
     4    3    4 1   
     5    3    6 ar  
     6    4    5 1   
     7    5   29 1   
     8    5   30 1   
     9    5   31 1   
    10    6    7 ar  
    11    6   32 1   
    12    7    9 ar  
    13    7   33 1   
    14    8    9 ar  
    15    8   34 1   
    16    9   10 1   
    17   10   11 1   
    18   10   35 1   
    19   10   36 1   
    20   11   12 1   
    21   11   37 1   
    22   12   13 ar  
    23   12   21 ar  
    24   13   14 1   
    25   13   17 ar  
    26   14   15 1   
    27   14   16 1   
    28   17   18 ar  
    29   18   19 ar  
    30   18   22 ar  
    31   19   20 ar  
    32   19   38 1   
    33   20   24 ar  
    34   20   39 1   
    35   21   22 ar  
    36   22   23 ar  
    37   23   24 ar  
    38   23   40 1   
    39   24   25 1   
    40   25   26 1   
    41   25   27 1   
    42   25   28 1   
@<TRIPOS>SUBSTRUCTURE
     1 R57         1 TEMP              0 ****  ****    0 ROOT
