@<TRIPOS>MOLECULE
R57
   40    42     1     0     0
SMALL
bcc


@<TRIPOS>ATOM
      1 FAU         2.1770   -2.5870    0.2140 f         1 R57     -0.143900
      2 CAU         2.5150   -1.3410   -0.1980 ca        1 R57      0.085900
      3 CAV         3.1830   -0.4510    0.6800 ca        1 R57      0.075100
      4 OAW         3.4370   -0.9490    1.9460 os        1 R57     -0.324900
      5 CAX         4.2090   -0.1080    2.7950 c3        1 R57      0.115700
      6 CAY         3.5260    0.8300    0.2400 ca        1 R57     -0.176000
      7 CAZ         3.2100    1.2360   -1.0560 ca        1 R57     -0.098000
      8 CAT         2.2070   -0.9200   -1.4990 ca        1 R57     -0.141000
      9 CAS         2.5510    0.3660   -1.9290 ca        1 R57     -0.118300
     10 CAR         2.1550    0.7570   -3.3290 c3        1 R57      0.240100
     11 NAQ         2.7560    1.9400   -3.8850 nu        1 R57     -0.817900
     12 CAP         4.0550    1.9040   -4.4100 ca        1 R57      0.553900
     13 CAC         4.8580    3.1660   -4.3780 ca        1 R57      0.280500
     14 CAB         4.2770    4.3760   -3.5970 c         1 R57      0.827100
     15 OAA         4.1540    5.4640   -4.1960 o         1 R57     -0.795800
     16 OBA         3.9330    4.1270   -2.4060 o         1 R57     -0.795800
     17 NAD         6.0390    3.2390   -4.9430 nb        1 R57     -0.622000
     18 CAE         6.5300    2.1060   -5.5870 ca        1 R57      0.278300
     19 CAF         7.7980    2.1450   -6.2320 ca        1 R57     -0.145300
     20 CAG         8.2960    1.0270   -6.8590 ca        1 R57     -0.131000
     21 NAO         4.5350    0.7930   -4.9930 nb        1 R57     -0.739000
     22 CAN         5.7740    0.8870   -5.6010 ca        1 R57      0.311300
     23 CAM         6.3200   -0.2570   -6.2550 ca        1 R57     -0.119300
     24 CAH         7.5530   -0.1730   -6.8660 ca        1 R57     -0.176300
     25 CAI         8.1500   -1.3900   -7.5550 c3        1 R57      0.688200
     26 FAJ         7.2470   -2.3570   -7.9300 f         1 R57     -0.248633
     27 FAK         8.8330   -1.1170   -8.7180 f         1 R57     -0.248633
     28 FAL         9.0690   -2.0820   -6.8000 f         1 R57     -0.248633
     29 H1          5.1990    0.1250    2.3320 h1        1 R57      0.041367
     30 H2          4.3390   -0.7220    3.7210 h1        1 R57      0.041367
     31 H3          3.6540    0.8350    3.0230 h1        1 R57      0.041367
     32 H4          4.0480    1.5310    0.9070 ha        1 R57      0.144000
     33 H5          3.5010    2.2600   -1.3710 ha        1 R57      0.206000
     34 H6          1.6970   -1.6180   -2.1790 ha        1 R57      0.141000
     35 H7          1.0400    0.9520   -3.3160 h1        1 R57      0.064700
     36 H8          2.3380   -0.1210   -4.0120 h1        1 R57      0.064700
     37 H9          2.5920    2.7660   -3.3270 hn        1 R57      0.452800
     38 H11         8.3740    3.0840   -6.2240 ha        1 R57      0.150000
     39 H12         9.2730    1.0520   -7.3640 ha        1 R57      0.135000
     40 H13         5.7470   -1.1980   -6.2720 ha        1 R57      0.154000
@<TRIPOS>BOND
     1    1    2 1   
     2    2    3 ar  
     3    2    8 ar  
     4    3    4 1   
     5    3    6 ar  
     6    4    5 1   
     7    5   29 1   
     8    5   30 1   
     9    5   31 1   
    10    6    7 ar  
    11    6   32 1   
    12    7    9 ar  
    13    7   33 1   
    14    8    9 ar  
    15    8   34 1   
    16    9   10 1   
    17   10   11 1   
    18   10   35 1   
    19   10   36 1   
    20   11   12 1   
    21   11   37 1   
    22   12   13 ar  
    23   12   21 ar  
    24   13   14 1   
    25   13   17 ar  
    26   14   15 1   
    27   14   16 1   
    28   17   18 ar  
    29   18   19 ar  
    30   18   22 ar  
    31   19   20 ar  
    32   19   38 1   
    33   20   24 ar  
    34   20   39 1   
    35   21   22 ar  
    36   22   23 ar  
    37   23   24 ar  
    38   23   40 1   
    39   24   25 1   
    40   25   26 1   
    41   25   27 1   
    42   25   28 1   
@<TRIPOS>SUBSTRUCTURE
     1 R57         1 TEMP              0 ****  ****    0 ROOT
