@<TRIPOS>MOLECULE
R58
   43    45     1     0     0
SMALL
bcc


@<TRIPOS>ATOM
      1 FAL        -0.1250   -0.2090   -0.1560 f         1 R58     -0.249633
      2 CAI         1.2340   -0.0650    0.0090 c3        1 R58      0.688200
      3 FAJ         1.3940   -0.0850    1.3750 f         1 R58     -0.249633
      4 FAK         1.7330   -1.2820   -0.3920 f         1 R58     -0.249633
      5 CAH         1.8340    1.1390   -0.7000 ca        1 R58     -0.175300
      6 CAG         2.1460    1.0250   -2.0710 ca        1 R58     -0.137000
      7 CAF         2.6760    2.0990   -2.7490 ca        1 R58     -0.143300
      8 CAM         2.0490    2.3120   -0.0090 ca        1 R58     -0.128300
      9 CAN         2.5970    3.4420   -0.6840 ca        1 R58      0.320300
     10 CAE         2.9150    3.3300   -2.0790 ca        1 R58      0.272300
     11 NAD         3.4540    4.4100   -2.7750 nb        1 R58     -0.626000
     12 CAC         3.6710    5.5250   -2.1210 ca        1 R58      0.287500
     13 CAB         4.2740    6.7690   -2.8320 c         1 R58      0.826100
     14 OBA         3.5930    7.8270   -2.7380 o         1 R58     -0.791800
     15 OAA         5.3860    6.6390   -3.3880 o         1 R58     -0.791800
     16 NAO         2.7960    4.6190    0.0150 nb        1 R58     -0.772000
     17 CAP         3.3310    5.6500   -0.6670 ca        1 R58      0.573900
     18 NAQ         3.6380    6.8460   -0.0350 nu        1 R58     -0.843900
     19 CAR         3.1510    7.1140    1.2950 c3        1 R58      0.256100
     20 CAS         3.5000    8.4850    1.7970 ca        1 R58     -0.117300
     21 CAT         2.5390    9.2230    2.4920 ca        1 R58     -0.085000
     22 CAU         2.8440   10.4790    3.0160 ca        1 R58     -0.182000
     23 CAZ         4.7820    9.0210    1.6160 ca        1 R58     -0.085000
     24 CAY         5.1030   10.2740    2.1240 ca        1 R58     -0.182000
     25 CAV         4.1280   11.0020    2.8300 ca        1 R58      0.116100
     26 OAW         4.5560   12.2240    3.3210 os        1 R58     -0.336900
     27 CAX         3.5270   13.0820    3.8260 c3        1 R58      0.129400
     28 CAX3        4.1940   14.4060    4.1250 c3        1 R58     -0.099100
     29 H1          1.9650    0.0690   -2.5840 ha        1 R58      0.134000
     30 H2          2.9250    2.0150   -3.8190 ha        1 R58      0.149000
     31 H3          1.8060    2.3850    1.0630 ha        1 R58      0.151000
     32 H5          3.7230    7.6380   -0.6530 hn        1 R58      0.477800
     33 H6          3.6100    6.3560    1.9980 h1        1 R58      0.048700
     34 H7          2.0300    6.9760    1.3470 h1        1 R58      0.048700
     35 H8          1.5260    8.8150    2.6290 ha        1 R58      0.144500
     36 H9          2.0740   11.0410    3.5610 ha        1 R58      0.137000
     37 H10         5.5430    8.4510    1.0580 ha        1 R58      0.144500
     38 H11         6.1030   10.7060    1.9800 ha        1 R58      0.137000
     39 H12         3.0940   12.6300    4.7570 h1        1 R58      0.035700
     40 H13         2.7180   13.2000    3.0580 h1        1 R58      0.035700
     41 H14         3.4370   15.1120    4.5390 hc        1 R58      0.044367
     42 H15         5.0150   14.2700    4.8670 hc        1 R58      0.044367
     43 H16         4.6310   14.8400    3.1940 hc        1 R58      0.044367
@<TRIPOS>BOND
     1    1    2 1   
     2    2    3 1   
     3    2    4 1   
     4    2    5 1   
     5    5    6 ar  
     6    5    8 ar  
     7    6    7 ar  
     8    6   29 1   
     9    7   10 ar  
    10    7   30 1   
    11    8    9 ar  
    12    8   31 1   
    13    9   10 ar  
    14    9   16 ar  
    15   10   11 ar  
    16   11   12 ar  
    17   12   13 1   
    18   12   17 ar  
    19   13   14 1   
    20   13   15 1   
    21   16   17 ar  
    22   17   18 1   
    23   18   19 1   
    24   18   32 1   
    25   19   20 1   
    26   19   33 1   
    27   19   34 1   
    28   20   21 ar  
    29   20   23 ar  
    30   21   22 ar  
    31   21   35 1   
    32   22   25 ar  
    33   22   36 1   
    34   23   24 ar  
    35   23   37 1   
    36   24   25 ar  
    37   24   38 1   
    38   25   26 1   
    39   26   27 1   
    40   27   28 1   
    41   27   39 1   
    42   27   40 1   
    43   28   41 1   
    44   28   42 1   
    45   28   43 1   
@<TRIPOS>SUBSTRUCTURE
     1 R58         1 TEMP              0 ****  ****    0 ROOT
