@<TRIPOS>MOLECULE
R58
   43    45     1     0     0
SMALL
bcc


@<TRIPOS>ATOM
      1 FAL        -0.1340   -0.1970   -0.2000 f         1 R58     -0.249633
      2 CAI         1.2220   -0.0600   -0.0060 c3        1 R58      0.688200
      3 FAJ         1.3530   -0.0760    1.3630 f         1 R58     -0.249633
      4 FAK         1.7230   -1.2820   -0.3930 f         1 R58     -0.249633
      5 CAH         1.8440    1.1380   -0.7060 ca        1 R58     -0.175300
      6 CAG         2.1870    1.0170   -2.0690 ca        1 R58     -0.137000
      7 CAF         2.7380    2.0860   -2.7380 ca        1 R58     -0.143300
      8 CAM         2.0490    2.3130   -0.0150 ca        1 R58     -0.128300
      9 CAN         2.6160    3.4380   -0.6810 ca        1 R58      0.320300
     10 CAE         2.9670    3.3190   -2.0680 ca        1 R58      0.272300
     11 NAD         3.5270    4.3940   -2.7560 nb        1 R58     -0.626000
     12 CAC         3.7330    5.5100   -2.1020 ca        1 R58      0.287500
     13 CAB         4.3590    6.7480   -2.8030 c         1 R58      0.826100
     14 OBA         3.6800    7.8090   -2.7290 o         1 R58     -0.791800
     15 OAA         5.4820    6.6110   -3.3320 o         1 R58     -0.791800
     16 NAO         2.8050    4.6170    0.0170 nb        1 R58     -0.772000
     17 CAP         3.3600    5.6430   -0.6570 ca        1 R58      0.573900
     18 NAQ         3.6580    6.8400   -0.0230 nh        1 R58     -0.843900
     19 CAR         3.1410    7.1150    1.2950 c3        1 R58      0.256100
     20 CAS         3.4820    8.4880    1.7990 ca        1 R58     -0.117300
     21 CAT         2.5080    9.2320    2.4680 ca        1 R58     -0.085000
     22 CAU         2.8050   10.4900    2.9930 ca        1 R58     -0.182000
     23 CAZ         4.7700    9.0190    1.6450 ca        1 R58     -0.085000
     24 CAY         5.0830   10.2740    2.1550 ca        1 R58     -0.182000
     25 CAV         4.0940   11.0080    2.8340 ca        1 R58      0.116100
     26 OAW         4.5140   12.2300    3.3290 os        1 R58     -0.336900
     27 CAX         3.4770   13.0950    3.8040 c3        1 R58      0.129400
     28 CAX3        4.1400   14.4190    4.1100 c3        1 R58     -0.099100
     29 H1          2.0140    0.0600   -2.5820 ha        1 R58      0.134000
     30 H2          3.0100    1.9970   -3.8020 ha        1 R58      0.149000
     31 H3          1.7810    2.3910    1.0510 ha        1 R58      0.151000
     32 H5          3.7600    7.6290   -0.6410 hn        1 R58      0.477800
     33 H6          3.5820    6.3590    2.0120 h1        1 R58      0.048700
     34 H7          2.0180    6.9810    1.3220 h1        1 R58      0.048700
     35 H8          1.4910    8.8270    2.5830 ha        1 R58      0.144500
     36 H9          2.0240   11.0560    3.5170 ha        1 R58      0.137000
     37 H10         5.5420    8.4440    1.1080 ha        1 R58      0.144500
     38 H11         6.0880   10.7010    2.0320 ha        1 R58      0.137000
     39 H12         3.0200   12.6500    4.7280 h1        1 R58      0.035700
     40 H13         2.6860   13.2100    3.0160 h1        1 R58      0.035700
     41 H14         4.9430   14.2850    4.8730 hc        1 R58      0.044367
     42 H15         4.6000   14.8460    3.1880 hc        1 R58      0.044367
     43 H16         3.3750   15.1300    4.5030 hc        1 R58      0.044367
@<TRIPOS>BOND
     1    1    2 1   
     2    2    3 1   
     3    2    4 1   
     4    2    5 1   
     5    5    6 ar  
     6    5    8 ar  
     7    6    7 ar  
     8    6   29 1   
     9    7   10 ar  
    10    7   30 1   
    11    8    9 ar  
    12    8   31 1   
    13    9   10 ar  
    14    9   16 ar  
    15   10   11 ar  
    16   11   12 ar  
    17   12   13 1   
    18   12   17 ar  
    19   13   14 1   
    20   13   15 1   
    21   16   17 ar  
    22   17   18 1   
    23   18   19 1   
    24   18   32 1   
    25   19   20 1   
    26   19   33 1   
    27   19   34 1   
    28   20   21 ar  
    29   20   23 ar  
    30   21   22 ar  
    31   21   35 1   
    32   22   25 ar  
    33   22   36 1   
    34   23   24 ar  
    35   23   37 1   
    36   24   25 ar  
    37   24   38 1   
    38   25   26 1   
    39   26   27 1   
    40   27   28 1   
    41   27   39 1   
    42   27   40 1   
    43   28   41 1   
    44   28   42 1   
    45   28   43 1   
@<TRIPOS>SUBSTRUCTURE
     1 R58         1 TEMP              0 ****  ****    0 ROOT
