@<TRIPOS>MOLECULE
R5P
   23    22     1     0     0
SMALL
bcc


@<TRIPOS>ATOM
      1 C1         -3.8590   -0.7060   -0.9690 c         1 R5P      0.595900
      2 O1         -5.0760   -0.9020   -0.9090 o         1 R5P     -0.597100
      3 C2         -3.0910    0.0790    0.0790 c3        1 R5P      0.029100
      4 O2         -3.4300    1.4490   -0.0910 oh        1 R5P     -0.632800
      5 C3         -1.5780   -0.1840   -0.0770 c3        1 R5P      0.118100
      6 O3         -1.4170   -1.5810   -0.1440 oh        1 R5P     -0.691800
      7 C4         -0.7860    0.4130    1.1010 c3        1 R5P      0.079100
      8 O4         -0.7650    1.8310    0.9670 oh        1 R5P     -0.671800
      9 C5          0.6630   -0.1310    1.1680 c3        1 R5P      0.198400
     10 O5          1.4410    0.4620    0.2060 os        1 R5P     -0.574200
     11 P           2.0360   -0.6510   -0.9960 p5        1 R5P      1.327900
     12 O1P         0.7110   -0.9970   -1.6480 o         1 R5P     -0.920833
     13 O2P         2.9800    0.1920   -1.7940 o         1 R5P     -0.920833
     14 O3P         2.5970   -1.7530   -0.1470 o         1 R5P     -0.920833
     15 H11        -3.2340   -1.1250   -1.7890 h4        1 R5P      0.025200
     16 HC2        -3.4370   -0.2380    1.1020 h1        1 R5P      0.041700
     17 HO2        -2.6260    1.9630    0.0740 ho        1 R5P      0.437000
     18 HC3        -1.2110    0.2960   -1.0320 h1        1 R5P      0.092700
     19 HO3        -0.5560   -1.7260   -0.6350 ho        1 R5P      0.510000
     20 HC4        -1.3210    0.2150    2.0690 h1        1 R5P      0.017700
     21 HO4         0.0130    2.0350    0.4220 ho        1 R5P      0.443000
     22 H51         1.0540    0.1450    2.1940 h1        1 R5P      0.007700
     23 H52         0.6590   -1.2510    1.0700 h1        1 R5P      0.007700
@<TRIPOS>BOND
     1    1    2 2   
     2    1    3 1   
     3    1   15 1   
     4    3    4 1   
     5    3    5 1   
     6    3   16 1   
     7    4   17 1   
     8    5    6 1   
     9    5    7 1   
    10    5   18 1   
    11    6   19 1   
    12    7    8 1   
    13    7    9 1   
    14    7   20 1   
    15    8   21 1   
    16    9   10 1   
    17    9   22 1   
    18    9   23 1   
    19   10   11 1   
    20   11   12 1   
    21   11   13 1   
    22   11   14 1   
@<TRIPOS>SUBSTRUCTURE
     1 R5P         1 TEMP              0 ****  ****    0 ROOT
