@<TRIPOS>MOLECULE
R5T
   44    45     1     0     0
SMALL
bcc


@<TRIPOS>ATOM
      1 CAA         0.1810   -0.0600    0.8680 c3        1 R5T     -0.114767
      2 CAX         1.5570    0.0870    0.2400 c3        1 R5T      0.185800
      3 CAB         2.6560    0.0960    1.2880 c3        1 R5T     -0.114767
      4 CAC         1.8000   -1.0250   -0.7800 c3        1 R5T     -0.114767
      5 OAQ         1.6160    1.2860   -0.5810 os        1 R5T     -0.439900
      6 CAR         1.5020    2.5140    0.0170 c         1 R5T      0.745100
      7 OAD         1.2180    2.6340    1.2200 o         1 R5T     -0.593000
      8 N           1.7950    3.5440   -0.8710 n         1 R5T     -0.514900
      9 CA          1.3920    4.8900   -0.5400 c3        1 R5T      0.084000
     10 C           0.1570    5.3560   -1.3510 c         1 R5T      0.566100
     11 O          -0.1920    4.8120   -2.4090 o         1 R5T     -0.560100
     12 NAO        -0.6390    6.3720   -0.7460 n         1 R5T     -0.342400
     13 OAF        -1.4500    7.0210   -1.5840 oh        1 R5T     -0.434100
     14 CAT         2.4980    5.8830   -0.8060 ca        1 R5T     -0.128300
     15 CAJ         2.8510    6.2230   -2.1150 ca        1 R5T     -0.093500
     16 CAL         3.8720    7.1350   -2.3620 ca        1 R5T     -0.140500
     17 CAI         3.1960    6.4450    0.2650 ca        1 R5T     -0.093500
     18 CAK         4.2240    7.3550    0.0380 ca        1 R5T     -0.140500
     19 CAU         4.5690    7.7190   -1.2810 ca        1 R5T      0.047800
     20 NAW         5.6070    8.6600   -1.5090 na        1 R5T      0.142300
     21 NAN         6.3020    8.7490   -2.6650 nc        1 R5T     -0.499800
     22 CAH         7.1960    9.7510   -2.5050 cd        1 R5T      0.305200
     23 CAG         7.0710   10.3390   -1.1850 cd        1 R5T     -0.293300
     24 CAM         6.0450    9.6190   -0.5720 cc        1 R5T     -0.131300
     25 H1          0.0200    0.7270    1.6440 hc        1 R5T      0.052922
     26 H2          0.0980   -1.0650    1.3460 hc        1 R5T      0.052922
     27 H3         -0.6090    0.0380    0.0860 hc        1 R5T      0.052922
     28 H4          2.7000   -0.9010    1.7860 hc        1 R5T      0.052922
     29 H5          2.4540    0.8780    2.0600 hc        1 R5T      0.052922
     30 H6          3.6410    0.3080    0.8090 hc        1 R5T      0.052922
     31 H7          2.7980   -0.8960   -1.2600 hc        1 R5T      0.052922
     32 H8          1.0150   -0.9980   -1.5730 hc        1 R5T      0.052922
     33 H9          1.7640   -2.0090   -0.2580 hc        1 R5T      0.052922
     34 H10         1.8290    3.3160   -1.8410 hn        1 R5T      0.332500
     35 H11         1.1290    4.9100    0.5660 h1        1 R5T      0.118700
     36 H12        -0.0820    7.0640   -0.2560 hn        1 R5T      0.304500
     37 H13        -2.1810    6.4020   -1.7820 ho        1 R5T      0.436000
     38 H14         2.3110    5.7690   -2.9620 ha        1 R5T      0.150000
     39 H15         4.1300    7.3880   -3.4030 ha        1 R5T      0.155500
     40 H16         2.9460    6.1610    1.2990 ha        1 R5T      0.150000
     41 H17         4.7680    7.7710    0.9000 ha        1 R5T      0.155500
     42 H18         7.8930   10.0340   -3.2950 h4        1 R5T      0.047100
     43 H19         7.6530   11.1580   -0.7800 ha        1 R5T      0.169000
     44 H20         5.5940    9.7130    0.4150 h4        1 R5T      0.178000
@<TRIPOS>BOND
     1    1    2 1   
     2    1   25 1   
     3    1   26 1   
     4    1   27 1   
     5    2    3 1   
     6    2    4 1   
     7    2    5 1   
     8    3   28 1   
     9    3   29 1   
    10    3   30 1   
    11    4   31 1   
    12    4   32 1   
    13    4   33 1   
    14    5    6 1   
    15    6    7 2   
    16    6    8 1   
    17    8    9 1   
    18    8   34 1   
    19    9   10 1   
    20    9   14 1   
    21    9   35 1   
    22   10   11 2   
    23   10   12 1   
    24   12   13 1   
    25   12   36 1   
    26   13   37 1   
    27   14   15 ar  
    28   14   17 ar  
    29   15   16 ar  
    30   15   38 1   
    31   16   19 ar  
    32   16   39 1   
    33   17   18 ar  
    34   17   40 1   
    35   18   19 ar  
    36   18   41 1   
    37   19   20 1   
    38   20   21 1   
    39   20   24 1   
    40   21   22 2   
    41   22   23 1   
    42   22   42 1   
    43   23   24 2   
    44   23   43 1   
    45   24   44 1   
@<TRIPOS>SUBSTRUCTURE
     1 R5T         1 TEMP              0 ****  ****    0 ROOT
