@<TRIPOS>MOLECULE
R5T
   46    47     1     0     0
SMALL
bcc


@<TRIPOS>ATOM
      1 CAA         0.0910   -0.3030    0.0690 c3        1 R5T     -0.137433
      2 CAX         1.5740   -0.1140    0.2720 c3        1 R5T      0.221800
      3 CAB         1.9810   -0.0500    1.7230 c3        1 R5T     -0.137433
      4 CAC         2.4120   -1.0830   -0.5370 c3        1 R5T     -0.137433
      5 OAQ         1.9780    1.2050   -0.3920 os        1 R5T     -0.415900
      6 CAR         1.4520    2.3380    0.0300 c         1 R5T      0.648100
      7 OAD         0.6480    2.5860    0.9170 o         1 R5T     -0.457000
      8 N           2.0160    3.4900   -0.8030 n4        1 R5T     -0.673800
      9 CA          1.5310    4.8470   -0.3470 c3        1 R5T      0.173800
     10 C           0.1670    5.1630   -0.9690 c         1 R5T      0.536100
     11 O          -0.5460    4.4390   -1.6320 o         1 R5T     -0.330100
     12 NAO        -0.3090    6.5910   -0.6820 n4        1 R5T     -0.444300
     13 OAF        -1.1000    6.9570   -1.7200 oh        1 R5T     -0.338300
     14 CAT         2.5140    5.9070   -0.6830 ca        1 R5T     -0.361300
     15 CAJ         2.6440    6.3870   -2.0020 ca        1 R5T     -0.065000
     16 CAL         3.5890    7.3370   -2.3220 ca        1 R5T     -0.168000
     17 CAI         3.3830    6.3940    0.3080 ca        1 R5T     -0.065000
     18 CAK         4.3370    7.3480    0.0070 ca        1 R5T     -0.168000
     19 CAU         4.4750    7.8490   -1.3200 ca        1 R5T      0.172800
     20 NAW         5.4290    8.8020   -1.6330 na        1 R5T      0.105300
     21 NAN         5.5700    9.3420   -2.8900 nc        1 R5T     -0.499800
     22 CAH         6.5920   10.2010   -2.8320 cd        1 R5T      0.381200
     23 CAG         7.1660   10.2390   -1.4780 cd        1 R5T     -0.229300
     24 CAM         6.4140    9.3460   -0.7420 cc        1 R5T     -0.115300
     25 H1         -0.4940    0.4610    0.6380 hc        1 R5T      0.081367
     26 H2         -0.1960   -1.3180    0.4460 hc        1 R5T      0.081367
     27 H3         -0.1740   -0.2440   -1.0140 hc        1 R5T      0.081367
     28 H4          1.3820    0.7140    2.2760 hc        1 R5T      0.081367
     29 H5          1.7960   -1.0490    2.1930 hc        1 R5T      0.081367
     30 H6          3.0680    0.1880    1.8220 hc        1 R5T      0.081367
     31 H7          2.2160   -2.1160   -0.1530 hc        1 R5T      0.081367
     32 H8          3.5000   -0.8580   -0.4290 hc        1 R5T      0.081367
     33 H9          2.1380   -1.0420   -1.6190 hc        1 R5T      0.081367
     34 H10         3.0460    3.4780   -0.7260 hn        1 R5T      0.486800
     35 H11         1.3830    4.7720    0.7830 hx        1 R5T      0.164700
     36 H12        -0.8220    6.6010    0.2180 hn        1 R5T      0.489800
     37 H13        -1.6510    7.7340   -1.4550 ho        1 R5T      0.493000
     38 H14         1.9880    5.9970   -2.7980 ha        1 R5T      0.147000
     39 H15         3.6640    7.6940   -3.3660 ha        1 R5T      0.191500
     40 H16         3.3120    6.0190    1.3440 ha        1 R5T      0.147000
     41 H17         4.9950    7.7110    0.8150 ha        1 R5T      0.191500
     42 H18         6.9260   10.7810   -3.7000 h4        1 R5T      0.083100
     43 H19         8.0060   10.8530   -1.1590 ha        1 R5T      0.206000
     44 H20         6.4790    9.0450    0.3040 h4        1 R5T      0.194000
     45 H21         1.7760    3.3230   -1.7900 hn        1 R5T      0.486800
     46 HAO2        0.5250    7.2190   -0.6340 hn        1 R5T      0.489800
@<TRIPOS>BOND
     1    1    2 1   
     2    1   25 1   
     3    1   26 1   
     4    1   27 1   
     5    2    3 1   
     6    2    4 1   
     7    2    5 1   
     8    3   28 1   
     9    3   29 1   
    10    3   30 1   
    11    4   31 1   
    12    4   32 1   
    13    4   33 1   
    14    5    6 1   
    15    6    7 2   
    16    6    8 1   
    17    8    9 1   
    18    8   34 1   
    19    8   45 1   
    20    9   10 1   
    21    9   14 1   
    22    9   35 1   
    23   10   11 2   
    24   10   12 1   
    25   12   13 1   
    26   12   36 1   
    27   12   46 1   
    28   13   37 1   
    29   14   15 ar  
    30   14   17 ar  
    31   15   16 ar  
    32   15   38 1   
    33   16   19 ar  
    34   16   39 1   
    35   17   18 ar  
    36   17   40 1   
    37   18   19 ar  
    38   18   41 1   
    39   19   20 1   
    40   20   21 1   
    41   20   24 1   
    42   21   22 2   
    43   22   23 1   
    44   22   42 1   
    45   23   24 2   
    46   23   43 1   
    47   24   44 1   
@<TRIPOS>SUBSTRUCTURE
     1 R5T         1 TEMP              0 ****  ****    0 ROOT
