@<TRIPOS>MOLECULE
R5T
   46    47     1     0     0
SMALL
bcc


@<TRIPOS>ATOM
      1 CAA         0.0810   -0.2970    0.0700 c3        1 R5T     -0.137433
      2 CAX         1.5650   -0.1120    0.2690 c3        1 R5T      0.221800
      3 CAB         1.9770   -0.0520    1.7190 c3        1 R5T     -0.137433
      4 CAC         2.3980   -1.0830   -0.5450 c3        1 R5T     -0.137433
      5 OAQ         1.9710    1.2070   -0.3930 os        1 R5T     -0.414900
      6 CAR         1.4490    2.3400    0.0320 c         1 R5T      0.648100
      7 OAD         0.6490    2.5880    0.9230 o         1 R5T     -0.457000
      8 N           2.0120    3.4920   -0.8020 ny        1 R5T     -0.673800
      9 CA          1.5340    4.8490   -0.3400 c3        1 R5T      0.173800
     10 C           0.1660    5.1700   -0.9530 c         1 R5T      0.536100
     11 O          -0.5520    4.4490   -1.6140 o         1 R5T     -0.330100
     12 NAO        -0.3040    6.5990   -0.6610 ny        1 R5T     -0.444300
     13 OAF        -1.1010    6.9690   -1.6920 oh        1 R5T     -0.338300
     14 CAT         2.5170    5.9070   -0.6800 ca        1 R5T     -0.361300
     15 CAJ         2.6400    6.3900   -1.9990 ca        1 R5T     -0.065000
     16 CAL         3.5850    7.3380   -2.3240 ca        1 R5T     -0.168000
     17 CAI         3.3940    6.3910    0.3060 ca        1 R5T     -0.065000
     18 CAK         4.3480    7.3430    0.0010 ca        1 R5T     -0.168000
     19 CAU         4.4790    7.8460   -1.3270 ca        1 R5T      0.172800
     20 NAW         5.4330    8.7970   -1.6440 na        1 R5T      0.105300
     21 NAN         5.5670    9.3390   -2.9020 nc        1 R5T     -0.499800
     22 CAH         6.5910   10.1960   -2.8480 cd        1 R5T      0.381200
     23 CAG         7.1740   10.2300   -1.4980 cd        1 R5T     -0.229300
     24 CAM         6.4250    9.3370   -0.7580 cc        1 R5T     -0.115300
     25 H1         -0.1870   -0.2350   -1.0120 hc        1 R5T      0.081367
     26 H2         -0.2080   -1.3120    0.4460 hc        1 R5T      0.081367
     27 H3         -0.5000    0.4670    0.6420 hc        1 R5T      0.081367
     28 H4          1.7900   -1.0520    2.1870 hc        1 R5T      0.081367
     29 H5          3.0640    0.1820    1.8160 hc        1 R5T      0.081367
     30 H6          1.3810    0.7120    2.2760 hc        1 R5T      0.081367
     31 H7          2.1210   -1.0390   -1.6250 hc        1 R5T      0.081367
     32 H8          2.2000   -2.1160   -0.1610 hc        1 R5T      0.081367
     33 H9          3.4870   -0.8610   -0.4390 hc        1 R5T      0.081367
     34 H10         3.0430    3.4770   -0.7290 hn        1 R5T      0.486800
     35 H11         1.3920    4.7730    0.7900 hx        1 R5T      0.164700
     36 H12         0.5320    7.2240   -0.6160 hn        1 R5T      0.489800
     37 H13        -1.6470    7.7470   -1.4230 ho        1 R5T      0.493000
     38 H14         1.9780    6.0030   -2.7920 ha        1 R5T      0.146500
     39 H15         3.6550    7.6960   -3.3680 ha        1 R5T      0.191500
     40 H16         3.3280    6.0150    1.3410 ha        1 R5T      0.146500
     41 H17         5.0120    7.7030    0.8050 ha        1 R5T      0.191500
     42 H18         6.9210   10.7770   -3.7180 h4        1 R5T      0.083100
     43 H19         8.0170   10.8420   -1.1830 ha        1 R5T      0.206000
     44 H20         6.4960    9.0340    0.2860 h4        1 R5T      0.194000
     45 H21         1.7670    3.3280   -1.7870 hn        1 R5T      0.486800
     46 HAO2       -0.8120    6.6080    0.2430 hn        1 R5T      0.489800
@<TRIPOS>BOND
     1    1    2 1   
     2    1   25 1   
     3    1   26 1   
     4    1   27 1   
     5    2    3 1   
     6    2    4 1   
     7    2    5 1   
     8    3   28 1   
     9    3   29 1   
    10    3   30 1   
    11    4   31 1   
    12    4   32 1   
    13    4   33 1   
    14    5    6 1   
    15    6    7 2   
    16    6    8 1   
    17    8    9 1   
    18    8   34 1   
    19    8   45 1   
    20    9   10 1   
    21    9   14 1   
    22    9   35 1   
    23   10   11 2   
    24   10   12 1   
    25   12   13 1   
    26   12   36 1   
    27   12   46 1   
    28   13   37 1   
    29   14   15 ar  
    30   14   17 ar  
    31   15   16 ar  
    32   15   38 1   
    33   16   19 ar  
    34   16   39 1   
    35   17   18 ar  
    36   17   40 1   
    37   18   19 ar  
    38   18   41 1   
    39   19   20 1   
    40   20   21 1   
    41   20   24 1   
    42   21   22 2   
    43   22   23 1   
    44   22   42 1   
    45   23   24 2   
    46   23   43 1   
    47   24   44 1   
@<TRIPOS>SUBSTRUCTURE
     1 R5T         1 TEMP              0 ****  ****    0 ROOT
