@<TRIPOS>MOLECULE
R5V
   45    46     1     0     0
SMALL
bcc


@<TRIPOS>ATOM
      1 CAA        -0.1440    0.0490    0.0150 c3        1 R5V     -0.119433
      2 CAB         1.3660   -0.0800   -0.1630 c3        1 R5V     -0.086000
      3 CAC         2.0210   -0.4000    1.1710 c3        1 R5V     -0.119433
      4 CAD         1.6810   -1.1540   -1.1950 c3        1 R5V     -0.119433
      5 CAE         1.8680    1.2590   -0.6960 c         1 R5V      0.561100
      6 OAF         1.2510    2.2110   -1.1340 o         1 R5V     -0.414100
      7 N           3.3990    1.4240   -0.6990 n4        1 R5V     -0.704800
      8 CA          3.9090    2.6880   -1.3440 c3        1 R5V      0.163800
      9 C           3.9120    3.8420   -0.3350 c         1 R5V      0.536100
     10 O           3.4460    3.8620    0.7860 o         1 R5V     -0.334100
     11 NAK         4.5990    5.1070   -0.8600 n4        1 R5V     -0.443300
     12 OAL         5.1110    5.7520    0.2170 oh        1 R5V     -0.338300
     13 CAM         5.2680    2.4960   -1.9150 ca        1 R5V     -0.360300
     14 CAW         6.4020    2.4220   -1.0820 ca        1 R5V     -0.067500
     15 CAV         7.6550    2.1970   -1.6060 ca        1 R5V     -0.167500
     16 CAN         5.4260    2.3120   -3.2980 ca        1 R5V     -0.067500
     17 CAO         6.6760    2.0870   -3.8450 ca        1 R5V     -0.167500
     18 CAP         7.8330    2.0170   -3.0160 ca        1 R5V      0.170800
     19 NAQ         9.0890    1.7870   -3.5530 na        1 R5V      0.105300
     20 NAU        10.2350    1.7490   -2.7930 nc        1 R5V     -0.500800
     21 CAT        11.2460    1.4890   -3.6290 cd        1 R5V      0.381200
     22 CAS        10.7580    1.3430   -5.0090 cd        1 R5V     -0.229300
     23 CAR         9.3930    1.5350   -4.9310 cc        1 R5V     -0.116300
     24 H1         -0.5560   -0.9340    0.3550 hc        1 R5V      0.076811
     25 H2         -0.3870    0.8230    0.7830 hc        1 R5V      0.076811
     26 H3         -0.6340    0.3280   -0.9500 hc        1 R5V      0.076811
     27 H4          1.9490    0.4630    1.8760 hc        1 R5V      0.076811
     28 H5          3.0880   -0.7040    1.0480 hc        1 R5V      0.076811
     29 H6          1.4800   -1.2650    1.6380 hc        1 R5V      0.076811
     30 H7          2.7800   -1.3250   -1.2900 hc        1 R5V      0.076811
     31 H8          1.2120   -2.1170   -0.8640 hc        1 R5V      0.076811
     32 H9          1.2540   -0.8910   -2.1930 hc        1 R5V      0.076811
     33 H10         3.7230    1.3610    0.2760 hn        1 R5V      0.478800
     34 H11         3.1640    2.9580   -2.1650 hx        1 R5V      0.158700
     35 H12         5.3720    4.8260   -1.5060 hn        1 R5V      0.489800
     36 H13         5.3000    6.6920   -0.0210 ho        1 R5V      0.494000
     37 H14         6.2940    2.5400    0.0100 ha        1 R5V      0.146000
     38 H15         8.5260    2.1460   -0.9250 ha        1 R5V      0.191500
     39 H16         4.5500    2.3490   -3.9690 ha        1 R5V      0.146000
     40 H17         6.7600    1.9550   -4.9370 ha        1 R5V      0.191500
     41 H18        12.2850    1.4030   -3.2910 h4        1 R5V      0.083100
     42 H19        11.3710    1.1280   -5.8820 ha        1 R5V      0.206000
     43 H20         8.6210    1.5160   -5.7020 h4        1 R5V      0.194000
     44 H21         3.8050    0.6270   -1.2150 hn        1 R5V      0.478800
     45 HAK2        3.9020    5.6870   -1.3620 hn        1 R5V      0.489800
@<TRIPOS>BOND
     1    1    2 1   
     2    1   24 1   
     3    1   25 1   
     4    1   26 1   
     5    2    3 1   
     6    2    4 1   
     7    2    5 1   
     8    3   27 1   
     9    3   28 1   
    10    3   29 1   
    11    4   30 1   
    12    4   31 1   
    13    4   32 1   
    14    5    6 2   
    15    5    7 1   
    16    7    8 1   
    17    7   33 1   
    18    7   44 1   
    19    8    9 1   
    20    8   13 1   
    21    8   34 1   
    22    9   10 2   
    23    9   11 1   
    24   11   12 1   
    25   11   35 1   
    26   11   45 1   
    27   12   36 1   
    28   13   14 ar  
    29   13   16 ar  
    30   14   15 ar  
    31   14   37 1   
    32   15   18 ar  
    33   15   38 1   
    34   16   17 ar  
    35   16   39 1   
    36   17   18 ar  
    37   17   40 1   
    38   18   19 1   
    39   19   20 1   
    40   19   23 1   
    41   20   21 2   
    42   21   22 1   
    43   21   41 1   
    44   22   23 2   
    45   22   42 1   
    46   23   43 1   
@<TRIPOS>SUBSTRUCTURE
     1 R5V         1 TEMP              0 ****  ****    0 ROOT
