@<TRIPOS>MOLECULE
R5V
   43    44     1     0     0
SMALL
bcc


@<TRIPOS>ATOM
      1 CAA         0.0990   -0.1900   -0.6290 c3        1 R5V     -0.088433
      2 CAB         1.5350    0.0350   -0.1720 c3        1 R5V     -0.112000
      3 CAC         1.5540    0.2940    1.3270 c3        1 R5V     -0.088433
      4 CAD         2.3700   -1.1900   -0.5070 c3        1 R5V     -0.088433
      5 CAE         2.0890    1.2610   -0.9120 c         1 R5V      0.669100
      6 OAF         1.4010    1.9180   -1.7180 o         1 R5V     -0.612100
      7 N           3.4030    1.6130   -0.6630 n         1 R5V     -0.564900
      8 CA          4.0210    2.7650   -1.2660 c3        1 R5V      0.094000
      9 C           4.2520    3.8750   -0.2090 c         1 R5V      0.576100
     10 O           4.7240    3.6300    0.9130 o         1 R5V     -0.566100
     11 NAK         4.0410    5.2170   -0.6400 n         1 R5V     -0.345400
     12 OAL         3.9360    6.1120    0.3460 oh        1 R5V     -0.434100
     13 CAM         5.3520    2.4450   -1.9010 ca        1 R5V     -0.119300
     14 CAW         6.4510    2.0830   -1.1170 ca        1 R5V     -0.094500
     15 CAV         7.6750    1.7770   -1.7050 ca        1 R5V     -0.140000
     16 CAN         5.4820    2.4870   -3.2910 ca        1 R5V     -0.094500
     17 CAO         6.6960    2.1810   -3.8980 ca        1 R5V     -0.140000
     18 CAP         7.8110    1.8270   -3.1080 ca        1 R5V      0.042800
     19 NAQ         9.0530    1.5270   -3.7300 na        1 R5V      0.144300
     20 NAU        10.0050    0.7480   -3.1720 nc        1 R5V     -0.501800
     21 CAT        11.0310    0.6980   -4.0530 cd        1 R5V      0.303200
     22 CAS        10.7280    1.4850   -5.2320 cd        1 R5V     -0.295300
     23 CAR         9.4540    2.0040   -4.9950 cc        1 R5V     -0.131300
     24 H1          0.0710   -0.3690   -1.7310 hc        1 R5V      0.045922
     25 H2         -0.3320   -1.0750   -0.1030 hc        1 R5V      0.045922
     26 H3         -0.5210    0.7100   -0.4040 hc        1 R5V      0.045922
     27 H4          1.0260    1.2490    1.5630 hc        1 R5V      0.045922
     28 H5          1.0320   -0.5400    1.8560 hc        1 R5V      0.045922
     29 H6          2.5980    0.3550    1.7150 hc        1 R5V      0.045922
     30 H7          2.4550   -1.3130   -1.6130 hc        1 R5V      0.045922
     31 H8          3.3960   -1.1120   -0.0740 hc        1 R5V      0.045922
     32 H9          1.8820   -2.1020   -0.0840 hc        1 R5V      0.045922
     33 H10         3.9250    1.1350    0.0340 hn        1 R5V      0.326500
     34 H11         3.3140    3.1490   -2.0680 h1        1 R5V      0.106700
     35 H12         3.2240    5.3170   -1.2330 hn        1 R5V      0.306500
     36 H13         4.8410    6.2280    0.6990 ho        1 R5V      0.434000
     37 H14         6.3530    2.0580   -0.0180 ha        1 R5V      0.150500
     38 H15         8.5260    1.4970   -1.0640 ha        1 R5V      0.153500
     39 H16         4.6190    2.7560   -3.9200 ha        1 R5V      0.150500
     40 H17         6.7670    2.2080   -4.9960 ha        1 R5V      0.153500
     41 H18        11.9370    0.1260   -3.8510 h4        1 R5V      0.046100
     42 H19        11.3620    1.6300   -6.0990 ha        1 R5V      0.169000
     43 H20         8.8240    2.6630   -5.5920 h4        1 R5V      0.179000
@<TRIPOS>BOND
     1    1    2 1   
     2    1   24 1   
     3    1   25 1   
     4    1   26 1   
     5    2    3 1   
     6    2    4 1   
     7    2    5 1   
     8    3   27 1   
     9    3   28 1   
    10    3   29 1   
    11    4   30 1   
    12    4   31 1   
    13    4   32 1   
    14    5    6 2   
    15    5    7 1   
    16    7    8 1   
    17    7   33 1   
    18    8    9 1   
    19    8   13 1   
    20    8   34 1   
    21    9   10 2   
    22    9   11 1   
    23   11   12 1   
    24   11   35 1   
    25   12   36 1   
    26   13   14 ar  
    27   13   16 ar  
    28   14   15 ar  
    29   14   37 1   
    30   15   18 ar  
    31   15   38 1   
    32   16   17 ar  
    33   16   39 1   
    34   17   18 ar  
    35   17   40 1   
    36   18   19 1   
    37   19   20 1   
    38   19   23 1   
    39   20   21 2   
    40   21   22 1   
    41   21   41 1   
    42   22   23 2   
    43   22   42 1   
    44   23   43 1   
@<TRIPOS>SUBSTRUCTURE
     1 R5V         1 TEMP              0 ****  ****    0 ROOT
