@<TRIPOS>MOLECULE
R5V
   45    46     1     0     0
SMALL
bcc


@<TRIPOS>ATOM
      1 CAA        -0.1060    0.1030    0.1360 c3        1 R5V     -0.119433
      2 CAB         1.3950   -0.0430   -0.0980 c3        1 R5V     -0.086000
      3 CAC         2.0960   -0.3650    1.2110 c3        1 R5V     -0.119433
      4 CAD         1.6600   -1.1220   -1.1380 c3        1 R5V     -0.119433
      5 CAE         1.8900    1.2890   -0.6560 c         1 R5V      0.561100
      6 OAF         1.2680    2.2400   -1.0890 o         1 R5V     -0.417100
      7 N           3.4210    1.4480   -0.6970 ny        1 R5V     -0.704800
      8 CA          3.9190    2.6800   -1.4100 c3        1 R5V      0.168800
      9 C           3.9150    3.8900   -0.4720 c         1 R5V      0.514100
     10 O           3.4640    3.9760    0.6560 o         1 R5V     -0.376100
     11 NAK         4.5810    5.1300   -1.0440 ny        1 R5V     -0.439300
     12 OAL         5.0040    5.9870   -0.0880 oh        1 R5V     -0.330300
     13 CAM         5.2800    2.4770   -1.9670 ca        1 R5V     -0.363300
     14 CAW         6.4120    2.4420   -1.1270 ca        1 R5V     -0.067500
     15 CAV         7.6700    2.2140   -1.6370 ca        1 R5V     -0.166000
     16 CAN         5.4480    2.2490   -3.3430 ca        1 R5V     -0.067500
     17 CAO         6.7030    2.0190   -3.8760 ca        1 R5V     -0.166000
     18 CAP         7.8570    1.9910   -3.0400 ca        1 R5V      0.172800
     19 NAQ         9.1180    1.7590   -3.5620 na        1 R5V      0.106300
     20 NAU        10.2600    1.7460   -2.7930 nc        1 R5V     -0.499800
     21 CAT        11.2790    1.4820   -3.6170 cd        1 R5V      0.382200
     22 CAS        10.8030    1.3080   -4.9980 cd        1 R5V     -0.228300
     23 CAR         9.4350    1.4870   -4.9340 cc        1 R5V     -0.115300
     24 H1         -0.5150   -0.8760    0.4920 hc        1 R5V      0.076922
     25 H2         -0.6290    0.3850   -0.8100 hc        1 R5V      0.076922
     26 H3         -0.3120    0.8790    0.9120 hc        1 R5V      0.076922
     27 H4          3.1560   -0.6770    1.0490 hc        1 R5V      0.076922
     28 H5          1.5670   -1.2260    1.6990 hc        1 R5V      0.076922
     29 H6          2.0570    0.4980    1.9170 hc        1 R5V      0.076922
     30 H7          2.7530   -1.3010   -1.2780 hc        1 R5V      0.076922
     31 H8          1.1940   -0.8600   -2.1180 hc        1 R5V      0.076922
     32 H9          1.1990   -2.0810   -0.7840 hc        1 R5V      0.076922
     33 H10         3.7660    1.4270    0.2710 hn        1 R5V      0.479300
     34 H11         3.1710    2.8970   -2.2440 hx        1 R5V      0.160700
     35 H12         5.4530    4.8410   -1.5570 hn        1 R5V      0.509300
     36 H13         4.2630    6.1800    0.5400 ho        1 R5V      0.494000
     37 H14         6.2960    2.5930   -0.0400 ha        1 R5V      0.144500
     38 H15         8.5370    2.1960   -0.9500 ha        1 R5V      0.192000
     39 H16         4.5760    2.2530   -4.0190 ha        1 R5V      0.144500
     40 H17         6.7940    1.8520   -4.9630 ha        1 R5V      0.192000
     41 H18        12.3160    1.4140   -3.2700 h4        1 R5V      0.084100
     42 H19        11.4240    1.0850   -5.8630 ha        1 R5V      0.207000
     43 H20         8.6700    1.4470   -5.7100 h4        1 R5V      0.194000
     44 H21         3.8150    0.6290   -1.1870 hn        1 R5V      0.479300
     45 HAK2        3.9400    5.6130   -1.7050 hn        1 R5V      0.509300
@<TRIPOS>BOND
     1    1    2 1   
     2    1   24 1   
     3    1   25 1   
     4    1   26 1   
     5    2    3 1   
     6    2    4 1   
     7    2    5 1   
     8    3   27 1   
     9    3   28 1   
    10    3   29 1   
    11    4   30 1   
    12    4   31 1   
    13    4   32 1   
    14    5    6 2   
    15    5    7 1   
    16    7    8 1   
    17    7   33 1   
    18    7   44 1   
    19    8    9 1   
    20    8   13 1   
    21    8   34 1   
    22    9   10 2   
    23    9   11 1   
    24   11   12 1   
    25   11   35 1   
    26   11   45 1   
    27   12   36 1   
    28   13   14 ar  
    29   13   16 ar  
    30   14   15 ar  
    31   14   37 1   
    32   15   18 ar  
    33   15   38 1   
    34   16   17 ar  
    35   16   39 1   
    36   17   18 ar  
    37   17   40 1   
    38   18   19 1   
    39   19   20 1   
    40   19   23 1   
    41   20   21 2   
    42   21   22 1   
    43   21   41 1   
    44   22   23 2   
    45   22   42 1   
    46   23   43 1   
@<TRIPOS>SUBSTRUCTURE
     1 R5V         1 TEMP              0 ****  ****    0 ROOT
