@<TRIPOS>MOLECULE
R64
   54    57     1     0     0
SMALL
bcc


@<TRIPOS>ATOM
      1 O1         -1.0660    0.3610    4.1050 os        1 R64     -0.155200
      2 C2          0.2550    0.1700    3.6360 cc        1 R64     -0.081100
      3 C3          0.3010    0.1180    2.2520 cd        1 R64      0.010600
      4 C4         -1.0690    0.2580    1.7930 ca        1 R64     -0.162800
      5 C5         -1.7180    0.2730    0.5450 ca        1 R64      0.194100
      6 C6         -3.1060    0.4430    0.5080 ca        1 R64     -0.242000
      7 C7         -3.8450    0.5930    1.6910 ca        1 R64     -0.062000
      8 C8         -3.2480    0.5800    2.9460 ca        1 R64     -0.164000
      9 C9         -1.8630    0.4080    2.9690 ca        1 R64      0.118100
     10 C10         1.3240    0.0670    4.6210 c         1 R64      0.554800
     11 O30         2.4980    0.3360    4.3190 o         1 R64     -0.546100
     12 C31         0.9840   -0.3870    5.9860 cc        1 R64      0.310000
     13 N32         1.8190   -0.1350    7.1000 na        1 R64     -0.157900
     14 C30         3.0610    0.5680    7.0880 c3        1 R64      0.017600
     15 C33         1.2140   -0.7300    8.1970 cc        1 R64     -0.235600
     16 C34         0.0280   -1.3370    7.7180 cd        1 R64      0.282200
     17 N35        -0.1040   -1.1210    6.3600 nd        1 R64     -0.604000
     18 C11         1.4770   -0.0380    1.3950 c3        1 R64     -0.050900
     19 O12        -0.9110    0.1150   -0.5590 os        1 R64     -0.322900
     20 C13        -1.5790    0.1220   -1.8290 c3        1 R64      0.128400
     21 C14        -0.4840   -0.0750   -2.8640 c3        1 R64     -0.091400
     22 C15        -1.1030   -0.0370   -4.2590 c3        1 R64      0.166800
     23 N16        -0.1360   -0.2920   -5.3080 n3        1 R64     -0.824200
     24 C17        -0.6810   -0.0850   -6.6370 c3        1 R64      0.215100
     25 C18         0.3540   -0.1370   -7.7160 ca        1 R64     -0.211600
     26 C19         1.2870   -1.1780   -7.7900 ca        1 R64     -0.073000
     27 C20         2.2060   -1.1890   -8.8400 ca        1 R64     -0.249300
     28 C21         2.1570   -0.1500   -9.7870 ca        1 R64      0.394200
     29 N22         1.2660    0.8590   -9.7350 nb        1 R64     -0.665000
     30 C23         0.3890    0.8580   -8.7150 ca        1 R64      0.397200
     31 HC6        -3.6410    0.4590   -0.4520 ha        1 R64      0.139000
     32 HC7        -4.9370    0.7220    1.6170 ha        1 R64      0.137000
     33 HC8        -3.8220    0.6910    3.8730 ha        1 R64      0.158000
     34 H301        3.8460   -0.0590    6.5820 h1        1 R64      0.064367
     35 H302        2.9500    1.5230    6.5060 h1        1 R64      0.064367
     36 H303        3.3780    0.7960    8.1390 h1        1 R64      0.064367
     37 HC33        1.6380   -0.6850    9.1980 h4        1 R64      0.180000
     38 HC34       -0.7110   -1.9040    8.2830 h4        1 R64      0.046100
     39 H111        1.7760    0.9590    0.9790 hc        1 R64      0.062700
     40 H112        2.3420   -0.4490    1.9740 hc        1 R64      0.062700
     41 H113        1.2420   -0.7150    0.5350 hc        1 R64      0.062700
     42 H131       -2.3260   -0.7130   -1.8640 h1        1 R64      0.044200
     43 H132       -2.1000    1.1050   -1.9710 h1        1 R64      0.044200
     44 H141        0.2870    0.7300   -2.7490 hc        1 R64      0.065700
     45 H142        0.0270   -1.0570   -2.6850 hc        1 R64      0.065700
     46 H151       -1.8950   -0.8360   -4.3330 h1        1 R64      0.030700
     47 H152       -1.6240    0.9590   -4.3910 h1        1 R64      0.030700
     48 HN16        0.6920    0.2560   -5.1710 hn        1 R64      0.364800
     49 H171       -1.4310   -0.9100   -6.8210 h1        1 R64      0.040200
     50 H172       -1.2430    0.8950   -6.7170 h1        1 R64      0.040200
     51 HC19        1.2920   -1.9740   -7.0290 ha        1 R64      0.154000
     52 HC20        2.9530   -1.9880   -8.9290 ha        1 R64      0.145000
     53 HC21        2.8650   -0.1210  -10.6340 h4        1 R64      0.022100
     54 HC23       -0.3280    1.7000   -8.6990 h4        1 R64      0.021100
@<TRIPOS>BOND
     1    1    2 1   
     2    1    9 1   
     3    2    3 2   
     4    2   10 1   
     5    3    4 1   
     6    3   18 1   
     7    4    5 ar  
     8    4    9 ar  
     9    5    6 ar  
    10    5   19 1   
    11    6    7 ar  
    12    6   31 1   
    13    7    8 ar  
    14    7   32 1   
    15    8    9 ar  
    16    8   33 1   
    17   10   11 2   
    18   10   12 1   
    19   12   13 1   
    20   12   17 2   
    21   13   14 1   
    22   13   15 1   
    23   14   34 1   
    24   14   35 1   
    25   14   36 1   
    26   15   16 2   
    27   15   37 1   
    28   16   17 1   
    29   16   38 1   
    30   18   39 1   
    31   18   40 1   
    32   18   41 1   
    33   19   20 1   
    34   20   21 1   
    35   20   42 1   
    36   20   43 1   
    37   21   22 1   
    38   21   44 1   
    39   21   45 1   
    40   22   23 1   
    41   22   46 1   
    42   22   47 1   
    43   23   24 1   
    44   23   48 1   
    45   24   25 1   
    46   24   49 1   
    47   24   50 1   
    48   25   26 ar  
    49   25   30 ar  
    50   26   27 ar  
    51   26   51 1   
    52   27   28 ar  
    53   27   52 1   
    54   28   29 ar  
    55   28   53 1   
    56   29   30 ar  
    57   30   54 1   
@<TRIPOS>SUBSTRUCTURE
     1 R64         1 TEMP              0 ****  ****    0 ROOT
