@<TRIPOS>MOLECULE
R64
   55    58     1     0     0
SMALL
bcc


@<TRIPOS>ATOM
      1 O1          0.0400    0.3650   -0.1030 os        1 R64     -0.145200
      2 C2          1.4260    0.4400    0.1530 cc        1 R64     -0.040100
      3 C3          1.6890    0.5790    1.5050 cd        1 R64     -0.031400
      4 C4          0.3990    0.5770    2.1730 ca        1 R64     -0.136800
      5 C5         -0.0620    0.6830    3.4930 ca        1 R64      0.155100
      6 C6         -1.4340    0.6590    3.7490 ca        1 R64     -0.221000
      7 C7         -2.3570    0.5270    2.6980 ca        1 R64     -0.074000
      8 C8         -1.9530    0.4200    1.3730 ca        1 R64     -0.132000
      9 C9         -0.5780    0.4500    1.1370 ca        1 R64      0.109100
     10 C10         2.3270    0.3800   -1.0020 c         1 R64      0.554800
     11 O30         3.3700    1.0470   -1.0280 o         1 R64     -0.533100
     12 C31         1.9550   -0.5240   -2.1020 cc        1 R64      0.290000
     13 N32         2.5490   -0.4620   -3.3850 na        1 R64     -0.146900
     14 C30         3.5550    0.4600   -3.8090 c3        1 R64      0.013600
     15 C33         1.9760   -1.4710   -4.1390 cc        1 R64     -0.222600
     16 C34         1.0510   -2.1310   -3.2910 cd        1 R64      0.285200
     17 N35         1.0450   -1.5440   -2.0440 nd        1 R64     -0.605000
     18 C11         2.9950    0.6990    2.1550 c3        1 R64     -0.045900
     19 O12         0.9090    0.8520    4.4710 os        1 R64     -0.325900
     20 C13         0.4930    0.5360    5.8000 c3        1 R64      0.137400
     21 C14         1.7910    0.4060    6.5910 c3        1 R64     -0.125400
     22 C15         1.4590    0.1900    8.0590 c3        1 R64      0.103800
     23 N16         2.6860    0.0580    8.8990 ny        1 R64     -0.768000
     24 C17         2.3560   -0.1440   10.3520 c3        1 R64      0.184100
     25 C18         3.5900   -0.3050   11.1610 ca        1 R64     -0.323600
     26 C19         4.1410    0.7740   11.8690 ca        1 R64     -0.055000
     27 C20         5.2730    0.5570   12.6510 ca        1 R64     -0.233300
     28 C21         5.8220   -0.7430   12.6970 ca        1 R64      0.452200
     29 N22         5.3030   -1.7890   12.0250 nb        1 R64     -0.638000
     30 C23         4.2070   -1.5700   11.2780 ca        1 R64      0.432200
     31 HC6        -1.8140    0.7510    4.7750 ha        1 R64      0.131000
     32 HC7        -3.4320    0.5100    2.9370 ha        1 R64      0.147000
     33 HC8        -2.6680    0.3150    0.5460 ha        1 R64      0.169000
     34 H301        3.6990    0.3800   -4.9180 h1        1 R64      0.068700
     35 H302        3.2460    1.5070   -3.5400 h1        1 R64      0.068700
     36 H303        4.5220    0.2340   -3.2810 h1        1 R64      0.068700
     37 HC33        2.2400   -1.6520   -5.1800 h4        1 R64      0.188000
     38 HC34        0.4120   -2.9810   -3.5310 h4        1 R64      0.052100
     39 H111        3.3510   -0.3080    2.4930 hc        1 R64      0.057367
     40 H112        2.9200    1.3640    3.0510 hc        1 R64      0.057367
     41 H113        3.7510    1.1220    1.4450 hc        1 R64      0.057367
     42 H131       -0.1390    1.3740    6.1970 h1        1 R64      0.054200
     43 H132       -0.0890   -0.4230    5.8180 h1        1 R64      0.054200
     44 H141        2.3970    1.3400    6.4440 hc        1 R64      0.084700
     45 H142        2.3840   -0.4530    6.1770 hc        1 R64      0.084700
     46 H151        0.8490   -0.7510    8.1850 hx        1 R64      0.106700
     47 H152        0.8610    1.0610    8.4550 hx        1 R64      0.106700
     48 HN16        3.2630    0.9010    8.7970 hn        1 R64      0.451800
     49 H171        1.7600    0.7510   10.6940 hx        1 R64      0.109700
     50 H172        1.7050   -1.0640   10.4270 hx        1 R64      0.109700
     51 HC19        3.6800    1.7730   11.8230 ha        1 R64      0.149000
     52 HC20        5.7310    1.3740   13.2280 ha        1 R64      0.175000
     53 HC21        6.7210   -0.9610   13.3070 h4        1 R64      0.056100
     54 HC23        3.7970   -2.4580   10.7610 h4        1 R64      0.029100
     55 H162        3.2440   -0.7380    8.5670 hn        1 R64      0.451800
@<TRIPOS>BOND
     1    1    2 1   
     2    1    9 1   
     3    2    3 2   
     4    2   10 1   
     5    3    4 1   
     6    3   18 1   
     7    4    5 ar  
     8    4    9 ar  
     9    5    6 ar  
    10    5   19 1   
    11    6    7 ar  
    12    6   31 1   
    13    7    8 ar  
    14    7   32 1   
    15    8    9 ar  
    16    8   33 1   
    17   10   11 2   
    18   10   12 1   
    19   12   13 1   
    20   12   17 2   
    21   13   14 1   
    22   13   15 1   
    23   14   34 1   
    24   14   35 1   
    25   14   36 1   
    26   15   16 2   
    27   15   37 1   
    28   16   17 1   
    29   16   38 1   
    30   18   39 1   
    31   18   40 1   
    32   18   41 1   
    33   19   20 1   
    34   20   21 1   
    35   20   42 1   
    36   20   43 1   
    37   21   22 1   
    38   21   44 1   
    39   21   45 1   
    40   22   23 1   
    41   22   46 1   
    42   22   47 1   
    43   23   24 1   
    44   23   48 1   
    45   23   55 1   
    46   24   25 1   
    47   24   49 1   
    48   24   50 1   
    49   25   26 ar  
    50   25   30 ar  
    51   26   27 ar  
    52   26   51 1   
    53   27   28 ar  
    54   27   52 1   
    55   28   29 ar  
    56   28   53 1   
    57   29   30 ar  
    58   30   54 1   
@<TRIPOS>SUBSTRUCTURE
     1 R64         1 TEMP              0 ****  ****    0 ROOT
