@<TRIPOS>MOLECULE
R64
   55    58     1     0     0
SMALL
bcc


@<TRIPOS>ATOM
      1 O1          0.0390    0.3480   -0.1040 os        1 R64     -0.145200
      2 C2          1.4230    0.4410    0.1540 cc        1 R64     -0.040100
      3 C3          1.6830    0.5830    1.5060 cd        1 R64     -0.031400
      4 C4          0.3930    0.5640    2.1730 ca        1 R64     -0.136800
      5 C5         -0.0700    0.6640    3.4930 ca        1 R64      0.155100
      6 C6         -1.4420    0.6220    3.7470 ca        1 R64     -0.221000
      7 C7         -2.3620    0.4780    2.6950 ca        1 R64     -0.074000
      8 C8         -1.9560    0.3770    1.3700 ca        1 R64     -0.132000
      9 C9         -0.5810    0.4240    1.1370 ca        1 R64      0.109100
     10 C10         2.3260    0.3930   -1.0000 c         1 R64      0.554800
     11 O30         3.3610    1.0740   -1.0250 o         1 R64     -0.533100
     12 C31         1.9680   -0.5160   -2.1000 cc        1 R64      0.290000
     13 N32         2.5620   -0.4460   -3.3820 na        1 R64     -0.146900
     14 C30         3.5550    0.4890   -3.8060 c3        1 R64      0.013600
     15 C33         2.0030   -1.4630   -4.1370 cc        1 R64     -0.222600
     16 C34         1.0860   -2.1360   -3.2890 cd        1 R64      0.285200
     17 N35         1.0710   -1.5480   -2.0430 nd        1 R64     -0.605000
     18 C11         2.9870    0.7200    2.1570 c3        1 R64     -0.045900
     19 O12         0.8970    0.8460    4.4720 os        1 R64     -0.325900
     20 C13         0.4850    0.5200    5.8000 c3        1 R64      0.137400
     21 C14         1.7840    0.4050    6.5900 c3        1 R64     -0.125400
     22 C15         1.4540    0.1790    8.0580 c3        1 R64      0.103800
     23 N16         2.6820    0.0600    8.8980 n4        1 R64     -0.768000
     24 C17         2.3550   -0.1520   10.3500 c3        1 R64      0.184100
     25 C18         3.5910   -0.2990   11.1580 ca        1 R64     -0.323600
     26 C19         4.1260    0.7840   11.8730 ca        1 R64     -0.055000
     27 C20         5.2600    0.5790   12.6540 ca        1 R64     -0.233300
     28 C21         5.8270   -0.7120   12.6940 ca        1 R64      0.452200
     29 N22         5.3240   -1.7630   12.0170 nb        1 R64     -0.638000
     30 C23         4.2250   -1.5560   11.2710 ca        1 R64      0.432200
     31 HC6        -1.8250    0.7090    4.7730 ha        1 R64      0.131000
     32 HC7        -3.4370    0.4480    2.9330 ha        1 R64      0.147000
     33 HC8        -2.6690    0.2630    0.5430 ha        1 R64      0.169000
     34 H301        3.7020    0.4100   -4.9150 h1        1 R64      0.068700
     35 H302        3.2330    1.5320   -3.5370 h1        1 R64      0.068700
     36 H303        4.5250    0.2750   -3.2780 h1        1 R64      0.068700
     37 HC33        2.2710   -1.6410   -5.1780 h4        1 R64      0.188000
     38 HC34        0.4590   -2.9940   -3.5300 h4        1 R64      0.052100
     39 H111        3.3560   -0.2820    2.4960 hc        1 R64      0.057367
     40 H112        2.9020    1.3840    3.0540 hc        1 R64      0.057367
     41 H113        3.7390    1.1540    1.4490 hc        1 R64      0.057367
     42 H131       -0.1580    1.3490    6.1990 h1        1 R64      0.054200
     43 H132       -0.0850   -0.4460    5.8150 h1        1 R64      0.054200
     44 H141        2.3770    1.3480    6.4480 hc        1 R64      0.084700
     45 H142        2.3880   -0.4440    6.1740 hc        1 R64      0.084700
     46 H151        0.8570   -0.7700    8.1800 hx        1 R64      0.106700
     47 H152        0.8440    1.0400    8.4570 hx        1 R64      0.106700
     48 HN16        3.2480    0.9120    8.8000 hn        1 R64      0.451800
     49 H171        1.7460    0.7330   10.6960 hx        1 R64      0.109700
     50 H172        1.7170   -1.0810   10.4210 hx        1 R64      0.109700
     51 HC19        3.6510    1.7770   11.8310 ha        1 R64      0.149000
     52 HC20        5.7070    1.4000   13.2350 ha        1 R64      0.175000
     53 HC21        6.7290   -0.9210   13.3040 h4        1 R64      0.056100
     54 HC23        3.8290   -2.4470   10.7490 h4        1 R64      0.029100
     55 H162        3.2520   -0.7270    8.5630 hn        1 R64      0.451800
@<TRIPOS>BOND
     1    1    2 1   
     2    1    9 1   
     3    2    3 2   
     4    2   10 1   
     5    3    4 1   
     6    3   18 1   
     7    4    5 ar  
     8    4    9 ar  
     9    5    6 ar  
    10    5   19 1   
    11    6    7 ar  
    12    6   31 1   
    13    7    8 ar  
    14    7   32 1   
    15    8    9 ar  
    16    8   33 1   
    17   10   11 2   
    18   10   12 1   
    19   12   13 1   
    20   12   17 2   
    21   13   14 1   
    22   13   15 1   
    23   14   34 1   
    24   14   35 1   
    25   14   36 1   
    26   15   16 2   
    27   15   37 1   
    28   16   17 1   
    29   16   38 1   
    30   18   39 1   
    31   18   40 1   
    32   18   41 1   
    33   19   20 1   
    34   20   21 1   
    35   20   42 1   
    36   20   43 1   
    37   21   22 1   
    38   21   44 1   
    39   21   45 1   
    40   22   23 1   
    41   22   46 1   
    42   22   47 1   
    43   23   24 1   
    44   23   48 1   
    45   23   55 1   
    46   24   25 1   
    47   24   49 1   
    48   24   50 1   
    49   25   26 ar  
    50   25   30 ar  
    51   26   27 ar  
    52   26   51 1   
    53   27   28 ar  
    54   27   52 1   
    55   28   29 ar  
    56   28   53 1   
    57   29   30 ar  
    58   30   54 1   
@<TRIPOS>SUBSTRUCTURE
     1 R64         1 TEMP              0 ****  ****    0 ROOT
