@<TRIPOS>MOLECULE
R68
   83    87     1     0     0
SMALL
bcc


@<TRIPOS>ATOM
      1 O22         0.5320   -0.8830    0.3080 o         1 R68     -0.427100
      2 C21         1.0640   -1.6810   -0.4500 c         1 R68      0.588700
      3 C14         1.2770   -3.1170   -0.2600 ca        1 R68     -0.165600
      4 C13         0.5480   -3.7360    0.7690 ca        1 R68     -0.192800
      5 C12         0.7430   -5.1200    0.9810 ca        1 R68      0.425700
      6 N11         1.5890   -5.8660    0.2540 nb        1 R68     -0.578000
      7 C16         2.2880   -5.2540   -0.7250 ca        1 R68      0.425700
      8 C15         2.1710   -3.8850   -1.0240 ca        1 R68     -0.192800
      9 N23         1.5680   -1.1030   -1.7740 n4        1 R68     -0.682800
     10 C31         0.9810    0.2380   -2.1100 c3        1 R68      0.116500
     11 C32        -0.5190    0.0900   -2.5120 c3        1 R68      0.157800
     12 N33        -0.7140   -0.8910   -3.5430 n3        1 R68     -0.871200
     13 C34        -0.6570   -0.3900   -4.9010 c3        1 R68      0.149800
     14 C35         0.7050    0.1790   -5.2860 c3        1 R68     -0.089400
     15 C36         1.1060    1.3810   -4.4550 c3        1 R68     -0.104400
     16 C37         1.8550    0.9770   -3.1740 c3        1 R68      0.125500
     17 N41         2.5160    2.1950   -2.5700 n4        1 R68     -0.698800
     18 C42         3.7070    1.8860   -1.6580 c         1 R68      0.610700
     19 O43         3.8030    0.6990   -1.3470 o         1 R68     -0.526100
     20 C51         4.5610    2.9980   -1.3110 ca        1 R68     -0.234600
     21 C52         5.7890    2.6790   -0.6910 ca        1 R68     -0.054000
     22 C53         6.6890    3.6890   -0.3660 ca        1 R68     -0.099000
     23 C56         4.2370    4.3490   -1.5600 ca        1 R68     -0.054000
     24 C55         5.1360    5.3500   -1.2270 ca        1 R68     -0.099000
     25 C54         6.3750    5.0220   -0.6480 ca        1 R68     -0.026600
     26 C61         7.3690    6.1050   -0.3590 c         1 R68      0.602300
     27 O62         8.2530    6.3650   -1.1700 o         1 R68     -0.435100
     28 C71         7.1900    6.7910    0.9340 ca        1 R68     -0.259600
     29 C72         6.3360    7.9000    1.0450 ca        1 R68      0.175100
     30 O82         5.5880    8.2240   -0.0660 oh        1 R68     -0.527100
     31 C73         6.2360    8.6140    2.2460 ca        1 R68     -0.217000
     32 C74         6.9920    8.2190    3.3440 ca        1 R68     -0.018000
     33 C75         7.8450    7.1090    3.2820 ca        1 R68     -0.122300
     34 C76         7.9330    6.3920    2.0710 ca        1 R68      0.186900
     35 F89         8.7280    5.2990    1.9710 f         1 R68     -0.133900
     36 C91         8.6590    6.6880    4.4850 c3        1 R68      0.226800
     37 C92         9.9590    7.5380    4.6170 c3        1 R68     -0.038000
     38 C97         9.6640    9.0250    4.7070 c3        1 R68     -0.091600
     39 C98        10.8410    7.2760    3.4040 c3        1 R68     -0.091600
     40 C93        10.7100    7.0750    5.8690 c3        1 R68     -0.074400
     41 C94         9.8450    7.1180    7.1080 c3        1 R68     -0.080400
     42 C95         8.5520    6.3360    6.8960 c3        1 R68      0.163800
     43 N96         7.8390    6.7260    5.6950 n3        1 R68     -0.818200
     44 H13        -0.1530   -3.1670    1.4000 ha        1 R68      0.160500
     45 H12         0.1870   -5.6500    1.7820 h4        1 R68      0.070100
     46 H16         2.9820   -5.9040   -1.2970 h4        1 R68      0.070100
     47 H15         2.7940   -3.4670   -1.8240 ha        1 R68      0.160500
     48 H23         2.5930   -1.0300   -1.7050 hn        1 R68      0.477800
     49 H31         0.9750    0.8260   -1.1380 hx        1 R68      0.117700
     50 H321       -0.8870    1.1220   -2.7800 h1        1 R68      0.083700
     51 H322       -1.0740   -0.2250   -1.5770 h1        1 R68      0.083700
     52 H33        -1.5590   -1.4130   -3.3960 hn        1 R68      0.419800
     53 H341       -0.8820   -1.2600   -5.5860 h1        1 R68      0.077200
     54 H342       -1.4410    0.4030   -5.0880 h1        1 R68      0.077200
     55 H351        1.4930   -0.6170   -5.2360 hc        1 R68      0.081700
     56 H352        0.6340    0.5030   -6.3620 hc        1 R68      0.081700
     57 H361        1.7930    2.0110   -5.0890 hc        1 R68      0.081700
     58 H362        0.2090    2.0100   -4.2180 hc        1 R68      0.081700
     59 H37         2.7140    0.3100   -3.5050 hx        1 R68      0.113700
     60 H41         2.8600    2.7920   -3.3370 hn        1 R68      0.469800
     61 H52         6.0390    1.6250   -0.4750 ha        1 R68      0.147500
     62 H53         7.6550    3.4400    0.1110 ha        1 R68      0.196000
     63 H56         3.2740    4.6460   -2.0010 ha        1 R68      0.147500
     64 H55         4.8910    6.4150   -1.4050 ha        1 R68      0.196000
     65 H82         5.2630    9.1310    0.0460 ho        1 R68      0.447000
     66 H73         5.5740    9.4900    2.3140 ha        1 R68      0.157000
     67 H74         6.9250    8.7920    4.2870 ha        1 R68      0.183000
     68 H91         9.0160    5.6230    4.2910 h1        1 R68      0.029700
     69 H971        8.9500    9.2430    5.5360 hc        1 R68      0.041533
     70 H972        9.2240    9.3940    3.7480 hc        1 R68      0.041533
     71 H973       10.6110    9.5880    4.8960 hc        1 R68      0.041533
     72 H981       11.7940    7.8500    3.4980 hc        1 R68      0.041533
     73 H982       11.0850    6.1900    3.3180 hc        1 R68      0.041533
     74 H983       10.3230    7.5950    2.4670 hc        1 R68      0.041533
     75 H931       11.0770    6.0270    5.7060 hc        1 R68      0.050200
     76 H932       11.6110    7.7270    6.0160 hc        1 R68      0.050200
     77 H941       10.3960    6.6680    7.9740 hc        1 R68      0.057700
     78 H942        9.6080    8.1810    7.3720 hc        1 R68      0.057700
     79 H951        8.8030    5.2330    6.8940 h1        1 R68      0.034700
     80 H952        7.8580    6.5260    7.7630 h1        1 R68      0.034700
     81 H96         7.0380    6.1340    5.5700 hn        1 R68      0.355800
     82 H232        1.3340   -1.7730   -2.5230 hn        1 R68      0.477800
     83 H412        1.8290    2.7390   -2.0370 hn        1 R68      0.469800
@<TRIPOS>BOND
     1    1    2 2   
     2    2    3 1   
     3    2    9 1   
     4    3    4 ar  
     5    3    8 ar  
     6    4    5 ar  
     7    4   44 1   
     8    5    6 ar  
     9    5   45 1   
    10    6    7 ar  
    11    7    8 ar  
    12    7   46 1   
    13    8   47 1   
    14    9   10 1   
    15    9   48 1   
    16    9   82 1   
    17   10   11 1   
    18   10   16 1   
    19   10   49 1   
    20   11   12 1   
    21   11   50 1   
    22   11   51 1   
    23   12   13 1   
    24   12   52 1   
    25   13   14 1   
    26   13   53 1   
    27   13   54 1   
    28   14   15 1   
    29   14   55 1   
    30   14   56 1   
    31   15   16 1   
    32   15   57 1   
    33   15   58 1   
    34   16   17 1   
    35   16   59 1   
    36   17   18 1   
    37   17   60 1   
    38   17   83 1   
    39   18   19 2   
    40   18   20 1   
    41   20   21 ar  
    42   20   23 ar  
    43   21   22 ar  
    44   21   61 1   
    45   22   25 ar  
    46   22   62 1   
    47   23   24 ar  
    48   23   63 1   
    49   24   25 ar  
    50   24   64 1   
    51   25   26 1   
    52   26   27 2   
    53   26   28 1   
    54   28   29 ar  
    55   28   34 ar  
    56   29   30 1   
    57   29   31 ar  
    58   30   65 1   
    59   31   32 ar  
    60   31   66 1   
    61   32   33 ar  
    62   32   67 1   
    63   33   34 ar  
    64   33   36 1   
    65   34   35 1   
    66   36   37 1   
    67   36   43 1   
    68   36   68 1   
    69   37   38 1   
    70   37   39 1   
    71   37   40 1   
    72   38   69 1   
    73   38   70 1   
    74   38   71 1   
    75   39   72 1   
    76   39   73 1   
    77   39   74 1   
    78   40   41 1   
    79   40   75 1   
    80   40   76 1   
    81   41   42 1   
    82   41   77 1   
    83   41   78 1   
    84   42   43 1   
    85   42   79 1   
    86   42   80 1   
    87   43   81 1   
@<TRIPOS>SUBSTRUCTURE
     1 R68         1 TEMP              0 ****  ****    0 ROOT
