@<TRIPOS>MOLECULE
R68
   83    87     1     0     0
SMALL
bcc


@<TRIPOS>ATOM
      1 O22         0.5560    0.3930   -0.0170 o         1 R68     -0.490100
      2 C21         0.7470   -0.8010   -0.2240 c         1 R68      0.605700
      3 C14         0.6070   -1.9220    0.7010 ca        1 R68     -0.173600
      4 C13        -0.2080   -1.7310    1.8290 ca        1 R68     -0.189300
      5 C12        -0.3420   -2.8040    2.7400 ca        1 R68      0.426700
      6 N11         0.2770   -3.9850    2.5840 nb        1 R68     -0.572000
      7 C16         1.0670   -4.1480    1.5020 ca        1 R68      0.426700
      8 C15         1.2670   -3.1520    0.5300 ca        1 R68     -0.189300
      9 N23         1.1720   -1.1390   -1.6460 n4        1 R68     -0.692800
     10 C31         0.6230   -0.1950   -2.6870 c3        1 R68      0.111500
     11 C32         0.0370   -1.0070   -3.8880 c3        1 R68      0.155800
     12 N33         1.0740   -1.5070   -4.7450 n3        1 R68     -0.862200
     13 C34         1.3050   -0.7050   -5.9340 c3        1 R68      0.149800
     14 C35         1.9580    0.6470   -5.6620 c3        1 R68     -0.092400
     15 C36         1.3370    1.4380   -4.5260 c3        1 R68     -0.091400
     16 C37         1.7040    0.8190   -3.1630 c3        1 R68      0.126500
     17 N41         1.9640    1.8850   -2.1240 n4        1 R68     -0.707800
     18 C42         3.2700    1.6680   -1.3520 c         1 R68      0.614700
     19 O43         3.5040    0.4860   -1.1040 o         1 R68     -0.523100
     20 C51         4.0520    2.8460   -1.0480 ca        1 R68     -0.229600
     21 C52         5.4220    2.6430   -0.7740 ca        1 R68     -0.057500
     22 C53         6.2470    3.7340   -0.5160 ca        1 R68     -0.098500
     23 C56         3.5150    4.1490   -1.0010 ca        1 R68     -0.057500
     24 C55         4.3430    5.2290   -0.7320 ca        1 R68     -0.098500
     25 C54         5.7160    5.0270   -0.5130 ca        1 R68     -0.033600
     26 C61         6.6150    6.2070   -0.3030 c         1 R68      0.603300
     27 O62         7.2200    6.7000   -1.2500 o         1 R68     -0.438100
     28 C71         6.6990    6.6910    1.0880 ca        1 R68     -0.258600
     29 C72         5.7760    7.6300    1.5770 ca        1 R68      0.176100
     30 O82         4.7340    7.9710    0.7430 oh        1 R68     -0.526100
     31 C73         5.9070    8.1630    2.8660 ca        1 R68     -0.218000
     32 C74         6.9640    7.7560    3.6720 ca        1 R68     -0.018000
     33 C75         7.8990    6.8110    3.2300 ca        1 R68     -0.123300
     34 C76         7.7540    6.2740    1.9340 ca        1 R68      0.186900
     35 F89         8.6210    5.3410    1.4720 f         1 R68     -0.133900
     36 C91         9.0420    6.3750    4.1190 c3        1 R68      0.226800
     37 C92        10.2200    7.3940    4.0720 c3        1 R68     -0.038000
     38 C97         9.7830    8.7930    4.4680 c3        1 R68     -0.091600
     39 C98        10.7810    7.4290    2.6570 c3        1 R68     -0.091600
     40 C93        11.3200    6.9000    5.0160 c3        1 R68     -0.074400
     41 C94        10.8080    6.6500    6.4150 c3        1 R68     -0.080400
     42 C95         9.6080    5.7080    6.3960 c3        1 R68      0.163800
     43 N96         8.5660    6.1310    5.4800 n3        1 R68     -0.818200
     44 H13        -0.7300   -0.7780    2.0080 ha        1 R68      0.163000
     45 H12        -0.9780   -2.7000    3.6430 h4        1 R68      0.073100
     46 H16         1.5690   -5.1340    1.4170 h4        1 R68      0.073100
     47 H15         1.9520   -3.3550   -0.3030 ha        1 R68      0.163000
     48 H23         2.2060   -1.1390   -1.6780 hn        1 R68      0.480300
     49 H31        -0.2520    0.3540   -2.2200 hx        1 R68      0.119700
     50 H321       -0.6820   -0.3080   -4.4110 h1        1 R68      0.085200
     51 H322       -0.5910   -1.8510   -3.4750 h1        1 R68      0.085200
     52 H33         0.9190   -2.4670   -4.9950 hn        1 R68      0.413800
     53 H341        0.3430   -0.5280   -6.5030 h1        1 R68      0.076200
     54 H342        1.9940   -1.2930   -6.6090 h1        1 R68      0.076200
     55 H351        3.0550    0.5060   -5.4700 hc        1 R68      0.084700
     56 H352        1.8650    1.2570   -6.6040 hc        1 R68      0.084700
     57 H361        0.2250    1.5050   -4.6430 hc        1 R68      0.080700
     58 H362        1.7330    2.4900   -4.6030 hc        1 R68      0.080700
     59 H37         2.6900    0.2690   -3.3100 hx        1 R68      0.137700
     60 H41         1.1940    1.9180   -1.4400 hn        1 R68      0.471300
     61 H52         5.8390    1.6220   -0.7770 ha        1 R68      0.149000
     62 H53         7.3230    3.5800   -0.3140 ha        1 R68      0.194500
     63 H56         2.4400    4.3390   -1.1390 ha        1 R68      0.149000
     64 H55         3.9340    6.2560   -0.6770 ha        1 R68      0.194500
     65 H82         4.3350    8.7890    1.0810 ho        1 R68      0.446000
     66 H73         5.1850    8.9090    3.2300 ha        1 R68      0.157000
     67 H74         7.0750    8.1890    4.6840 ha        1 R68      0.182000
     68 H91         9.4600    5.4120    3.6760 h1        1 R68      0.029700
     69 H971        9.0670    9.2060    3.7170 hc        1 R68      0.041533
     70 H972        9.2890    8.7910    5.4690 hc        1 R68      0.041533
     71 H973       10.6720    9.4690    4.5130 hc        1 R68      0.041533
     72 H981       10.0030    7.7790    1.9360 hc        1 R68      0.041533
     73 H982       11.6500    8.1290    2.6110 hc        1 R68      0.041533
     74 H983       11.1220    6.4140    2.3410 hc        1 R68      0.041533
     75 H931       12.1430    7.6610    5.0460 hc        1 R68      0.049700
     76 H932       11.7550    5.9510    4.6020 hc        1 R68      0.049700
     77 H941       10.5230    7.6210    6.8980 hc        1 R68      0.057200
     78 H942       11.6150    6.1850    7.0390 hc        1 R68      0.057200
     79 H951        9.9790    4.6670    6.1540 h1        1 R68      0.034700
     80 H952        9.1460    5.6760    7.4230 h1        1 R68      0.034700
     81 H96         7.8360    5.4420    5.4570 hn        1 R68      0.355800
     82 H232        0.8570   -2.0950   -1.8630 hn        1 R68      0.480300
     83 H412        2.0150    2.8020   -2.5890 hn        1 R68      0.471300
@<TRIPOS>BOND
     1    1    2 2   
     2    2    3 1   
     3    2    9 1   
     4    3    4 ar  
     5    3    8 ar  
     6    4    5 ar  
     7    4   44 1   
     8    5    6 ar  
     9    5   45 1   
    10    6    7 ar  
    11    7    8 ar  
    12    7   46 1   
    13    8   47 1   
    14    9   10 1   
    15    9   48 1   
    16    9   82 1   
    17   10   11 1   
    18   10   16 1   
    19   10   49 1   
    20   11   12 1   
    21   11   50 1   
    22   11   51 1   
    23   12   13 1   
    24   12   52 1   
    25   13   14 1   
    26   13   53 1   
    27   13   54 1   
    28   14   15 1   
    29   14   55 1   
    30   14   56 1   
    31   15   16 1   
    32   15   57 1   
    33   15   58 1   
    34   16   17 1   
    35   16   59 1   
    36   17   18 1   
    37   17   60 1   
    38   17   83 1   
    39   18   19 2   
    40   18   20 1   
    41   20   21 ar  
    42   20   23 ar  
    43   21   22 ar  
    44   21   61 1   
    45   22   25 ar  
    46   22   62 1   
    47   23   24 ar  
    48   23   63 1   
    49   24   25 ar  
    50   24   64 1   
    51   25   26 1   
    52   26   27 2   
    53   26   28 1   
    54   28   29 ar  
    55   28   34 ar  
    56   29   30 1   
    57   29   31 ar  
    58   30   65 1   
    59   31   32 ar  
    60   31   66 1   
    61   32   33 ar  
    62   32   67 1   
    63   33   34 ar  
    64   33   36 1   
    65   34   35 1   
    66   36   37 1   
    67   36   43 1   
    68   36   68 1   
    69   37   38 1   
    70   37   39 1   
    71   37   40 1   
    72   38   69 1   
    73   38   70 1   
    74   38   71 1   
    75   39   72 1   
    76   39   73 1   
    77   39   74 1   
    78   40   41 1   
    79   40   75 1   
    80   40   76 1   
    81   41   42 1   
    82   41   77 1   
    83   41   78 1   
    84   42   43 1   
    85   42   79 1   
    86   42   80 1   
    87   43   81 1   
@<TRIPOS>SUBSTRUCTURE
     1 R68         1 TEMP              0 ****  ****    0 ROOT
