@<TRIPOS>MOLECULE
R68
   83    87     1     0     0
SMALL
bcc


@<TRIPOS>ATOM
      1 O22         0.5990    0.3490   -0.0310 o         1 R68     -0.490100
      2 C21         0.8040   -0.8370   -0.2750 c         1 R68      0.605700
      3 C14         0.6990   -1.9840    0.6220 ca        1 R68     -0.173600
      4 C13        -0.0970   -1.8360    1.7700 ca        1 R68     -0.189300
      5 C12        -0.1960   -2.9340    2.6540 ca        1 R68      0.426700
      6 N11         0.4360   -4.1020    2.4550 nb        1 R68     -0.572000
      7 C16         1.2080   -4.2230    1.3540 ca        1 R68      0.426700
      8 C15         1.3730   -3.1980    0.4050 ca        1 R68     -0.189300
      9 N23         1.2070   -1.1290   -1.7130 ny        1 R68     -0.692800
     10 C31         0.6260   -0.1650   -2.7170 c3        1 R68      0.111500
     11 C32         0.0290   -0.9520   -3.9290 c3        1 R68      0.155800
     12 N33         1.0560   -1.4130   -4.8190 n7        1 R68     -0.862200
     13 C34         1.2540   -0.5760   -5.9890 c3        1 R68      0.150800
     14 C35         1.8930    0.7770   -5.6910 c3        1 R68     -0.092400
     15 C36         1.2830    1.5280   -4.5230 c3        1 R68     -0.092400
     16 C37         1.6830    0.8780   -3.1840 c3        1 R68      0.126500
     17 N41         1.9460    1.9180   -2.1210 ny        1 R68     -0.707800
     18 C42         3.2690    1.6990   -1.3780 c         1 R68      0.614700
     19 O43         3.5250    0.5140   -1.1680 o         1 R68     -0.524100
     20 C51         4.0390    2.8800   -1.0520 ca        1 R68     -0.229600
     21 C52         5.4150    2.6890   -0.8040 ca        1 R68     -0.057500
     22 C53         6.2290    3.7830   -0.5270 ca        1 R68     -0.098500
     23 C56         3.4850    4.1730   -0.9610 ca        1 R68     -0.057500
     24 C55         4.3010    5.2560   -0.6740 ca        1 R68     -0.098500
     25 C54         5.6810    5.0680   -0.4810 ca        1 R68     -0.033600
     26 C61         6.5660    6.2540   -0.2500 c         1 R68      0.603300
     27 O62         7.1530    6.7800   -1.1910 o         1 R68     -0.438100
     28 C71         6.6610    6.7030    1.1520 ca        1 R68     -0.258600
     29 C72         5.7330    7.6180    1.6750 ca        1 R68      0.176100
     30 O82         4.6770    7.9680    0.8630 oh        1 R68     -0.526100
     31 C73         5.8720    8.1180    2.9770 ca        1 R68     -0.218000
     32 C74         6.9420    7.7030    3.7610 ca        1 R68     -0.018000
     33 C75         7.8810    6.7800    3.2840 ca        1 R68     -0.123300
     34 C76         7.7290    6.2760    1.9760 ca        1 R68      0.186900
     35 F89         8.6010    5.3640    1.4810 f         1 R68     -0.133900
     36 C91         9.0390    6.3320    4.1490 c3        1 R68      0.226800
     37 C92        10.2050    7.3660    4.1170 c3        1 R68     -0.038000
     38 C97         9.7570    8.7480    4.5560 c3        1 R68     -0.091600
     39 C98        10.7510    7.4450    2.6980 c3        1 R68     -0.091600
     40 C93        11.3210    6.8590    5.0360 c3        1 R68     -0.074400
     41 C94        10.8260    6.5650    6.4340 c3        1 R68     -0.080400
     42 C95         9.6360    5.6110    6.4020 c3        1 R68      0.163800
     43 N96         8.5800    6.0470    5.5080 n7        1 R68     -0.818200
     44 H13        -0.6300   -0.8960    1.9850 ha        1 R68      0.163000
     45 H12        -0.8170   -2.8650    3.5720 h4        1 R68      0.073100
     46 H16         1.7220   -5.1990    1.2330 h4        1 R68      0.073100
     47 H15         2.0450   -3.3680   -0.4460 ha        1 R68      0.163000
     48 H23         2.2390   -1.1130   -1.7640 hn        1 R68      0.480300
     49 H31        -0.2490    0.3580   -2.2200 hx        1 R68      0.119700
     50 H321       -0.5800   -1.8160   -3.5290 h1        1 R68      0.085200
     51 H322       -0.7100   -0.2500   -4.4200 h1        1 R68      0.085200
     52 H33         0.9100   -2.3680   -5.0920 hn        1 R68      0.413800
     53 H341        0.2800   -0.3980   -6.5350 h1        1 R68      0.076200
     54 H342        1.9390   -1.1350   -6.6920 h1        1 R68      0.076200
     55 H351        1.7750    1.4110   -6.6140 hc        1 R68      0.084700
     56 H352        2.9960    0.6470   -5.5230 hc        1 R68      0.084700
     57 H361        1.6620    2.5870   -4.5780 hc        1 R68      0.080700
     58 H362        0.1680    1.5820   -4.6180 hc        1 R68      0.080700
     59 H37         2.6740    0.3460   -3.3640 hx        1 R68      0.137700
     60 H41         1.9770    2.8480   -2.5610 hn        1 R68      0.471300
     61 H52         5.8470    1.6730   -0.8420 ha        1 R68      0.149000
     62 H53         7.3100    3.6390   -0.3450 ha        1 R68      0.194500
     63 H56         2.4050    4.3510   -1.0790 ha        1 R68      0.149000
     64 H55         3.8790    6.2760   -0.5850 ha        1 R68      0.194500
     65 H82         4.2740    8.7730    1.2260 ho        1 R68      0.446000
     66 H73         5.1460    8.8470    3.3680 ha        1 R68      0.157000
     67 H74         7.0600    8.1090    4.7820 ha        1 R68      0.182000
     68 H91         9.4630    5.3860    3.6770 h1        1 R68      0.029700
     69 H971        9.0300    9.1740    3.8230 hc        1 R68      0.041533
     70 H972        9.2740    8.7140    5.5610 hc        1 R68      0.041533
     71 H973       10.6390    9.4330    4.6100 hc        1 R68      0.041533
     72 H981       11.6120    8.1550    2.6630 hc        1 R68      0.041533
     73 H982       11.1000    6.4420    2.3520 hc        1 R68      0.041533
     74 H983        9.9620    7.8040    1.9950 hc        1 R68      0.041533
     75 H931       12.1360    7.6280    5.0790 hc        1 R68      0.049700
     76 H932       11.7610    5.9260    4.5930 hc        1 R68      0.049700
     77 H941       11.6440    6.0930    7.0370 hc        1 R68      0.057200
     78 H942       10.5350    7.5200    6.9460 hc        1 R68      0.057200
     79 H951        9.1850    5.5470    7.4320 h1        1 R68      0.034700
     80 H952       10.0160    4.5820    6.1280 h1        1 R68      0.034700
     81 H96         7.8570    5.3510    5.4740 hn        1 R68      0.355800
     82 H232        0.9000   -2.0830   -1.9500 hn        1 R68      0.480300
     83 H412        1.1880    1.9220   -1.4230 hn        1 R68      0.471300
@<TRIPOS>BOND
     1    1    2 2   
     2    2    3 1   
     3    2    9 1   
     4    3    4 ar  
     5    3    8 ar  
     6    4    5 ar  
     7    4   44 1   
     8    5    6 ar  
     9    5   45 1   
    10    6    7 ar  
    11    7    8 ar  
    12    7   46 1   
    13    8   47 1   
    14    9   10 1   
    15    9   48 1   
    16    9   82 1   
    17   10   11 1   
    18   10   16 1   
    19   10   49 1   
    20   11   12 1   
    21   11   50 1   
    22   11   51 1   
    23   12   13 1   
    24   12   52 1   
    25   13   14 1   
    26   13   53 1   
    27   13   54 1   
    28   14   15 1   
    29   14   55 1   
    30   14   56 1   
    31   15   16 1   
    32   15   57 1   
    33   15   58 1   
    34   16   17 1   
    35   16   59 1   
    36   17   18 1   
    37   17   60 1   
    38   17   83 1   
    39   18   19 2   
    40   18   20 1   
    41   20   21 ar  
    42   20   23 ar  
    43   21   22 ar  
    44   21   61 1   
    45   22   25 ar  
    46   22   62 1   
    47   23   24 ar  
    48   23   63 1   
    49   24   25 ar  
    50   24   64 1   
    51   25   26 1   
    52   26   27 2   
    53   26   28 1   
    54   28   29 ar  
    55   28   34 ar  
    56   29   30 1   
    57   29   31 ar  
    58   30   65 1   
    59   31   32 ar  
    60   31   66 1   
    61   32   33 ar  
    62   32   67 1   
    63   33   34 ar  
    64   33   36 1   
    65   34   35 1   
    66   36   37 1   
    67   36   43 1   
    68   36   68 1   
    69   37   38 1   
    70   37   39 1   
    71   37   40 1   
    72   38   69 1   
    73   38   70 1   
    74   38   71 1   
    75   39   72 1   
    76   39   73 1   
    77   39   74 1   
    78   40   41 1   
    79   40   75 1   
    80   40   76 1   
    81   41   42 1   
    82   41   77 1   
    83   41   78 1   
    84   42   43 1   
    85   42   79 1   
    86   42   80 1   
    87   43   81 1   
@<TRIPOS>SUBSTRUCTURE
     1 R68         1 TEMP              0 ****  ****    0 ROOT
