@<TRIPOS>MOLECULE
R68
   81    85     1     0     0
SMALL
bcc


@<TRIPOS>ATOM
      1 O22         3.7730   -2.3910   -1.3210 o         1 R68     -0.613100
      2 C21         3.5480   -2.1450   -0.1170 c         1 R68      0.665700
      3 C14         2.3620   -2.7300    0.5790 ca        1 R68     -0.106600
      4 C13         1.9180   -3.9990    0.1850 ca        1 R68     -0.209800
      5 C12         0.7920   -4.5420    0.8290 ca        1 R68      0.386200
      6 N11         0.1130   -3.9050    1.8030 nb        1 R68     -0.652000
      7 C16         0.5500   -2.6840    2.1640 ca        1 R68      0.386200
      8 C15         1.6690   -2.0520    1.5870 ca        1 R68     -0.209800
      9 N23         4.4020   -1.3710    0.6390 n         1 R68     -0.552900
     10 C31         5.5300   -0.6730    0.0660 c3        1 R68      0.083700
     11 C32         6.7620   -0.8860    0.9920 c3        1 R68      0.162800
     12 N33         7.9540   -0.1400    0.6680 n3        1 R68     -0.839200
     13 C34         8.2130    0.1490   -0.7230 c3        1 R68      0.169800
     14 C35         7.5440    1.4420   -1.1880 c3        1 R68     -0.076400
     15 C36         6.0610    1.3000   -1.4230 c3        1 R68     -0.087400
     16 C37         5.2870    0.8640   -0.1640 c3        1 R68      0.094700
     17 N41         3.8940    1.2400   -0.2910 n         1 R68     -0.557900
     18 C42         3.0410    1.3530    0.7810 c         1 R68      0.668700
     19 O43         3.4010    1.0670    1.9450 o         1 R68     -0.627100
     20 C51         1.6610    1.8570    0.5050 ca        1 R68     -0.120600
     21 C52         1.1110    2.7910    1.3900 ca        1 R68     -0.105500
     22 C53        -0.1760    3.2790    1.1740 ca        1 R68     -0.086000
     23 C56         0.9170    1.4020   -0.5870 ca        1 R68     -0.105500
     24 C55        -0.3780    1.8760   -0.7910 ca        1 R68     -0.086000
     25 C54        -0.9280    2.8170    0.0870 ca        1 R68     -0.143600
     26 C61        -2.2850    3.3640   -0.1380 c         1 R68      0.604300
     27 O62        -2.5460    4.5480    0.1280 o         1 R68     -0.540100
     28 C71        -3.3040    2.4780   -0.7390 ca        1 R68     -0.298600
     29 C72        -4.0780    2.9250   -1.8270 ca        1 R68      0.203100
     30 O82        -3.9620    4.1690   -2.3860 oh        1 R68     -0.495100
     31 C73        -5.0140    2.0740   -2.4470 ca        1 R68     -0.192000
     32 C74        -5.2140    0.7970   -1.9480 ca        1 R68     -0.032000
     33 C75        -4.5110    0.3330   -0.8280 ca        1 R68     -0.158300
     34 C76        -3.5580    1.1800   -0.2280 ca        1 R68      0.197900
     35 F89        -2.8820    0.7580    0.8680 f         1 R68     -0.129900
     36 C91        -4.7540   -1.0520   -0.2780 c3        1 R68      0.230800
     37 C92        -6.0150   -1.1030    0.6360 c3        1 R68     -0.038000
     38 C97        -7.2710   -0.6620   -0.0930 c3        1 R68     -0.089100
     39 C98        -5.7870   -0.1890    1.8330 c3        1 R68     -0.089100
     40 C93        -6.1780   -2.5380    1.1480 c3        1 R68     -0.073400
     41 C94        -6.2070   -3.5520    0.0280 c3        1 R68     -0.077400
     42 C95        -4.9940   -3.3950   -0.8850 c3        1 R68      0.163800
     43 N96        -4.8220   -2.0360   -1.3610 n3        1 R68     -0.818200
     44 H13         2.4350   -4.5450   -0.6170 ha        1 R68      0.164000
     45 H12         0.4120   -5.5410    0.5510 h4        1 R68      0.028600
     46 H16        -0.0270   -2.1810    2.9620 h4        1 R68      0.028600
     47 H15         1.9640   -1.0470    1.9270 ha        1 R68      0.164000
     48 H23         4.1230   -1.0820    1.5510 hn        1 R68      0.332500
     49 H31         5.7450   -1.1490   -0.9390 h1        1 R68      0.086700
     50 H321        6.9670   -1.9990    1.0060 h1        1 R68      0.040200
     51 H322        6.4870   -0.5770    2.0430 h1        1 R68      0.040200
     52 H33         8.7460   -0.5920    1.0850 hn        1 R68      0.371800
     53 H341        7.8950   -0.6910   -1.4080 h1        1 R68      0.031700
     54 H342        9.3270    0.2790   -0.8500 h1        1 R68      0.031700
     55 H351        8.0280    1.7470   -2.1550 hc        1 R68      0.052700
     56 H352        7.7330    2.2600   -0.4440 hc        1 R68      0.052700
     57 H361        5.8740    0.5640   -2.2500 hc        1 R68      0.048700
     58 H362        5.6780    2.2970   -1.7770 hc        1 R68      0.048700
     59 H37         5.6930    1.4100    0.7410 h1        1 R68      0.091700
     60 H41         3.5360    1.3680   -1.2080 hn        1 R68      0.317500
     61 H52         1.7000    3.1300    2.2580 ha        1 R68      0.152500
     62 H53        -0.6100    4.0300    1.8540 ha        1 R68      0.153000
     63 H56         1.3320    0.6550   -1.2810 ha        1 R68      0.152500
     64 H55        -0.9710    1.5070   -1.6430 ha        1 R68      0.153000
     65 H82        -3.4610    4.7480   -1.7890 ho        1 R68      0.448000
     66 H73        -5.5790    2.4450   -3.3140 ha        1 R68      0.161000
     67 H74        -5.9530    0.1340   -2.4300 ha        1 R68      0.165000
     68 H91        -3.8790   -1.2990    0.4090 h1        1 R68      0.033700
     69 H971       -7.1940    0.4150   -0.3810 hc        1 R68      0.038867
     70 H972       -7.4310   -1.2670   -1.0170 hc        1 R68      0.038867
     71 H973       -8.1600   -0.7860    0.5730 hc        1 R68      0.038867
     72 H981       -6.6590   -0.2470    2.5270 hc        1 R68      0.038867
     73 H982       -4.8650   -0.4880    2.3880 hc        1 R68      0.038867
     74 H983       -5.6650    0.8680    1.4970 hc        1 R68      0.038867
     75 H931       -5.3260   -2.7740    1.8400 hc        1 R68      0.044200
     76 H932       -7.1250   -2.6070    1.7440 hc        1 R68      0.044200
     77 H941       -6.2020   -4.5890    0.4530 hc        1 R68      0.047700
     78 H942       -7.1490   -3.4340   -0.5690 hc        1 R68      0.047700
     79 H951       -4.0830   -3.7660   -0.3280 h1        1 R68      0.031200
     80 H952       -5.1270   -4.0480   -1.7940 h1        1 R68      0.031200
     81 H96        -3.9910   -1.9720   -1.9190 hn        1 R68      0.362800
@<TRIPOS>BOND
     1    1    2 2   
     2    2    3 1   
     3    2    9 1   
     4    3    4 ar  
     5    3    8 ar  
     6    4    5 ar  
     7    4   44 1   
     8    5    6 ar  
     9    5   45 1   
    10    6    7 ar  
    11    7    8 ar  
    12    7   46 1   
    13    8   47 1   
    14    9   10 1   
    15    9   48 1   
    16   10   11 1   
    17   10   16 1   
    18   10   49 1   
    19   11   12 1   
    20   11   50 1   
    21   11   51 1   
    22   12   13 1   
    23   12   52 1   
    24   13   14 1   
    25   13   53 1   
    26   13   54 1   
    27   14   15 1   
    28   14   55 1   
    29   14   56 1   
    30   15   16 1   
    31   15   57 1   
    32   15   58 1   
    33   16   17 1   
    34   16   59 1   
    35   17   18 1   
    36   17   60 1   
    37   18   19 2   
    38   18   20 1   
    39   20   21 ar  
    40   20   23 ar  
    41   21   22 ar  
    42   21   61 1   
    43   22   25 ar  
    44   22   62 1   
    45   23   24 ar  
    46   23   63 1   
    47   24   25 ar  
    48   24   64 1   
    49   25   26 1   
    50   26   27 2   
    51   26   28 1   
    52   28   29 ar  
    53   28   34 ar  
    54   29   30 1   
    55   29   31 ar  
    56   30   65 1   
    57   31   32 ar  
    58   31   66 1   
    59   32   33 ar  
    60   32   67 1   
    61   33   34 ar  
    62   33   36 1   
    63   34   35 1   
    64   36   37 1   
    65   36   43 1   
    66   36   68 1   
    67   37   38 1   
    68   37   39 1   
    69   37   40 1   
    70   38   69 1   
    71   38   70 1   
    72   38   71 1   
    73   39   72 1   
    74   39   73 1   
    75   39   74 1   
    76   40   41 1   
    77   40   75 1   
    78   40   76 1   
    79   41   42 1   
    80   41   77 1   
    81   41   78 1   
    82   42   43 1   
    83   42   79 1   
    84   42   80 1   
    85   43   81 1   
@<TRIPOS>SUBSTRUCTURE
     1 R68         1 TEMP              0 ****  ****    0 ROOT
