@<TRIPOS>MOLECULE
R69
   70    73     1     0     0
SMALL
bcc


@<TRIPOS>ATOM
      1 O22         0.4070    0.6230   -0.1310 o         1 R69     -0.488100
      2 C21         0.7100   -0.5660   -0.1740 c         1 R69      0.604700
      3 C14         0.5170   -1.5930    0.8460 ca        1 R69     -0.172600
      4 C13        -0.4660   -1.3610    1.8210 ca        1 R69     -0.189800
      5 C12        -0.6530   -2.3410    2.8210 ca        1 R69      0.426700
      6 N11         0.0660   -3.4730    2.8890 nb        1 R69     -0.572000
      7 C16         1.0160   -3.6760    1.9520 ca        1 R69      0.426700
      8 C15         1.2820   -2.7710    0.9090 ca        1 R69     -0.189800
      9 N23         1.3580   -1.0100   -1.4770 n4        1 R69     -0.692800
     10 C31         0.8980   -0.2290   -2.6830 c3        1 R69      0.111500
     11 C32         0.5460   -1.2080   -3.8500 c3        1 R69      0.155800
     12 N33         1.7260   -1.7050   -4.5000 n3        1 R69     -0.862200
     13 C34         2.0680   -1.0130   -5.7300 c3        1 R69      0.150800
     14 C35         2.5800    0.4100   -5.5280 c3        1 R69     -0.092400
     15 C36         1.7510    1.2580   -4.5840 c3        1 R69     -0.091400
     16 C37         1.9620    0.8180   -3.1220 c3        1 R69      0.125500
     17 N41         1.9960    2.0030   -2.1860 n4        1 R69     -0.707800
     18 C42         3.1860    1.9780   -1.2200 c         1 R69      0.614700
     19 O43         3.4760    0.8480   -0.8270 o         1 R69     -0.528100
     20 C51         3.8100    3.2470   -0.9180 ca        1 R69     -0.227600
     21 C52         5.1160    3.2000   -0.3840 ca        1 R69     -0.059000
     22 C53         5.7920    4.3810   -0.0910 ca        1 R69     -0.089500
     23 C56         3.1810    4.4940   -1.1130 ca        1 R69     -0.059000
     24 C55         3.8620    5.6640   -0.8170 ca        1 R69     -0.089500
     25 C54         5.1750    5.6160   -0.3130 ca        1 R69     -0.013600
     26 C61         5.9110    6.8990   -0.0830 c         1 R69      0.588300
     27 O62         5.9590    7.7250   -1.0000 o         1 R69     -0.484100
     28 C71         6.5740    7.0890    1.2150 ca        1 R69     -0.176600
     29 C72         6.0250    6.6500    2.4300 ca        1 R69      0.100100
     30 O92         4.8200    5.9760    2.4010 oh        1 R69     -0.531100
     31 C73         6.6980    6.9030    3.6340 ca        1 R69     -0.169000
     32 C74         7.9090    7.5740    3.6350 ca        1 R69     -0.118000
     33 C76         7.7900    7.7840    1.2240 ca        1 R69     -0.122000
     34 C75         8.4990    8.0250    2.4230 ca        1 R69      0.154600
     35 N95         9.7660    8.6200    2.4070 nh        1 R69     -0.654000
     36 C98        10.3220    9.0610    3.6610 c3        1 R69      0.181600
     37 C99        10.1480    9.3580    1.2300 c3        1 R69      0.181600
     38 H13        -1.0760   -0.4440    1.8170 ha        1 R69      0.163000
     39 H12        -1.4210   -2.2020    3.6110 h4        1 R69      0.072600
     40 H16         1.5950   -4.6170    2.0500 h4        1 R69      0.072600
     41 H15         2.0950   -2.9980    0.2060 ha        1 R69      0.163000
     42 H23         2.3820   -0.9240   -1.3690 hn        1 R69      0.480800
     43 H31        -0.0710    0.2890   -2.4040 hx        1 R69      0.119700
     44 H321       -0.1380   -0.6310   -4.5420 h1        1 R69      0.085200
     45 H322       -0.0740   -2.0550   -3.4320 h1        1 R69      0.085200
     46 H33         1.6750   -2.6950   -4.6570 hn        1 R69      0.413800
     47 H341        1.1870   -0.9780   -6.4380 h1        1 R69      0.076200
     48 H342        2.8840   -1.6070   -6.2360 h1        1 R69      0.076200
     49 H351        3.6460    0.3820   -5.1770 hc        1 R69      0.084700
     50 H352        2.5800    0.9090   -6.5380 hc        1 R69      0.084700
     51 H361        2.0790    2.3270   -4.7280 hc        1 R69      0.080700
     52 H362        0.6650    1.2190   -4.8550 hc        1 R69      0.080700
     53 H37         2.9950    0.3410   -3.0720 hx        1 R69      0.138700
     54 H41         1.1340    2.0450   -1.6240 hn        1 R69      0.471300
     55 H52         5.6020    2.2250   -0.2040 ha        1 R69      0.147000
     56 H53         6.8130    4.3430    0.3290 ha        1 R69      0.187500
     57 H56         2.1430    4.5730   -1.4700 ha        1 R69      0.147000
     58 H55         3.3830    6.6470   -0.9760 ha        1 R69      0.187500
     59 H92         4.4790    5.9490    3.3080 ho        1 R69      0.433000
     60 H73         6.2550    6.5740    4.5870 ha        1 R69      0.146000
     61 H74         8.4050    7.7570    4.6030 ha        1 R69      0.156000
     62 H76         8.1750    8.1490    0.2560 ha        1 R69      0.161000
     63 H981       11.3100    9.5620    3.4820 h1        1 R69      0.048200
     64 H982        9.6460    9.7810    4.1980 h1        1 R69      0.048200
     65 H983       10.4990    8.1680    4.3190 h1        1 R69      0.048200
     66 H991        9.3780   10.1250    0.9410 h1        1 R69      0.048200
     67 H992       11.1250    9.8800    1.4050 h1        1 R69      0.048200
     68 H993       10.2830    8.6410    0.3760 h1        1 R69      0.048200
     69 H232        1.1450   -2.0080   -1.6230 hn        1 R69      0.480800
     70 H412        2.0550    2.8680   -2.7420 hn        1 R69      0.471300
@<TRIPOS>BOND
     1    1    2 2   
     2    2    3 1   
     3    2    9 1   
     4    3    4 ar  
     5    3    8 ar  
     6    4    5 ar  
     7    4   38 1   
     8    5    6 ar  
     9    5   39 1   
    10    6    7 ar  
    11    7    8 ar  
    12    7   40 1   
    13    8   41 1   
    14    9   10 1   
    15    9   42 1   
    16    9   69 1   
    17   10   11 1   
    18   10   16 1   
    19   10   43 1   
    20   11   12 1   
    21   11   44 1   
    22   11   45 1   
    23   12   13 1   
    24   12   46 1   
    25   13   14 1   
    26   13   47 1   
    27   13   48 1   
    28   14   15 1   
    29   14   49 1   
    30   14   50 1   
    31   15   16 1   
    32   15   51 1   
    33   15   52 1   
    34   16   17 1   
    35   16   53 1   
    36   17   18 1   
    37   17   54 1   
    38   17   70 1   
    39   18   19 2   
    40   18   20 1   
    41   20   21 ar  
    42   20   23 ar  
    43   21   22 ar  
    44   21   55 1   
    45   22   25 ar  
    46   22   56 1   
    47   23   24 ar  
    48   23   57 1   
    49   24   25 ar  
    50   24   58 1   
    51   25   26 1   
    52   26   27 2   
    53   26   28 1   
    54   28   29 ar  
    55   28   33 ar  
    56   29   30 1   
    57   29   31 ar  
    58   30   59 1   
    59   31   32 ar  
    60   31   60 1   
    61   32   34 ar  
    62   32   61 1   
    63   33   34 ar  
    64   33   62 1   
    65   34   35 1   
    66   35   36 1   
    67   35   37 1   
    68   36   63 1   
    69   36   64 1   
    70   36   65 1   
    71   37   66 1   
    72   37   67 1   
    73   37   68 1   
@<TRIPOS>SUBSTRUCTURE
     1 R69         1 TEMP              0 ****  ****    0 ROOT
