@<TRIPOS>MOLECULE
R69
   71    74     1     0     0
SMALL
bcc


@<TRIPOS>ATOM
      1 O22         1.5520   -0.5550    0.4350 o         1 R69     -0.503100
      2 C21         1.7780   -1.5390   -0.2660 c         1 R69      0.609700
      3 C14         2.0940   -2.9020    0.1430 ca        1 R69     -0.177600
      4 C13         1.7140   -3.2930    1.4390 ca        1 R69     -0.189300
      5 C12         2.0210   -4.6100    1.8510 ca        1 R69      0.430200
      6 N11         2.6620   -5.4960    1.0720 nb        1 R69     -0.564000
      7 C16         3.0310   -5.1010   -0.1650 ca        1 R69      0.430200
      8 C15         2.7720   -3.8190   -0.6800 ca        1 R69     -0.189300
      9 N23         1.6920   -1.2700   -1.7630 n4        1 R69     -0.695800
     10 C31         0.6190   -0.2770   -2.1340 c3        1 R69      0.110500
     11 C32        -0.2270   -0.8300   -3.3300 c3        1 R69      0.155800
     12 N33         0.4730   -0.6980   -4.5760 n3        1 R69     -0.865200
     13 C34         0.0730    0.4530   -5.3660 c3        1 R69      0.148800
     14 C35         0.5200    1.7930   -4.7890 c3        1 R69     -0.092400
     15 C36         0.2480    1.9700   -3.3070 c3        1 R69     -0.092400
     16 C37         1.2190    1.1200   -2.4650 c3        1 R69      0.126500
     17 N41         1.6440    1.8560   -1.2100 n4        1 R69     -0.703800
     18 C42         3.1510    1.8580   -0.9800 c         1 R69      0.605700
     19 O43         3.7190    0.8410   -1.3720 o         1 R69     -0.496100
     20 C51         3.7360    3.0250   -0.3310 ca        1 R69     -0.198600
     21 C52         5.1360    3.1520   -0.4030 ca        1 R69     -0.061000
     22 C53         5.7780    4.2120    0.2400 ca        1 R69     -0.079500
     23 C56         2.9880    3.9760    0.3870 ca        1 R69     -0.061000
     24 C55         3.6360    5.0220    1.0320 ca        1 R69     -0.079500
     25 C54         5.0360    5.1450    0.9680 ca        1 R69     -0.052600
     26 C61         5.6760    6.2110    1.7880 c         1 R69      0.584300
     27 O62         5.2820    6.3820    2.9490 o         1 R69     -0.476100
     28 C71         6.7710    7.0510    1.2520 ca        1 R69     -0.198600
     29 C72         6.9930    7.3170   -0.1150 ca        1 R69      0.220100
     30 O92         6.1850    6.7080   -1.0290 oh        1 R69     -0.489100
     31 C73         8.0250    8.1930   -0.5150 ca        1 R69     -0.196000
     32 C74         8.8290    8.8090    0.4260 ca        1 R69     -0.028000
     33 C76         7.5900    7.6880    2.1990 ca        1 R69     -0.009000
     34 C75         8.6110    8.5600    1.8000 ca        1 R69     -0.092400
     35 N95         9.4510    9.2410    2.7980 n4        1 R69     -0.544800
     36 C98         8.6410   10.1470    3.6630 c3        1 R69      0.085600
     37 C99        10.2210    8.2660    3.6220 c3        1 R69      0.085600
     38 H13         1.1930   -2.6030    2.1200 ha        1 R69      0.163000
     39 H12         1.7360   -4.9660    2.8640 h4        1 R69      0.077100
     40 H16         3.5670   -5.8620   -0.7720 h4        1 R69      0.077100
     41 H15         3.1360   -3.5700   -1.6860 ha        1 R69      0.163000
     42 H23         1.5020   -2.1610   -2.2460 hn        1 R69      0.479800
     43 H31        -0.0930   -0.2020   -1.2550 hx        1 R69      0.119700
     44 H321       -1.2080   -0.2680   -3.3020 h1        1 R69      0.089700
     45 H322       -0.4800   -1.9110   -3.1170 h1        1 R69      0.089700
     46 H33         0.4210   -1.5370   -5.1250 hn        1 R69      0.418800
     47 H341        0.5420    0.3410   -6.3880 h1        1 R69      0.081200
     48 H342       -1.0480    0.4820   -5.5120 h1        1 R69      0.081200
     49 H351       -0.0400    2.5960   -5.3450 hc        1 R69      0.084200
     50 H352        1.6120    1.9490   -4.9960 hc        1 R69      0.084200
     51 H361        0.3770    3.0650   -3.0780 hc        1 R69      0.081200
     52 H362       -0.8160    1.7150   -3.0610 hc        1 R69      0.081200
     53 H37         2.1600    0.9830   -3.0920 hx        1 R69      0.138700
     54 H41         1.2040    1.4290   -0.3790 hn        1 R69      0.474800
     55 H52         5.7310    2.4070   -0.9610 ha        1 R69      0.157500
     56 H53         6.8750    4.3050    0.1710 ha        1 R69      0.182500
     57 H56         1.8950    3.9040    0.4960 ha        1 R69      0.157500
     58 H55         3.0550    5.7520    1.6250 ha        1 R69      0.182500
     59 H92         6.3880    7.0580   -1.9150 ho        1 R69      0.459000
     60 H73         8.1870    8.3940   -1.5880 ha        1 R69      0.183000
     61 H74         9.6280    9.4920    0.0840 ha        1 R69      0.175000
     62 H76         7.3880    7.4900    3.2700 ha        1 R69      0.182000
     63 H981        9.3300   10.6920    4.3640 hx        1 R69      0.110867
     64 H982        8.0930   10.8840    3.0170 hx        1 R69      0.110867
     65 H983        7.9020    9.5440    4.2550 hx        1 R69      0.110867
     66 H991        9.5130    7.6340    4.2200 hx        1 R69      0.110867
     67 H992       10.8340    7.6110    2.9470 hx        1 R69      0.110867
     68 H993       10.8970    8.8340    4.3190 hx        1 R69      0.110867
     69 H232        2.6140   -0.9340   -2.0850 hn        1 R69      0.479800
     70 H412        1.3240    2.8320   -1.2710 hn        1 R69      0.474800
     71 H951       10.1320    9.8240    2.2840 hn        1 R69      0.460800
@<TRIPOS>BOND
     1    1    2 2   
     2    2    3 1   
     3    2    9 1   
     4    3    4 ar  
     5    3    8 ar  
     6    4    5 ar  
     7    4   38 1   
     8    5    6 ar  
     9    5   39 1   
    10    6    7 ar  
    11    7    8 ar  
    12    7   40 1   
    13    8   41 1   
    14    9   10 1   
    15    9   42 1   
    16    9   69 1   
    17   10   11 1   
    18   10   16 1   
    19   10   43 1   
    20   11   12 1   
    21   11   44 1   
    22   11   45 1   
    23   12   13 1   
    24   12   46 1   
    25   13   14 1   
    26   13   47 1   
    27   13   48 1   
    28   14   15 1   
    29   14   49 1   
    30   14   50 1   
    31   15   16 1   
    32   15   51 1   
    33   15   52 1   
    34   16   17 1   
    35   16   53 1   
    36   17   18 1   
    37   17   54 1   
    38   17   70 1   
    39   18   19 2   
    40   18   20 1   
    41   20   21 ar  
    42   20   23 ar  
    43   21   22 ar  
    44   21   55 1   
    45   22   25 ar  
    46   22   56 1   
    47   23   24 ar  
    48   23   57 1   
    49   24   25 ar  
    50   24   58 1   
    51   25   26 1   
    52   26   27 2   
    53   26   28 1   
    54   28   29 ar  
    55   28   33 ar  
    56   29   30 1   
    57   29   31 ar  
    58   30   59 1   
    59   31   32 ar  
    60   31   60 1   
    61   32   34 ar  
    62   32   61 1   
    63   33   34 ar  
    64   33   62 1   
    65   34   35 1   
    66   35   36 1   
    67   35   37 1   
    68   35   71 1   
    69   36   63 1   
    70   36   64 1   
    71   36   65 1   
    72   37   66 1   
    73   37   67 1   
    74   37   68 1   
@<TRIPOS>SUBSTRUCTURE
     1 R69         1 TEMP              0 ****  ****    0 ROOT
