@<TRIPOS>MOLECULE
R69
   70    73     1     0     0
SMALL
bcc


@<TRIPOS>ATOM
      1 O22        -0.0320   -0.0970    0.0980 o         1 R69     -0.427100
      2 C21         0.6690   -1.0460   -0.2210 c         1 R69      0.588700
      3 C14         0.7610   -2.3640    0.4100 ca        1 R69     -0.165600
      4 C13        -0.2690   -2.7170    1.2980 ca        1 R69     -0.192800
      5 C12        -0.1990   -3.9800    1.9280 ca        1 R69      0.425700
      6 N11         0.8010   -4.8530    1.7240 nb        1 R69     -0.578000
      7 C16         1.7870   -4.4950    0.8750 ca        1 R69      0.425700
      8 C15         1.8160   -3.2650    0.1920 ca        1 R69     -0.192800
      9 N23         1.5650   -0.8300   -1.4420 ny        1 R69     -0.682800
     10 C31         1.1530    0.3390   -2.2930 c3        1 R69      0.116500
     11 C32        -0.1670    0.0150   -3.0590 c3        1 R69      0.157800
     12 N33        -0.0870   -1.2220   -3.7870 n7        1 R69     -0.871200
     13 C34         0.3880   -1.1140   -5.1510 c3        1 R69      0.149800
     14 C35         1.8230   -0.6110   -5.2610 c3        1 R69     -0.089400
     15 C36         2.0070    0.7910   -4.7190 c3        1 R69     -0.104400
     16 C37         2.3280    0.7950   -3.2140 c3        1 R69      0.125500
     17 N41         2.8260    2.1630   -2.8080 ny        1 R69     -0.698800
     18 C42         3.6670    2.1820   -1.5270 c         1 R69      0.609700
     19 O43         3.6400    1.1240   -0.8980 o         1 R69     -0.531100
     20 C51         4.3800    3.4040   -1.2420 ca        1 R69     -0.232600
     21 C52         5.2960    3.3630   -0.1660 ca        1 R69     -0.055500
     22 C53         6.0420    4.4920    0.1590 ca        1 R69     -0.089500
     23 C56         4.2130    4.6040   -1.9660 ca        1 R69     -0.055500
     24 C55         4.9610    5.7210   -1.6350 ca        1 R69     -0.089500
     25 C54         5.8850    5.6720   -0.5740 ca        1 R69     -0.007600
     26 C61         6.7300    6.8750   -0.2920 c         1 R69      0.587300
     27 O62         7.3410    7.3990   -1.2290 o         1 R69     -0.481100
     28 C71         6.8160    7.3460    1.0970 ca        1 R69     -0.175600
     29 C72         5.7260    7.3320    1.9820 ca        1 R69      0.098100
     30 O92         4.5240    6.8180    1.5370 oh        1 R69     -0.533100
     31 C73         5.8740    7.8360    3.2820 ca        1 R69     -0.168000
     32 C74         7.0920    8.3390    3.7070 ca        1 R69     -0.118000
     33 C76         8.0410    7.8720    1.5260 ca        1 R69     -0.123000
     34 C75         8.2200    8.3590    2.8420 ca        1 R69      0.156600
     35 N95         9.4770    8.7770    3.2930 nh        1 R69     -0.655000
     36 C98         9.5450    9.4880    4.5450 c3        1 R69      0.182100
     37 C99        10.4760    9.0980    2.3050 c3        1 R69      0.182100
     38 H13        -1.1070   -2.0340    1.5060 ha        1 R69      0.160500
     39 H12        -0.9910   -4.3000    2.6360 h4        1 R69      0.069600
     40 H16         2.5980   -5.2390    0.7400 h4        1 R69      0.069600
     41 H15         2.6690   -3.0490   -0.4640 ha        1 R69      0.160500
     42 H23         2.5250   -0.6890   -1.0960 hn        1 R69      0.477800
     43 H31         0.8830    1.1710   -1.5680 hx        1 R69      0.117700
     44 H321       -0.3990    0.9140   -3.7000 h1        1 R69      0.083700
     45 H322       -0.9840   -0.0550   -2.2800 h1        1 R69      0.083700
     46 H33        -0.9590   -1.7200   -3.7560 hn        1 R69      0.419800
     47 H341        0.3410   -2.1490   -5.6010 h1        1 R69      0.077200
     48 H342       -0.2750   -0.4420   -5.7730 h1        1 R69      0.077200
     49 H351        2.0870   -0.6030   -6.3560 hc        1 R69      0.081200
     50 H352        2.5300   -1.3240   -4.7610 hc        1 R69      0.081200
     51 H361        1.1050    1.4190   -4.9420 hc        1 R69      0.081700
     52 H362        2.8750    1.2530   -5.2720 hc        1 R69      0.081700
     53 H37         3.2220    0.1050   -3.0790 hx        1 R69      0.113700
     54 H41         2.0330    2.8020   -2.6860 hn        1 R69      0.469300
     55 H52         5.4210    2.4320    0.4130 ha        1 R69      0.145500
     56 H53         6.7530    4.4590    1.0040 ha        1 R69      0.188500
     57 H56         3.4930    4.6910   -2.7930 ha        1 R69      0.145500
     58 H55         4.8490    6.6610   -2.2050 ha        1 R69      0.188500
     59 H92         3.8390    7.0990    2.1620 ho        1 R69      0.433000
     60 H73         5.0120    7.8420    3.9660 ha        1 R69      0.147000
     61 H74         7.1670    8.7300    4.7350 ha        1 R69      0.157000
     62 H76         8.8670    7.9030    0.7950 ha        1 R69      0.162000
     63 H981        8.8900   10.4020    4.5530 h1        1 R69      0.048867
     64 H982       10.6040    9.8030    4.7440 h1        1 R69      0.048867
     65 H983        9.2230    8.8020    5.3750 h1        1 R69      0.048867
     66 H991       11.3830    9.5310    2.8040 h1        1 R69      0.048867
     67 H992       10.0990    9.8350    1.5440 h1        1 R69      0.048867
     68 H993       10.7840    8.1560    1.7760 h1        1 R69      0.048867
     69 H232        1.5400   -1.6890   -2.0110 hn        1 R69      0.477800
     70 H412        3.4130    2.5340   -3.5690 hn        1 R69      0.469300
@<TRIPOS>BOND
     1    1    2 2   
     2    2    3 1   
     3    2    9 1   
     4    3    4 ar  
     5    3    8 ar  
     6    4    5 ar  
     7    4   38 1   
     8    5    6 ar  
     9    5   39 1   
    10    6    7 ar  
    11    7    8 ar  
    12    7   40 1   
    13    8   41 1   
    14    9   10 1   
    15    9   42 1   
    16    9   69 1   
    17   10   11 1   
    18   10   16 1   
    19   10   43 1   
    20   11   12 1   
    21   11   44 1   
    22   11   45 1   
    23   12   13 1   
    24   12   46 1   
    25   13   14 1   
    26   13   47 1   
    27   13   48 1   
    28   14   15 1   
    29   14   49 1   
    30   14   50 1   
    31   15   16 1   
    32   15   51 1   
    33   15   52 1   
    34   16   17 1   
    35   16   53 1   
    36   17   18 1   
    37   17   54 1   
    38   17   70 1   
    39   18   19 2   
    40   18   20 1   
    41   20   21 ar  
    42   20   23 ar  
    43   21   22 ar  
    44   21   55 1   
    45   22   25 ar  
    46   22   56 1   
    47   23   24 ar  
    48   23   57 1   
    49   24   25 ar  
    50   24   58 1   
    51   25   26 1   
    52   26   27 2   
    53   26   28 1   
    54   28   29 ar  
    55   28   33 ar  
    56   29   30 1   
    57   29   31 ar  
    58   30   59 1   
    59   31   32 ar  
    60   31   60 1   
    61   32   34 ar  
    62   32   61 1   
    63   33   34 ar  
    64   33   62 1   
    65   34   35 1   
    66   35   36 1   
    67   35   37 1   
    68   36   63 1   
    69   36   64 1   
    70   36   65 1   
    71   37   66 1   
    72   37   67 1   
    73   37   68 1   
@<TRIPOS>SUBSTRUCTURE
     1 R69         1 TEMP              0 ****  ****    0 ROOT
