@<TRIPOS>MOLECULE
R69
   68    71     1     0     0
SMALL
bcc


@<TRIPOS>ATOM
      1 O22         3.0790    2.1930    1.3630 o         1 R69     -0.612100
      2 C21         2.8750    1.9800    0.1490 c         1 R69      0.665700
      3 C14         1.8310    2.7430   -0.6010 ca        1 R69     -0.105600
      4 C13         1.5560    4.0580   -0.2070 ca        1 R69     -0.209300
      5 C12         0.5660    4.7710   -0.9060 ca        1 R69      0.385700
      6 N11        -0.1370    4.2560   -1.9340 nb        1 R69     -0.652000
      7 C16         0.1370    2.9880   -2.2940 ca        1 R69      0.385700
      8 C15         1.1080    2.1880   -1.6630 ca        1 R69     -0.209300
      9 N23         3.6340    1.0800   -0.5680 n         1 R69     -0.552900
     10 C31         4.6050    0.2110    0.0560 c3        1 R69      0.084700
     11 C32         5.8960    0.2160   -0.8130 c3        1 R69      0.162800
     12 N33         6.9340   -0.7150   -0.4420 n3        1 R69     -0.839200
     13 C34         7.0820   -1.0380    0.9580 c3        1 R69      0.169800
     14 C35         6.1910   -2.2020    1.3890 c3        1 R69     -0.076400
     15 C36         4.7420   -1.8170    1.5610 c3        1 R69     -0.088400
     16 C37         4.1040   -1.2650    0.2710 c3        1 R69      0.094700
     17 N41         2.6640   -1.4070    0.3410 n         1 R69     -0.557900
     18 C42         1.8450   -1.3850   -0.7630 c         1 R69      0.670700
     19 O43         2.2890   -1.1570   -1.9110 o         1 R69     -0.630100
     20 C51         0.3940   -1.6710   -0.5450 ca        1 R69     -0.124600
     21 C52        -0.2650   -2.4740   -1.4830 ca        1 R69     -0.106000
     22 C53        -1.6180   -2.7640   -1.3210 ca        1 R69     -0.092500
     23 C56        -0.3070   -1.1490    0.5470 ca        1 R69     -0.106000
     24 C55        -1.6640   -1.4280    0.6990 ca        1 R69     -0.092500
     25 C54        -2.3260   -2.2350   -0.2340 ca        1 R69     -0.145600
     26 C61        -3.7580   -2.5830   -0.0710 c         1 R69      0.600300
     27 O62        -4.1560   -3.7260   -0.3530 o         1 R69     -0.557100
     28 C71        -4.6760   -1.5430    0.4280 ca        1 R69     -0.243600
     29 C72        -5.8640   -1.8700    1.1090 ca        1 R69      0.176100
     30 O92        -6.2890   -3.1390    1.3930 oh        1 R69     -0.501100
     31 C73        -6.7100   -0.8460    1.5810 ca        1 R69     -0.159000
     32 C74        -6.3970    0.4810    1.3500 ca        1 R69     -0.108000
     33 C76        -4.3760   -0.1910    0.2000 ca        1 R69     -0.080000
     34 C75        -5.2200    0.8400    0.6490 ca        1 R69      0.075600
     35 N95        -4.8230    2.1930    0.4530 nh        1 R69     -0.634000
     36 C98        -5.4960    3.1740    1.2710 c3        1 R69      0.168100
     37 C99        -4.6880    2.5950   -0.9300 c3        1 R69      0.168100
     38 H13         2.0970    4.5110    0.6370 ha        1 R69      0.164500
     39 H12         0.3200    5.8120   -0.6280 h4        1 R69      0.027100
     40 H16        -0.4550    2.5890   -3.1380 h4        1 R69      0.027100
     41 H15         1.2680    1.1530   -2.0040 ha        1 R69      0.164500
     42 H23         3.3530    0.8310   -1.4920 hn        1 R69      0.332500
     43 H31         4.8490    0.6510    1.0700 h1        1 R69      0.086700
     44 H321        6.2810    1.2800   -0.8120 h1        1 R69      0.040200
     45 H322        5.6210   -0.0460   -1.8780 h1        1 R69      0.040200
     46 H33         7.8070   -0.4000   -0.8220 hn        1 R69      0.371800
     47 H341        6.8760   -0.1550    1.6320 h1        1 R69      0.031700
     48 H342        8.1530   -1.3470    1.1330 h1        1 R69      0.031700
     49 H351        6.5760   -2.5790    2.3740 hc        1 R69      0.052700
     50 H352        6.2740   -3.0420    0.6500 hc        1 R69      0.052700
     51 H361        4.6440   -1.0560    2.3800 hc        1 R69      0.048700
     52 H362        4.1860   -2.7360    1.8950 hc        1 R69      0.048700
     53 H37         4.4510   -1.8730   -0.6180 h1        1 R69      0.090700
     54 H41         2.2550   -1.4840    1.2420 hn        1 R69      0.317500
     55 H52         0.2930   -2.8670   -2.3480 ha        1 R69      0.153000
     56 H53        -2.1390   -3.4140   -2.0420 ha        1 R69      0.156000
     57 H56         0.1930   -0.5010    1.2830 ha        1 R69      0.153000
     58 H55        -2.2180   -1.0110    1.5560 ha        1 R69      0.156000
     59 H92        -5.7230   -3.7870    0.9430 ho        1 R69      0.452000
     60 H73        -7.6250   -1.1250    2.1240 ha        1 R69      0.156000
     61 H74        -7.0850    1.2580    1.7200 ha        1 R69      0.141000
     62 H76        -3.4520    0.0580   -0.3490 ha        1 R69      0.149000
     63 H981       -4.9340    4.1420    1.1830 h1        1 R69      0.038033
     64 H982       -6.5630    3.3540    0.9640 h1        1 R69      0.038033
     65 H983       -5.4770    2.8420    2.3420 h1        1 R69      0.038033
     66 H991       -4.0870    3.5430   -0.9610 h1        1 R69      0.038033
     67 H992       -4.1430    1.8040   -1.5060 h1        1 R69      0.038033
     68 H993       -5.6780    2.7830   -1.4270 h1        1 R69      0.038033
@<TRIPOS>BOND
     1    1    2 2   
     2    2    3 1   
     3    2    9 1   
     4    3    4 ar  
     5    3    8 ar  
     6    4    5 ar  
     7    4   38 1   
     8    5    6 ar  
     9    5   39 1   
    10    6    7 ar  
    11    7    8 ar  
    12    7   40 1   
    13    8   41 1   
    14    9   10 1   
    15    9   42 1   
    16   10   11 1   
    17   10   16 1   
    18   10   43 1   
    19   11   12 1   
    20   11   44 1   
    21   11   45 1   
    22   12   13 1   
    23   12   46 1   
    24   13   14 1   
    25   13   47 1   
    26   13   48 1   
    27   14   15 1   
    28   14   49 1   
    29   14   50 1   
    30   15   16 1   
    31   15   51 1   
    32   15   52 1   
    33   16   17 1   
    34   16   53 1   
    35   17   18 1   
    36   17   54 1   
    37   18   19 2   
    38   18   20 1   
    39   20   21 ar  
    40   20   23 ar  
    41   21   22 ar  
    42   21   55 1   
    43   22   25 ar  
    44   22   56 1   
    45   23   24 ar  
    46   23   57 1   
    47   24   25 ar  
    48   24   58 1   
    49   25   26 1   
    50   26   27 2   
    51   26   28 1   
    52   28   29 ar  
    53   28   33 ar  
    54   29   30 1   
    55   29   31 ar  
    56   30   59 1   
    57   31   32 ar  
    58   31   60 1   
    59   32   34 ar  
    60   32   61 1   
    61   33   34 ar  
    62   33   62 1   
    63   34   35 1   
    64   35   36 1   
    65   35   37 1   
    66   36   63 1   
    67   36   64 1   
    68   36   65 1   
    69   37   66 1   
    70   37   67 1   
    71   37   68 1   
@<TRIPOS>SUBSTRUCTURE
     1 R69         1 TEMP              0 ****  ****    0 ROOT
