@<TRIPOS>MOLECULE
R69
   68    64     1     0     0
SMALL
bcc


@<TRIPOS>ATOM
      1 O22        -3.2350   -4.2340    0.8860 o         1 R69     -0.373000
      2 C21        -2.0810   -3.8560    0.6700 c1        1 R69      0.341000
      3 C14        -1.0040   -3.9570    1.7870 c1        1 R69     -0.081000
      4 C13         0.3110   -3.5970    1.5110 c2        1 R69     -0.160000
      5 C12         1.2930   -3.7730    2.4680 c1        1 R69     -0.079000
      6 N11         0.9750   -4.3010    3.6870 n1        1 R69     -0.123000
      7 C16        -0.3270   -4.6590    3.9650 c1        1 R69     -0.080000
      8 C15        -1.3230   -4.4810    2.9970 c1        1 R69     -0.130000
      9 N23        -1.7210   -3.4070   -0.6010 n3        1 R69     -0.366000
     10 C31        -2.6810   -3.3880   -1.6380 c3        1 R69      0.008000
     11 C32        -2.7710   -4.7490   -2.2530 c3        1 R69     -0.076000
     12 N33        -3.3710   -4.6840   -3.5360 n3        1 R69     -0.318000
     13 C34        -4.5600   -3.8560   -3.5120 c3        1 R69     -0.067000
     14 C35        -4.3020   -2.5380   -4.1530 c3        1 R69     -0.155000
     15 C36        -3.4830   -1.6260   -3.2200 c3        1 R69     -0.166000
     16 C37        -2.2790   -2.3350   -2.6950 c3        1 R69      0.020000
     17 N41        -1.3870   -1.3700   -2.0880 n         1 R69     -0.371000
     18 C42        -0.1560   -0.9660   -2.7850 c2        1 R69      0.345000
     19 O43         0.1000   -1.4250   -3.8250 o         1 R69     -0.389000
     20 C51         0.7520    0.1620   -2.1850 c2        1 R69     -0.099000
     21 C52         0.1750    1.2080   -1.4300 c2        1 R69     -0.117000
     22 C53         0.9670    2.2050   -0.9300 c1        1 R69     -0.085000
     23 C56         2.1260    0.1470   -2.4190 c1        1 R69     -0.097000
     24 C55         2.9180    1.1520   -1.9140 c1        1 R69     -0.088000
     25 C54         2.3440    2.1900   -1.1640 c1        1 R69     -0.120000
     26 C61         3.1700    3.2880   -0.6800 c2        1 R69      0.326000
     27 O62         4.2790    3.4300   -1.0950 o         1 R69     -0.268000
     28 C71         2.6320    4.2180    0.4660 c2        1 R69     -0.141000
     29 C72         1.4930    4.9790    0.2600 c2        1 R69      0.075000
     30 O92         0.9520    5.1130   -1.0690 oh        1 R69     -0.252000
     31 C73         0.9650    5.7560    1.3190 c1        1 R69     -0.190000
     32 C74         1.6010    5.7520    2.5830 c1        1 R69     -0.129000
     33 C76         3.2590    4.2180    1.7210 c1        1 R69     -0.089000
     34 C75         2.7250    5.0000    2.7830 c1        1 R69      0.018000
     35 N95         3.3160    4.9160    4.1210 n3        1 R69     -0.238000
     36 C98         2.4480    4.7070    5.2940 c3        1 R69     -0.106500
     37 C99         4.6000    5.2930    4.3040 c3        1 R69     -0.106500
     38 H13         0.5380   -3.2250    0.6570 ha        1 R69      0.157000
     39 H12         2.2630   -3.5050    2.2620 ha        1 R69      0.163000
     40 H16        -0.5590   -5.0420    4.8510 ha        1 R69      0.164000
     41 H15        -2.2320   -4.7280    3.1900 ha        1 R69      0.167000
     42 H23        -0.8430   -3.1470   -0.7720 hn        1 R69      0.247000
     43 H31        -3.5630   -3.1440   -1.2540 h1        1 R69      0.126000
     44 H321       -1.8420   -5.1360   -2.3390 h1        1 R69      0.079500
     45 H322       -3.3030   -5.3220   -1.6810 h1        1 R69      0.079500
     46 H33        -3.6060   -5.5690   -3.8230 hn        1 R69      0.167000
     47 H341       -4.8420   -3.7060   -2.5520 h1        1 R69      0.071000
     48 H342       -5.3160   -4.3360   -4.0140 h1        1 R69      0.071000
     49 H351       -3.7920   -2.6790   -5.0190 hc        1 R69      0.091500
     50 H352       -5.1480   -2.1090   -4.3480 hc        1 R69      0.091500
     51 H361       -4.0640   -1.3450   -2.4420 hc        1 R69      0.086500
     52 H362       -3.2060   -0.8540   -3.7040 hc        1 R69      0.086500
     53 H37        -1.8290   -2.7720   -3.4240 h1        1 R69      0.132000
     54 H41        -1.6160   -0.9730   -1.3020 hn        1 R69      0.230000
     55 H52        -0.7930    1.2230   -1.2670 ha        1 R69      0.139000
     56 H53         0.5630    2.9390   -0.3990 ha        1 R69      0.153000
     57 H56         2.5310   -0.5860   -2.9450 ha        1 R69      0.153000
     58 H55         3.9050    1.1440   -2.0840 ha        1 R69      0.158000
     59 H92         1.0270    5.9830   -1.3430 ho        1 R69      0.223000
     60 H73         0.1500    6.3010    1.1770 ha        1 R69      0.137000
     61 H74         1.2340    6.2920    3.3220 ha        1 R69      0.139000
     62 H76         4.0750    3.6730    1.8700 ha        1 R69      0.150000
     63 H981        3.0290    4.7030    6.1600 h1        1 R69      0.077667
     64 H982        1.9670    3.8200    5.2080 h1        1 R69      0.077667
     65 H983        1.8120    5.4100    5.3430 h1        1 R69      0.077667
     66 H991        4.7140    6.2370    4.0040 h1        1 R69      0.077667
     67 H992        5.1960    4.7020    3.7710 h1        1 R69      0.077667
     68 H993        4.8330    5.2200    5.2620 h1        1 R69      0.077667
@<TRIPOS>BOND
     1    1    2 1   
     2    2    9 1   
     3    3    4 1   
     4    3    8 1   
     5    4    5 1   
     6    4   38 1   
     7    5   39 1   
     8    6    7 1   
     9    7   40 1   
    10    8   41 1   
    11    9   10 1   
    12    9   42 1   
    13   10   11 1   
    14   10   16 1   
    15   10   43 1   
    16   11   12 1   
    17   11   44 1   
    18   11   45 1   
    19   12   13 1   
    20   12   46 1   
    21   13   14 1   
    22   13   47 1   
    23   13   48 1   
    24   14   15 1   
    25   14   49 1   
    26   14   50 1   
    27   15   16 1   
    28   15   51 1   
    29   15   52 1   
    30   16   17 1   
    31   16   53 1   
    32   17   18 1   
    33   17   54 1   
    34   18   19 1   
    35   18   20 1   
    36   20   21 1   
    37   20   23 1   
    38   21   22 1   
    39   21   55 1   
    40   22   56 1   
    41   23   57 1   
    42   24   25 1   
    43   24   58 1   
    44   25   26 1   
    45   26   27 1   
    46   26   28 1   
    47   28   29 1   
    48   28   33 1   
    49   29   30 1   
    50   29   31 1   
    51   30   59 1   
    52   31   60 1   
    53   32   34 1   
    54   32   61 1   
    55   33   62 1   
    56   34   35 1   
    57   35   36 1   
    58   35   37 1   
    59   36   63 1   
    60   36   64 1   
    61   36   65 1   
    62   37   66 1   
    63   37   67 1   
    64   37   68 1   
@<TRIPOS>SUBSTRUCTURE
     1 R69         1 TEMP              0 ****  ****    0 ROOT
