@<TRIPOS>MOLECULE
R6C
   52    54     1     0     0
SMALL
bcc


@<TRIPOS>ATOM
      1 OAP        -0.8350   -0.8560    3.1290 oh        1 R6C     -0.625800
      2 CAQ        -0.3440   -0.9740    1.8050 c3        1 R6C      0.110400
      3 CAR         1.0330   -0.2800    1.7740 c3        1 R6C      0.133500
      4 CAK         0.8570    1.2270    1.9930 c3        1 R6C     -0.110400
      5 CAI         2.1440    2.0010    1.8970 c3        1 R6C     -0.120100
      6 NAS         1.9540   -0.8720    2.8160 n4        1 R6C     -0.739700
      7 CAT         2.6500   -2.0980    2.3160 ca        1 R6C      0.739900
      8 NAU         2.0890   -3.2830    2.6730 nb        1 R6C     -0.676000
      9 CAV         2.7870   -4.3610    2.1960 ca        1 R6C      0.416800
     10 NAW         2.5580   -5.7330    2.3390 na        1 R6C     -0.227000
     11 CAZ         1.4900   -6.3780    3.0860 c3        1 R6C      0.047000
     12 CAY         0.6260   -7.2760    2.1980 c3        1 R6C     -0.116100
     13 CBA         2.0190   -7.1950    4.2650 c3        1 R6C     -0.116100
     14 CAX         3.6020   -6.3720    1.6340 cc        1 R6C      0.441700
     15 CAN         4.0020   -4.2500    1.3800 ca        1 R6C     -0.129200
     16 NAO         4.4720   -5.5200    1.0530 nd        1 R6C     -0.491100
     17 NAL         3.7790   -1.8450    1.5600 nb        1 R6C     -0.801000
     18 CAM         4.4560   -2.9260    1.0950 ca        1 R6C      0.762600
     19 OAJ         5.5800   -2.8190    0.3470 os        1 R6C     -0.387100
     20 CAD         6.0840   -1.4880    0.0470 c3        1 R6C      0.189700
     21 CAE         7.3350   -1.6910   -0.7370 ca        1 R6C     -0.126300
     22 CAG         7.3390   -2.5180   -1.8650 ca        1 R6C     -0.100500
     23 CAH         8.5070   -2.6710   -2.6120 ca        1 R6C     -0.127000
     24 CAF         9.6690   -1.9950   -2.2380 ca        1 R6C     -0.103000
     25 CAC         9.6660   -1.1720   -1.1110 ca        1 R6C     -0.127000
     26 CAB         8.5040   -1.0230   -0.3560 ca        1 R6C     -0.100500
     27 HAP        -1.7390   -1.1950    3.1350 ho        1 R6C      0.446000
     28 HAQ1       -1.0200   -0.4520    1.0760 h1        1 R6C      0.069700
     29 HAQ2       -0.2520   -2.0580    1.5240 h1        1 R6C      0.069700
     30 HAR         1.5040   -0.4580    0.7610 hx        1 R6C      0.119700
     31 HAK1        0.3520    1.4110    2.9800 hc        1 R6C      0.088700
     32 HAK2        0.1490    1.5810    1.1930 hc        1 R6C      0.088700
     33 HAI1        2.7550    1.6670    1.0230 hc        1 R6C      0.056367
     34 HAI2        2.7600    1.9050    2.8250 hc        1 R6C      0.056367
     35 HAI3        1.9150    3.0890    1.7630 hc        1 R6C      0.056367
     36 HAS         1.3930   -1.1070    3.6510 hn        1 R6C      0.479800
     37 HAZ         0.8350   -5.5500    3.4950 h1        1 R6C      0.085700
     38 HAY1       -0.2060   -7.6890    2.8190 hc        1 R6C      0.059367
     39 HAY2        1.2190   -8.1280    1.7870 hc        1 R6C      0.059367
     40 HAY3        0.1840   -6.7020    1.3480 hc        1 R6C      0.059367
     41 HBA1        2.6160   -6.5600    4.9630 hc        1 R6C      0.059367
     42 HBA2        2.6570   -8.0420    3.9150 hc        1 R6C      0.059367
     43 HBA3        1.1470   -7.6140    4.8240 hc        1 R6C      0.059367
     44 HAX         3.6670   -7.4700    1.5840 h5        1 R6C      0.100800
     45 HAD1        6.2790   -0.9480    1.0100 h1        1 R6C      0.062200
     46 HAD2        5.3100   -0.9460   -0.5580 h1        1 R6C      0.062200
     47 HAG         6.4230   -3.0580   -2.1490 ha        1 R6C      0.136000
     48 HAH         8.5100   -3.3260   -3.4960 ha        1 R6C      0.144000
     49 HAF        10.5890   -2.1130   -2.8300 ha        1 R6C      0.145000
     50 HAC        10.5830   -0.6410   -0.8140 ha        1 R6C      0.144000
     51 HAB         8.5090   -0.3800    0.5370 ha        1 R6C      0.136000
     52 HAS2        2.6650   -0.1720    3.0700 hn        1 R6C      0.479800
@<TRIPOS>BOND
     1    1    2 1   
     2    1   27 1   
     3    2    3 1   
     4    2   28 1   
     5    2   29 1   
     6    3    4 1   
     7    3    6 1   
     8    3   30 1   
     9    4    5 1   
    10    4   31 1   
    11    4   32 1   
    12    5   33 1   
    13    5   34 1   
    14    5   35 1   
    15    6    7 1   
    16    6   36 1   
    17    6   52 1   
    18    7    8 ar  
    19    7   17 ar  
    20    8    9 ar  
    21    9   10 1   
    22    9   15 ar  
    23   10   11 1   
    24   10   14 1   
    25   11   12 1   
    26   11   13 1   
    27   11   37 1   
    28   12   38 1   
    29   12   39 1   
    30   12   40 1   
    31   13   41 1   
    32   13   42 1   
    33   13   43 1   
    34   14   16 2   
    35   14   44 1   
    36   15   16 1   
    37   15   18 ar  
    38   17   18 ar  
    39   18   19 1   
    40   19   20 1   
    41   20   21 1   
    42   20   45 1   
    43   20   46 1   
    44   21   22 ar  
    45   21   26 ar  
    46   22   23 ar  
    47   22   47 1   
    48   23   24 ar  
    49   23   48 1   
    50   24   25 ar  
    51   24   49 1   
    52   25   26 ar  
    53   25   50 1   
    54   26   51 1   
@<TRIPOS>SUBSTRUCTURE
     1 R6C         1 TEMP              0 ****  ****    0 ROOT
