@<TRIPOS>MOLECULE
R6C
   51    53     1     0     0
SMALL
bcc


@<TRIPOS>ATOM
      1 OAP        -0.3630   -0.1830    0.6500 oh        1 R6C     -0.607800
      2 CAQ         1.0120    0.0860    0.4270 c3        1 R6C      0.094400
      3 CAR         1.7100    0.1530    1.8050 c3        1 R6C      0.210500
      4 CAK         1.0980    1.3190    2.6000 c3        1 R6C     -0.079400
      5 CAI         1.8450    1.6070    3.8740 c3        1 R6C     -0.092100
      6 NAS         1.6440   -1.0850    2.5590 nu        1 R6C     -0.800900
      7 CAT         2.3490   -2.2270    2.1230 ca        1 R6C      0.909900
      8 NAU         1.8930   -3.4380    2.6150 nb        1 R6C     -0.775000
      9 CAV         2.6830   -4.4960    2.2910 ca        1 R6C      0.481800
     10 NAW         2.5550   -5.8540    2.6170 na        1 R6C     -0.267000
     11 CAZ         1.5230   -6.4650    3.4240 c3        1 R6C      0.056000
     12 CAY         0.7110   -7.5050    2.6480 c3        1 R6C     -0.111100
     13 CBA         2.0780   -7.1150    4.6940 c3        1 R6C     -0.111100
     14 CAX         3.6570   -6.5070    2.0060 cc        1 R6C      0.392700
     15 CAN         3.8950   -4.4130    1.4730 ca        1 R6C     -0.217200
     16 NAO         4.4650   -5.6850    1.3240 nd        1 R6C     -0.508100
     17 NAL         3.4710   -2.0340    1.3120 nb        1 R6C     -0.837000
     18 CAM         4.2240   -3.1110    1.0120 ca        1 R6C      0.752600
     19 OAJ         5.3480   -3.0190    0.2320 os        1 R6C     -0.420100
     20 CAD         5.7230   -1.7080   -0.2360 c3        1 R6C      0.181700
     21 CAE         6.9740   -1.8510   -1.0380 ca        1 R6C     -0.098300
     22 CAG         7.4530   -3.0950   -1.4600 ca        1 R6C     -0.114500
     23 CAH         8.6190   -3.1700   -2.2220 ca        1 R6C     -0.131000
     24 CAF         9.3080   -2.0090   -2.5670 ca        1 R6C     -0.128000
     25 CAC         8.8320   -0.7660   -2.1460 ca        1 R6C     -0.131000
     26 CAB         7.6710   -0.6850   -1.3820 ca        1 R6C     -0.114500
     27 HAP        -0.7630   -0.3200   -0.2160 ho        1 R6C      0.404000
     28 HAQ1        1.1280    1.0730   -0.0950 h1        1 R6C      0.035200
     29 HAQ2        1.4680   -0.7210   -0.2070 h1        1 R6C      0.035200
     30 HAR         2.7970    0.3970    1.6110 h1        1 R6C      0.085700
     31 HAK1        0.0190    1.1010    2.8190 hc        1 R6C      0.051700
     32 HAK2        1.1250    2.2230    1.9350 hc        1 R6C      0.051700
     33 HAI1        1.4390    2.5300    4.3550 hc        1 R6C      0.037367
     34 HAI2        2.9320    1.7640    3.6690 hc        1 R6C      0.037367
     35 HAI3        1.7460    0.7620    4.5990 hc        1 R6C      0.037367
     36 HAS         0.7220   -1.2810    2.9010 hn        1 R6C      0.430800
     37 HAZ         0.8180   -5.6340    3.7360 h1        1 R6C      0.090700
     38 HAY1       -0.0990   -7.8920    3.3120 hc        1 R6C      0.047367
     39 HAY2        0.2430   -7.0530    1.7410 hc        1 R6C      0.047367
     40 HAY3        1.3540   -8.3610    2.3320 hc        1 R6C      0.047367
     41 HBA1        2.6320   -6.3710    5.3150 hc        1 R6C      0.047367
     42 HBA2        2.7660   -7.9580    4.4450 hc        1 R6C      0.047367
     43 HBA3        1.2240   -7.5140    5.2930 hc        1 R6C      0.047367
     44 HAX         3.7930   -7.5900    2.1110 h5        1 R6C      0.071800
     45 HAD1        4.8960   -1.2980   -0.8770 h1        1 R6C      0.061700
     46 HAD2        5.8910   -1.0340    0.6460 h1        1 R6C      0.061700
     47 HAG         6.9100   -4.0130   -1.1830 ha        1 R6C      0.143500
     48 HAH         8.9930   -4.1510   -2.5500 ha        1 R6C      0.132500
     49 HAF        10.2260   -2.0700   -3.1690 ha        1 R6C      0.131000
     50 HAC         9.3760    0.1510   -2.4150 ha        1 R6C      0.132500
     51 HAB         7.2990    0.2940   -1.0460 ha        1 R6C      0.143500
@<TRIPOS>BOND
     1    1    2 1   
     2    1   27 1   
     3    2    3 1   
     4    2   28 1   
     5    2   29 1   
     6    3    4 1   
     7    3    6 1   
     8    3   30 1   
     9    4    5 1   
    10    4   31 1   
    11    4   32 1   
    12    5   33 1   
    13    5   34 1   
    14    5   35 1   
    15    6    7 1   
    16    6   36 1   
    17    7    8 ar  
    18    7   17 ar  
    19    8    9 ar  
    20    9   10 1   
    21    9   15 ar  
    22   10   11 1   
    23   10   14 1   
    24   11   12 1   
    25   11   13 1   
    26   11   37 1   
    27   12   38 1   
    28   12   39 1   
    29   12   40 1   
    30   13   41 1   
    31   13   42 1   
    32   13   43 1   
    33   14   16 2   
    34   14   44 1   
    35   15   16 1   
    36   15   18 ar  
    37   17   18 ar  
    38   18   19 1   
    39   19   20 1   
    40   20   21 1   
    41   20   45 1   
    42   20   46 1   
    43   21   22 ar  
    44   21   26 ar  
    45   22   23 ar  
    46   22   47 1   
    47   23   24 ar  
    48   23   48 1   
    49   24   25 ar  
    50   24   49 1   
    51   25   26 ar  
    52   25   50 1   
    53   26   51 1   
@<TRIPOS>SUBSTRUCTURE
     1 R6C         1 TEMP              0 ****  ****    0 ROOT
