@<TRIPOS>MOLECULE
R6C
   51    53     1     0     0
SMALL
bcc


@<TRIPOS>ATOM
      1 OAP         1.2030    4.4500    1.6440 oh        1 R6C     -0.607800
      2 CAQ         0.0360    3.8990    1.0560 c3        1 R6C      0.094400
      3 CAR         0.3500    3.6030   -0.4290 c3        1 R6C      0.210500
      4 CAK         0.6800    4.9330   -1.1280 c3        1 R6C     -0.079400
      5 CAI         0.7990    4.7880   -2.6210 c3        1 R6C     -0.092100
      6 NAS         1.4120    2.6330   -0.6230 nh        1 R6C     -0.800900
      7 CAT         1.2200    1.2810   -0.2670 ca        1 R6C      0.909900
      8 NAU         2.3740    0.5440   -0.0610 nb        1 R6C     -0.775000
      9 CAV         2.1520   -0.7830    0.1340 ca        1 R6C      0.481800
     10 NAW         3.0610   -1.8280    0.3530 na        1 R6C     -0.266000
     11 CAZ         4.5020   -1.7360    0.4120 c3        1 R6C      0.056000
     12 CAY         5.0630   -2.1640    1.7700 c3        1 R6C     -0.111100
     13 CBA         5.1880   -2.5520   -0.6880 c3        1 R6C     -0.111100
     14 CAX         2.2760   -3.0020    0.4950 cc        1 R6C      0.392700
     15 CAN         0.8310   -1.4130    0.1620 ca        1 R6C     -0.217200
     16 NAO         0.9570   -2.7910    0.3880 nd        1 R6C     -0.508100
     17 NAL        -0.0890    0.7920   -0.2330 nb        1 R6C     -0.836000
     18 CAM        -0.2640   -0.5290   -0.0310 ca        1 R6C      0.752600
     19 OAJ        -1.5090   -1.1000    0.0160 os        1 R6C     -0.420100
     20 CAD        -2.6400   -0.2410   -0.2330 c3        1 R6C      0.181700
     21 CAE        -3.8720   -1.0820   -0.1620 ca        1 R6C     -0.098300
     22 CAG        -3.8240   -2.4780   -0.2150 ca        1 R6C     -0.114500
     23 CAH        -5.0070   -3.2170   -0.1660 ca        1 R6C     -0.131000
     24 CAF        -6.2370   -2.5690   -0.0680 ca        1 R6C     -0.127000
     25 CAC        -6.2860   -1.1750   -0.0160 ca        1 R6C     -0.131000
     26 CAB        -5.1090   -0.4320   -0.0600 ca        1 R6C     -0.114500
     27 HAP         1.0240    4.5330    2.5880 ho        1 R6C      0.404000
     28 HAQ1       -0.8060    4.6390    1.1150 h1        1 R6C      0.035200
     29 HAQ2       -0.2630    2.9590    1.5900 h1        1 R6C      0.035200
     30 HAR        -0.5980    3.1930   -0.8900 h1        1 R6C      0.085700
     31 HAK1        1.6250    5.3600   -0.6990 hc        1 R6C      0.051700
     32 HAK2       -0.1480    5.6490   -0.8830 hc        1 R6C      0.051700
     33 HAI1        1.6820    4.1630   -2.8970 hc        1 R6C      0.037700
     34 HAI2       -0.1150    4.3070   -3.0460 hc        1 R6C      0.037700
     35 HAI3        0.9200    5.7940   -3.0930 hc        1 R6C      0.037700
     36 HAS         2.3160    2.9940   -0.3780 hn        1 R6C      0.430800
     37 HAZ         4.7660   -0.6450    0.2530 h1        1 R6C      0.090700
     38 HAY1        4.8490   -3.2410    1.9710 hc        1 R6C      0.047367
     39 HAY2        6.1690   -2.0140    1.7630 hc        1 R6C      0.047367
     40 HAY3        4.6250   -1.5520    2.5950 hc        1 R6C      0.047367
     41 HBA1        4.9780   -3.6420   -0.5680 hc        1 R6C      0.047367
     42 HBA2        4.8430   -2.2290   -1.6990 hc        1 R6C      0.047367
     43 HBA3        6.2900   -2.3890   -0.6170 hc        1 R6C      0.047367
     44 HAX         2.7510   -3.9740    0.6770 h5        1 R6C      0.071800
     45 HAD1       -2.6660    0.5680    0.5450 h1        1 R6C      0.061700
     46 HAD2       -2.5380    0.2150   -1.2540 h1        1 R6C      0.061700
     47 HAG        -2.8520   -2.9910   -0.2870 ha        1 R6C      0.143500
     48 HAH        -4.9640   -4.3160   -0.2050 ha        1 R6C      0.132500
     49 HAF        -7.1670   -3.1540   -0.0320 ha        1 R6C      0.131000
     50 HAC        -7.2550   -0.6610    0.0620 ha        1 R6C      0.132500
     51 HAB        -5.1480    0.6660   -0.0140 ha        1 R6C      0.143500
@<TRIPOS>BOND
     1    1    2 1   
     2    1   27 1   
     3    2    3 1   
     4    2   28 1   
     5    2   29 1   
     6    3    4 1   
     7    3    6 1   
     8    3   30 1   
     9    4    5 1   
    10    4   31 1   
    11    4   32 1   
    12    5   33 1   
    13    5   34 1   
    14    5   35 1   
    15    6    7 1   
    16    6   36 1   
    17    7    8 ar  
    18    7   17 ar  
    19    8    9 ar  
    20    9   10 1   
    21    9   15 ar  
    22   10   11 1   
    23   10   14 1   
    24   11   12 1   
    25   11   13 1   
    26   11   37 1   
    27   12   38 1   
    28   12   39 1   
    29   12   40 1   
    30   13   41 1   
    31   13   42 1   
    32   13   43 1   
    33   14   16 2   
    34   14   44 1   
    35   15   16 1   
    36   15   18 ar  
    37   17   18 ar  
    38   18   19 1   
    39   19   20 1   
    40   20   21 1   
    41   20   45 1   
    42   20   46 1   
    43   21   22 ar  
    44   21   26 ar  
    45   22   23 ar  
    46   22   47 1   
    47   23   24 ar  
    48   23   48 1   
    49   24   25 ar  
    50   24   49 1   
    51   25   26 ar  
    52   25   50 1   
    53   26   51 1   
@<TRIPOS>SUBSTRUCTURE
     1 R6C         1 TEMP              0 ****  ****    0 ROOT
