@<TRIPOS>MOLECULE
R6C
   51    53     1     0     0
SMALL
bcc


@<TRIPOS>ATOM
      1 OAP        -0.3650   -0.1810    0.6570 oh        1 R6C     -0.607800
      2 CAQ         1.0090    0.0870    0.4310 c3        1 R6C      0.094400
      3 CAR         1.7100    0.1550    1.8070 c3        1 R6C      0.210500
      4 CAK         1.1000    1.3220    2.6040 c3        1 R6C     -0.079400
      5 CAI         1.8500    1.6090    3.8770 c3        1 R6C     -0.092100
      6 NAS         1.6460   -1.0820    2.5620 nh        1 R6C     -0.800900
      7 CAT         2.3500   -2.2250    2.1250 ca        1 R6C      0.909900
      8 NAU         1.8960   -3.4360    2.6180 nb        1 R6C     -0.775000
      9 CAV         2.6850   -4.4940    2.2930 ca        1 R6C      0.481800
     10 NAW         2.5580   -5.8510    2.6200 na        1 R6C     -0.267000
     11 CAZ         1.5280   -6.4620    3.4290 c3        1 R6C      0.056000
     12 CAY         0.7140   -7.5030    2.6560 c3        1 R6C     -0.111100
     13 CBA         2.0860   -7.1120    4.6980 c3        1 R6C     -0.111100
     14 CAX         3.6590   -6.5040    2.0070 cc        1 R6C      0.392700
     15 CAN         3.8950   -4.4110    1.4730 ca        1 R6C     -0.217200
     16 NAO         4.4660   -5.6830    1.3220 nd        1 R6C     -0.508100
     17 NAL         3.4710   -2.0320    1.3110 nb        1 R6C     -0.837000
     18 CAM         4.2240   -3.1090    1.0100 ca        1 R6C      0.752600
     19 OAJ         5.3460   -3.0170    0.2280 os        1 R6C     -0.420100
     20 CAD         5.7190   -1.7060   -0.2420 c3        1 R6C      0.181700
     21 CAE         6.9690   -1.8500   -1.0450 ca        1 R6C     -0.098300
     22 CAG         7.4420   -3.0930   -1.4750 ca        1 R6C     -0.114500
     23 CAH         8.6070   -3.1680   -2.2390 ca        1 R6C     -0.131000
     24 CAF         9.3000   -2.0080   -2.5790 ca        1 R6C     -0.128000
     25 CAC         8.8300   -0.7660   -2.1500 ca        1 R6C     -0.131000
     26 CAB         7.6700   -0.6850   -1.3830 ca        1 R6C     -0.114500
     27 HAP        -0.7660   -0.3190   -0.2090 ho        1 R6C      0.404000
     28 HAQ1        1.4640   -0.7190   -0.2040 h1        1 R6C      0.035200
     29 HAQ2        1.1240    1.0740   -0.0920 h1        1 R6C      0.035200
     30 HAR         2.7970    0.3990    1.6110 h1        1 R6C      0.085700
     31 HAK1        0.0220    1.1030    2.8250 hc        1 R6C      0.051700
     32 HAK2        1.1250    2.2250    1.9390 hc        1 R6C      0.051700
     33 HAI1        1.7520    0.7650    4.6010 hc        1 R6C      0.037367
     34 HAI2        2.9360    1.7660    3.6690 hc        1 R6C      0.037367
     35 HAI3        1.4450    2.5330    4.3570 hc        1 R6C      0.037367
     36 HAS         0.7250   -1.2790    2.9060 hn        1 R6C      0.430800
     37 HAZ         0.8240   -5.6310    3.7440 h1        1 R6C      0.090700
     38 HAY1        0.2440   -7.0510    1.7500 hc        1 R6C      0.047367
     39 HAY2        1.3560   -8.3580    2.3370 hc        1 R6C      0.047367
     40 HAY3       -0.0940   -7.8890    3.3210 hc        1 R6C      0.047367
     41 HBA1        2.7740   -7.9550    4.4480 hc        1 R6C      0.047367
     42 HBA2        2.6420   -6.3680    5.3170 hc        1 R6C      0.047367
     43 HBA3        1.2340   -7.5110    5.2990 hc        1 R6C      0.047367
     44 HAX         3.7960   -7.5870    2.1120 h5        1 R6C      0.071800
     45 HAD1        4.8910   -1.2960   -0.8810 h1        1 R6C      0.061700
     46 HAD2        5.8880   -1.0320    0.6400 h1        1 R6C      0.061700
     47 HAG         6.8960   -4.0100   -1.2020 ha        1 R6C      0.143500
     48 HAH         8.9760   -4.1490   -2.5730 ha        1 R6C      0.132500
     49 HAF        10.2170   -2.0700   -3.1820 ha        1 R6C      0.131000
     50 HAC         9.3770    0.1500   -2.4150 ha        1 R6C      0.132500
     51 HAB         7.3030    0.2940   -1.0420 ha        1 R6C      0.143500
@<TRIPOS>BOND
     1    1    2 1   
     2    1   27 1   
     3    2    3 1   
     4    2   28 1   
     5    2   29 1   
     6    3    4 1   
     7    3    6 1   
     8    3   30 1   
     9    4    5 1   
    10    4   31 1   
    11    4   32 1   
    12    5   33 1   
    13    5   34 1   
    14    5   35 1   
    15    6    7 1   
    16    6   36 1   
    17    7    8 ar  
    18    7   17 ar  
    19    8    9 ar  
    20    9   10 1   
    21    9   15 ar  
    22   10   11 1   
    23   10   14 1   
    24   11   12 1   
    25   11   13 1   
    26   11   37 1   
    27   12   38 1   
    28   12   39 1   
    29   12   40 1   
    30   13   41 1   
    31   13   42 1   
    32   13   43 1   
    33   14   16 2   
    34   14   44 1   
    35   15   16 1   
    36   15   18 ar  
    37   17   18 ar  
    38   18   19 1   
    39   19   20 1   
    40   20   21 1   
    41   20   45 1   
    42   20   46 1   
    43   21   22 ar  
    44   21   26 ar  
    45   22   23 ar  
    46   22   47 1   
    47   23   24 ar  
    48   23   48 1   
    49   24   25 ar  
    50   24   49 1   
    51   25   26 ar  
    52   25   50 1   
    53   26   51 1   
@<TRIPOS>SUBSTRUCTURE
     1 R6C         1 TEMP              0 ****  ****    0 ROOT
