@<TRIPOS>MOLECULE
R6G
   83    80     1     0     0
SMALL
bcc


@<TRIPOS>ATOM
      1 C           1.5000   -3.8370   -0.8100 c1        1 R6G      0.189000
      2 O           2.2270   -4.4420   -1.5000 o         1 R6G     -0.192000
      3 N         -15.5550    4.8370    7.0170 nv        1 R6G     -0.370000
      4 N1        -14.7680   -4.2300    5.1230 ny        1 R6G     -0.063000
      5 C1        -15.2220    2.4510    6.9730 ca        1 R6G     -0.276000
      6 C2        -14.3750    1.3660    6.7570 ca        1 R6G      0.173000
      7 C3        -13.0290    1.5340    6.3640 ca        1 R6G     -0.232000
      8 C4        -12.5510    2.8520    6.2180 ca        1 R6G     -0.001000
      9 C5        -13.3550    3.9550    6.4310 ca        1 R6G     -0.182000
     10 C6        -14.7290    3.7720    6.8110 ca        1 R6G      0.201000
     11 C7        -12.2170    0.3750    6.1120 c2        1 R6G      0.167000
     12 C8        -12.7360   -0.8670    6.3460 c2        1 R6G     -0.259000
     13 C9        -14.1020   -1.0160    6.9580 c3        1 R6G      0.045000
     14 O1        -14.9660    0.1310    6.9320 os        1 R6G     -0.186000
     15 C10       -14.8160   -2.1140    6.2920 c1        1 R6G     -0.019000
     16 C11       -14.1220   -3.4170    6.2280 c3        1 R6G     -0.127000
     17 C12       -12.6390   -3.3060    6.0110 c2        1 R6G     -0.249000
     18 C13       -12.0370   -2.0980    6.0770 c2        1 R6G      0.007000
     19 C14       -10.8590    0.5570    5.5830 ca        1 R6G     -0.073000
     20 C15       -10.6720    1.0230    4.2750 ca        1 R6G     -0.122000
     21 C16        -9.3850    1.2100    3.7780 ca        1 R6G     -0.090500
     22 C17        -8.2720    0.9360    4.5830 ca        1 R6G     -0.100000
     23 C18        -8.4570    0.4800    5.8910 ca        1 R6G     -0.090500
     24 C19        -9.7450    0.2860    6.3870 ca        1 R6G     -0.122000
     25 C20       -11.8970   -4.5630    5.7820 c3        1 R6G     -0.182000
     26 C22       -15.7670   -4.6830   10.2060 c1        1 R6G      0.436000
     27 O2        -15.9490   -4.9370   11.3470 o         1 R6G     -0.217000
     28 O3        -15.5840   -4.4260    9.0520 o         1 R6G     -0.217000
     29 C23        -6.9190    1.1940    4.0060 c2        1 R6G      0.338000
     30 O4         -6.7400    2.1040    3.1700 o         1 R6G     -0.358000
     31 N2         -5.8720    0.4000    4.3970 nt        1 R6G     -0.430000
     32 C24        -3.2870    2.0020    2.6800 c3        1 R6G     -0.230000
     33 C25        -2.8860    0.7040    2.0280 c3        1 R6G     -0.155000
     34 C26        -1.4130    0.4100    2.2370 c3        1 R6G     -0.135000
     35 C27        -1.0170   -0.8760    1.6140 c2        1 R6G     -0.170000
     36 C28         0.0860   -1.0420    0.8870 c2        1 R6G     -0.222000
     37 C30       -17.1010   -3.8450    6.0430 c3        1 R6G     -0.357000
     38 C31       -18.5460    3.5060    7.8780 c2        1 R6G     -0.227500
     39 C32       -18.8680    4.7910    7.9560 c2        1 R6G     -0.227500
     40 HC1        -1.7050   -1.7170    1.8020 ha        1 R6G      0.113000
     41 HC2         2.3090   -1.4580   -0.6740 ha        1 R6G      0.003250
     42 H281        0.3640   -2.0120    0.4490 ha        1 R6G      0.119000
     43 H282        2.7950   -1.7240   -1.0650 ha        1 R6G      0.003250
     44 H         -15.2120    5.7600    6.9250 hn        1 R6G      0.243000
     45 H311      -18.6480    2.9240    6.9520 ha        1 R6G      0.116000
     46 H312      -16.4990    4.6920    7.2890 hn        1 R6G      0.243000
     47 H1        -14.4210   -5.2010    5.1770 hn        1 R6G      0.273500
     48 H291      -16.5170   -1.5990    8.0380 ha        1 R6G      0.003250
     49 H292      -16.2590   -2.1810    8.2750 ha        1 R6G      0.003250
     50 HA        -16.2680    2.2720    7.2670 ha        1 R6G      0.160000
     51 H4        -11.4980    2.9980    5.9190 ha        1 R6G      0.152000
     52 H211      -13.3560    5.8790    5.4700 hc        1 R6G      0.088667
     53 H212      -11.7240    5.2840    5.9720 hc        1 R6G      0.088667
     54 H213      -12.8780    5.8970    7.2230 hc        1 R6G      0.088667
     55 H13       -10.9440   -2.0150    5.9240 ha        1 R6G      0.166000
     56 H10       -13.9720   -1.2610    8.0650 h1        1 R6G      0.134000
     57 H201      -10.8040   -4.4210    5.9750 hc        1 R6G      0.091000
     58 H202      -12.0090   -4.9090    4.7230 hc        1 R6G      0.091000
     59 H203      -12.2640   -5.3720    6.4630 hc        1 R6G      0.091000
     60 H15       -11.5440    1.2520    3.6420 ha        1 R6G      0.147500
     61 H16        -9.2280    1.5950    2.7550 ha        1 R6G      0.159000
     62 H18        -9.8860   -0.0630    7.4220 ha        1 R6G      0.147500
     63 HB         -5.9960   -0.3420    5.0340 hn        1 R6G      0.234000
     64 H241       -4.3770    2.2020    2.5240 hc        1 R6G      0.080000
     65 H242       -4.9710    0.5650    4.0130 hn        1 R6G      0.234000
     66 H251       -3.0830    1.9740    3.7780 hc        1 R6G      0.080000
     67 H252       -2.7100    2.8540    2.2440 hc        1 R6G      0.080000
     68 H261       -3.4980   -0.1380    2.4480 hc        1 R6G      0.074500
     69 H262       -3.1040    0.7520    0.9290 hc        1 R6G      0.074500
     70 H271       -0.8030    1.2570    1.8230 hc        1 R6G      0.086000
     71 H272       -1.1970    0.3590    3.3400 hc        1 R6G      0.086000
     72 H301      -16.7540   -3.9660    7.1030 hc        1 R6G      0.177333
     73 H302      -17.2480   -2.7250    5.8820 hc        1 R6G      0.177333
     74 H303      -18.0980   -4.3440    5.9050 hc        1 R6G      0.177333
     75 H321      -18.1720    2.9350    8.7390 ha        1 R6G      0.116000
     76 H322      -18.7830    5.3690    8.8870 ha        1 R6G      0.116000
     77 H323      -19.2590    5.3580    7.1000 ha        1 R6G      0.116000
     78 HO1         0.7880   -0.2230    0.6780 ha        1 R6G      0.119000
     79 H11       -14.3190   -3.9680    7.2080 hx        1 R6G      0.185000
     80 C29       -16.2050   -4.2840    5.0060 c1        1 R6G      0.130000
     81 H12       -14.4470   -3.8460    4.2180 hn        1 R6G      0.273500
     82 H22        -7.5950    0.2910    6.5510 ha        1 R6G      0.159000
     83 C21       -12.8020    5.3200    6.2660 c3        1 R6G     -0.177000
@<TRIPOS>BOND
     1    1    2 1   
     2    3   10 1   
     3    3   44 1   
     4    3   46 1   
     5    4   16 1   
     6    4   47 1   
     7    4   80 1   
     8    4   81 1   
     9    5    6 1   
    10    5   10 1   
    11    5   50 1   
    12    6    7 1   
    13    6   14 1   
    14    7    8 1   
    15    7   11 1   
    16    8    9 1   
    17    8   51 1   
    18    9   10 1   
    19    9   83 1   
    20   11   12 1   
    21   11   19 1   
    22   12   13 1   
    23   12   18 1   
    24   13   14 1   
    25   13   15 1   
    26   13   56 1   
    27   15   16 1   
    28   16   17 1   
    29   16   79 1   
    30   17   18 1   
    31   17   25 1   
    32   18   55 1   
    33   19   20 1   
    34   19   24 1   
    35   20   21 1   
    36   20   60 1   
    37   21   22 1   
    38   21   61 1   
    39   22   23 1   
    40   22   29 1   
    41   23   24 1   
    42   23   82 1   
    43   24   62 1   
    44   25   57 1   
    45   25   58 1   
    46   25   59 1   
    47   26   27 1   
    48   26   28 1   
    49   29   30 1   
    50   29   31 1   
    51   31   63 1   
    52   31   65 1   
    53   32   33 1   
    54   32   64 1   
    55   32   66 1   
    56   32   67 1   
    57   33   34 1   
    58   33   68 1   
    59   33   69 1   
    60   34   35 1   
    61   34   70 1   
    62   34   71 1   
    63   35   36 1   
    64   35   40 1   
    65   36   42 1   
    66   36   78 1   
    67   37   72 1   
    68   37   73 1   
    69   37   74 1   
    70   37   80 1   
    71   38   39 1   
    72   38   45 1   
    73   38   75 1   
    74   39   76 1   
    75   39   77 1   
    76   41   43 1   
    77   48   49 1   
    78   52   83 1   
    79   53   83 1   
    80   54   83 1   
@<TRIPOS>SUBSTRUCTURE
     1 R6G         1 TEMP              0 ****  ****    0 ROOT
