@<TRIPOS>MOLECULE
R6G
   81    84     1     0     0
SMALL
bcc


@<TRIPOS>ATOM
      1 C         -11.3020   -0.0850   -2.1330 c3        1 R6G      0.131400
      2 O         -12.6760    0.0620   -1.8070 oh        1 R6G     -0.603800
      3 N           5.1820   -4.7740   -0.8500 nh        1 R6G     -0.722600
      4 N1          4.4740    4.3780   -0.2280 n3        1 R6G     -0.831200
      5 C1          4.7680   -2.3700   -1.0570 ca        1 R6G     -0.295300
      6 C2          3.9250   -1.2740   -0.8370 ca        1 R6G      0.381000
      7 C3          2.6950   -1.4010   -0.1660 ca        1 R6G     -0.200300
      8 C4          2.3640   -2.6610    0.3550 ca        1 R6G     -0.010000
      9 C5          3.1860   -3.7680    0.1670 ca        1 R6G     -0.160300
     10 C6          4.4000   -3.6380   -0.5680 ca        1 R6G      0.168600
     11 C7          1.8490   -0.2310   -0.0270 cc        1 R6G      0.098000
     12 C8          2.3570    0.9760   -0.4170 cd        1 R6G     -0.187100
     13 C9          3.6810    1.0790   -1.0120 cd        1 R6G      0.284700
     14 O1          4.4010   -0.0730   -1.3390 os        1 R6G     -0.414800
     15 C10         4.2640    2.2490   -1.3460 c2        1 R6G     -0.235200
     16 C11         3.6080    3.5790   -1.0960 c3        1 R6G      0.289900
     17 C12         2.1870    3.4240   -0.5990 c2        1 R6G     -0.188400
     18 C13         1.6440    2.2300   -0.2930 cf        1 R6G     -0.053200
     19 C14         0.4530   -0.3750    0.4080 ca        1 R6G     -0.039000
     20 C15        -0.5320   -0.1740   -0.5810 ca        1 R6G     -0.134000
     21 C16        -1.8820   -0.2660   -0.2740 ca        1 R6G     -0.149000
     22 C17        -2.2730   -0.5690    1.0370 ca        1 R6G     -0.152600
     23 C18        -1.3060   -0.7870    2.0160 ca        1 R6G     -0.066000
     24 C19         0.0630   -0.6850    1.7150 ca        1 R6G     -0.089600
     25 C20         1.3940    4.6680   -0.4700 c3        1 R6G     -0.047900
     26 C22         1.0380   -0.9260    2.8710 c         1 R6G      0.913200
     27 O2          1.4300    0.0740    3.5220 o         1 R6G     -0.808800
     28 O3          1.3430   -2.1270    3.1100 o         1 R6G     -0.808800
     29 C23        -3.7150   -0.6660    1.3910 c         1 R6G      0.679700
     30 O4         -4.1970   -1.6080    2.0500 o         1 R6G     -0.611100
     31 N2         -4.5200    0.3890    0.9780 n         1 R6G     -0.578900
     32 C24        -5.9420    0.3940    1.1420 c3        1 R6G      0.092000
     33 C25        -6.7340    0.1960   -0.1540 c3        1 R6G     -0.107400
     34 C26        -8.2190    0.2770    0.1270 c3        1 R6G     -0.075400
     35 C27        -9.0250    0.0580   -1.1350 c3        1 R6G     -0.079400
     36 C28       -10.5090    0.1610   -0.8620 c3        1 R6G     -0.083400
     37 C30         5.1830    6.6090    0.5860 c3        1 R6G     -0.098100
     38 C31         6.5920   -4.5700   -1.1110 c3        1 R6G      0.177800
     39 C32         7.4230   -5.8360   -0.9700 c3        1 R6G     -0.104100
     40 HC1       -11.1100   -1.1210   -2.5240 h1        1 R6G      0.019200
     41 HC2       -11.0180    0.6580   -2.9270 h1        1 R6G      0.019200
     42 H281      -10.7600    1.1760   -0.4590 hc        1 R6G      0.054700
     43 H282      -10.8130   -0.5880   -0.0850 hc        1 R6G      0.054700
     44 H           5.0150   -5.5250   -0.2080 hn        1 R6G      0.390800
     45 H311        6.6820   -4.1910   -2.1710 h1        1 R6G      0.039700
     46 H312        7.0280   -3.7770   -0.4350 h1        1 R6G      0.039700
     47 H1          4.2910    4.1740    0.7360 hn        1 R6G      0.374800
     48 H291        4.9760    5.9650   -1.4720 h1        1 R6G      0.018700
     49 H292        3.4150    6.2210   -0.5880 h1        1 R6G      0.018700
     50 HA          5.7050   -2.2090   -1.6070 ha        1 R6G      0.141000
     51 H4          1.4550   -2.7540    0.9860 ha        1 R6G      0.199000
     52 H211        2.6220   -5.8360   -0.0300 hc        1 R6G      0.039367
     53 H212        3.5760   -5.4390    1.4650 hc        1 R6G      0.039367
     54 H213        1.8410   -4.9540    1.3520 hc        1 R6G      0.039367
     55 H13         0.6070    2.1580    0.0810 ha        1 R6G      0.142000
     56 H10         5.2630    2.2780   -1.8010 ha        1 R6G      0.140000
     57 H201        1.5160    5.3090   -1.3780 hc        1 R6G      0.032700
     58 H202        0.3050    4.4440   -0.3430 hc        1 R6G      0.032700
     59 H203        1.7290    5.2520    0.4250 hc        1 R6G      0.032700
     60 H15        -0.2220    0.0610   -1.6100 ha        1 R6G      0.125000
     61 H16        -2.6330   -0.1180   -1.0620 ha        1 R6G      0.113000
     62 H18        -1.6070   -1.0470    3.0430 ha        1 R6G      0.159000
     63 HB         -4.1250    1.0800    0.3870 hn        1 R6G      0.306500
     64 H241       -6.2250   -0.4200    1.8710 h1        1 R6G      0.055200
     65 H242       -6.2410    1.3850    1.5920 h1        1 R6G      0.055200
     66 H251       -6.4500    0.9780   -0.9050 hc        1 R6G      0.042700
     67 H252       -6.4880   -0.8030   -0.6010 hc        1 R6G      0.042700
     68 H261       -8.5000   -0.4950    0.8910 hc        1 R6G      0.042700
     69 H262       -8.4670    1.2800    0.5630 hc        1 R6G      0.042700
     70 H271       -8.7290    0.8180   -1.9060 hc        1 R6G      0.039700
     71 H272       -8.7880   -0.9540   -1.5600 hc        1 R6G      0.039700
     72 H301        4.6750    6.5110    1.5750 hc        1 R6G      0.034700
     73 H302        6.2410    6.2700    0.6980 hc        1 R6G      0.034700
     74 H303        5.1820    7.6850    0.2900 hc        1 R6G      0.034700
     75 H321        7.3960   -6.2200    0.0780 hc        1 R6G      0.037033
     76 H322        7.0550   -6.6390   -1.6520 hc        1 R6G      0.037033
     77 H323        8.4820   -5.6020   -1.2340 hc        1 R6G      0.037033
     78 HO1       -13.1690   -0.1210   -2.6150 ho        1 R6G      0.395000
     79 H11         3.5500    4.1070   -2.1010 h1        1 R6G      0.043700
     80 C21         2.7870   -5.0650    0.7640 c3        1 R6G     -0.041800
     81 C29         4.4610    5.8020   -0.4820 c3        1 R6G      0.170800
@<TRIPOS>BOND
     1    1    2 1   
     2    1   36 1   
     3    1   40 1   
     4    1   41 1   
     5    2   78 1   
     6    3   10 1   
     7    3   38 1   
     8    3   44 1   
     9    4   16 1   
    10    4   47 1   
    11    4   81 1   
    12    5    6 ar  
    13    5   10 ar  
    14    5   50 1   
    15    6    7 ar  
    16    6   14 1   
    17    7    8 ar  
    18    7   11 1   
    19    8    9 ar  
    20    8   51 1   
    21    9   10 ar  
    22    9   80 1   
    23   11   12 2   
    24   11   19 1   
    25   12   13 1   
    26   12   18 1   
    27   13   14 1   
    28   13   15 2   
    29   15   16 1   
    30   15   56 1   
    31   16   17 1   
    32   16   79 1   
    33   17   18 2   
    34   17   25 1   
    35   18   55 1   
    36   19   20 ar  
    37   19   24 ar  
    38   20   21 ar  
    39   20   60 1   
    40   21   22 ar  
    41   21   61 1   
    42   22   23 ar  
    43   22   29 1   
    44   23   24 ar  
    45   23   62 1   
    46   24   26 1   
    47   25   57 1   
    48   25   58 1   
    49   25   59 1   
    50   26   27 1   
    51   26   28 1   
    52   29   30 2   
    53   29   31 1   
    54   31   32 1   
    55   31   63 1   
    56   32   33 1   
    57   32   64 1   
    58   32   65 1   
    59   33   34 1   
    60   33   66 1   
    61   33   67 1   
    62   34   35 1   
    63   34   68 1   
    64   34   69 1   
    65   35   36 1   
    66   35   70 1   
    67   35   71 1   
    68   36   42 1   
    69   36   43 1   
    70   37   72 1   
    71   37   73 1   
    72   37   74 1   
    73   37   81 1   
    74   38   39 1   
    75   38   45 1   
    76   38   46 1   
    77   39   75 1   
    78   39   76 1   
    79   39   77 1   
    80   48   81 1   
    81   49   81 1   
    82   52   80 1   
    83   53   80 1   
    84   54   80 1   
@<TRIPOS>SUBSTRUCTURE
     1 R6G         1 TEMP              0 ****  ****    0 ROOT
