@<TRIPOS>MOLECULE
R6G
   83    81     1     0     0
SMALL
bcc


@<TRIPOS>ATOM
      1 C           1.1790   -3.8750   -1.2450 c1        1 R6G      0.191000
      2 O           2.1110   -3.9780   -1.9450 o         1 R6G     -0.190000
      3 N         -15.2200    4.3590    8.2320 nh        1 R6G     -0.320000
      4 N1        -14.4850   -3.3560    6.4830 n3        1 R6G     -0.304000
      5 C1        -15.1960    2.2120    7.1590 ca        1 R6G     -0.304000
      6 C2        -14.5240    1.2740    6.4170 ca        1 R6G      0.228000
      7 C3        -13.1410    1.4460    6.0140 ca        1 R6G     -0.196000
      8 C4        -12.5180    2.6840    6.4000 ca        1 R6G     -0.002000
      9 C5        -13.1590    3.6400    7.1240 ca        1 R6G     -0.174000
     10 C6        -14.5520    3.4440    7.5400 ca        1 R6G      0.243000
     11 C7        -12.4760    0.4290    5.3610 c2        1 R6G      0.181000
     12 C8        -13.2040   -0.7690    4.9990 c2        1 R6G     -0.264000
     13 C9        -14.6940   -0.5960    4.9580 c3        1 R6G     -0.008000
     14 O1        -15.1800    0.1050    6.1330 os        1 R6G     -0.201000
     15 C10       -15.1210    0.1070    3.7420 c1        1 R6G     -0.017000
     16 C11       -13.9690   -3.8650    5.3310 c2        1 R6G      0.076000
     17 C12       -13.1210   -3.2270    4.4560 c2        1 R6G     -0.299000
     18 C13       -12.5690   -1.9210    4.6390 c2        1 R6G      0.074000
     19 C14       -11.0460    0.5360    5.0530 ca        1 R6G     -0.095000
     20 C15       -10.6190    1.4000    4.0330 ca        1 R6G     -0.117500
     21 C16        -9.2620    1.5220    3.7460 ca        1 R6G     -0.088000
     22 C17        -8.3200    0.7850    4.4740 ca        1 R6G     -0.093000
     23 C18        -8.7420   -0.0740    5.4920 ca        1 R6G     -0.088000
     24 C19       -10.1010   -0.2010    5.7780 ca        1 R6G     -0.117500
     25 C20       -12.6130   -3.9760    3.2760 c3        1 R6G     -0.153000
     26 C22       -17.7390   -0.5860    8.3090 c1        1 R6G      0.441000
     27 O2        -18.0020    0.5750    8.3740 o         1 R6G     -0.220000
     28 O3        -17.4650   -1.7400    8.2450 o         1 R6G     -0.220000
     29 C23        -6.8740    0.9920    4.1580 c2        1 R6G      0.336000
     30 O4         -6.4410    2.1220    3.8540 o         1 R6G     -0.354000
     31 N2         -6.0330   -0.0880    4.2090 n         1 R6G     -0.426000
     32 C24        -3.0100    1.5000    3.5100 c3        1 R6G     -0.223000
     33 C25        -2.7580    0.5550    2.3640 c3        1 R6G     -0.157500
     34 C26        -1.4130   -0.1270    2.4890 c3        1 R6G     -0.160000
     35 C27        -1.1650   -1.0790    1.3370 c3        1 R6G     -0.157500
     36 C28         0.1720   -1.7610    1.4610 c3        1 R6G     -0.223000
     37 C30       -14.2470   -4.7380    8.5530 c3        1 R6G     -0.246000
     38 C31       -18.8290    3.8250    8.0890 c3        1 R6G     -0.314000
     39 C32       -17.7830    4.1760    8.9950 c1        1 R6G     -0.071000
     40 HC1        -1.9800   -1.8500    1.3070 hc        1 R6G      0.074000
     41 HC2        -1.2110   -0.5130    0.3690 hc        1 R6G      0.074000
     42 H281        0.3340   -2.4600    0.6030 hc        1 R6G      0.077333
     43 H282        0.2290   -2.3490    2.4090 hc        1 R6G      0.077333
     44 H         -14.7620    5.2080    8.4800 hn        1 R6G      0.278500
     45 H311      -18.6530    4.2720    7.0720 hc        1 R6G      0.148333
     46 H312      -16.2660    4.2350    8.5240 hn        1 R6G      0.278500
     47 H1        -14.1360   -2.4830    6.8170 hn        1 R6G      0.225000
     48 H291      -15.6390   -5.0550    6.9200 h1        1 R6G      0.108500
     49 H292      -15.9630   -3.5670    7.9230 h1        1 R6G      0.108500
     50 HA        -16.2420    2.0290    7.4540 ha        1 R6G      0.167000
     51 H4        -11.4700    2.8390    6.0800 ha        1 R6G      0.163000
     52 H211      -12.9940    5.7840    7.0610 hc        1 R6G      0.098000
     53 H212      -11.4150    4.9040    7.1210 hc        1 R6G      0.098000
     54 H213      -12.4330    5.0140    8.6110 hc        1 R6G      0.098000
     55 H13       -11.4760   -1.8620    4.4370 ha        1 R6G      0.147000
     56 H10       -15.2740   -1.5700    5.0240 h1        1 R6G      0.175000
     57 H201      -11.4970   -4.0510    3.3140 hc        1 R6G      0.085000
     58 H202      -13.0320   -5.0110    3.2350 hc        1 R6G      0.085000
     59 H203      -12.8960   -3.4490    2.3310 hc        1 R6G      0.085000
     60 H15       -11.3550    1.9840    3.4590 ha        1 R6G      0.147500
     61 H16        -8.9150    2.2120    2.9580 ha        1 R6G      0.163000
     62 H18       -10.4280   -0.8710    6.5880 ha        1 R6G      0.147500
     63 HB         -6.3740   -0.9990    4.3760 hn        1 R6G      0.236000
     64 H241       -4.0140    1.9840    3.4100 hc        1 R6G      0.077333
     65 H242       -5.0750    0.0340    3.9730 hn        1 R6G      0.236000
     66 H251       -2.9720    0.9570    4.4860 hc        1 R6G      0.077333
     67 H252       -2.2350    2.3040    3.5320 hc        1 R6G      0.077333
     68 H261       -2.8030    1.1200    1.3950 hc        1 R6G      0.074000
     69 H262       -3.5670   -0.2220    2.3250 hc        1 R6G      0.074000
     70 H271       -0.6020    0.6480    2.5160 hc        1 R6G      0.080000
     71 H272       -1.3630   -0.6900    3.4580 hc        1 R6G      0.080000
     72 H301      -13.7610   -3.9130    9.1270 hc        1 R6G      0.090667
     73 H302      -14.8700   -5.3400    9.2600 hc        1 R6G      0.090667
     74 H303      -13.4490   -5.3970    8.1350 hc        1 R6G      0.090667
     75 H321      -18.7460    2.6990    7.9560 hc        1 R6G      0.148333
     76 H322      -19.8730    4.0580    8.4200 hc        1 R6G      0.148333
     77 H323      -18.0290    4.3880   10.0440 ha        1 R6G      0.094000
     78 HO1         0.9990   -1.0100    1.4670 hc        1 R6G      0.077333
     79 H11       -14.8790   -0.3910    2.7930 ha        1 R6G      0.078000
     80 C29       -15.1460   -4.1940    7.4550 c3        1 R6G     -0.044000
     81 H12       -14.2790   -4.9080    5.0980 h4        1 R6G      0.162000
     82 H22        -8.0110   -0.6430    6.0880 ha        1 R6G      0.163000
     83 C21       -12.4680    4.8970    7.4990 c3        1 R6G     -0.189000
@<TRIPOS>BOND
     1    1    2 1   
     2    3   10 1   
     3    3   44 1   
     4    3   46 1   
     5    4   16 1   
     6    4   47 1   
     7    4   80 1   
     8    5    6 1   
     9    5   10 1   
    10    5   50 1   
    11    6    7 1   
    12    6   14 1   
    13    7    8 1   
    14    7   11 1   
    15    8    9 1   
    16    8   51 1   
    17    9   10 1   
    18    9   83 1   
    19   11   12 1   
    20   11   19 1   
    21   12   13 1   
    22   12   18 1   
    23   13   14 1   
    24   13   15 1   
    25   13   56 1   
    26   15   79 1   
    27   16   17 1   
    28   16   81 1   
    29   17   18 1   
    30   17   25 1   
    31   18   55 1   
    32   19   20 1   
    33   19   24 1   
    34   20   21 1   
    35   20   60 1   
    36   21   22 1   
    37   21   61 1   
    38   22   23 1   
    39   22   29 1   
    40   23   24 1   
    41   23   82 1   
    42   24   62 1   
    43   25   57 1   
    44   25   58 1   
    45   25   59 1   
    46   26   27 1   
    47   26   28 1   
    48   29   30 1   
    49   29   31 1   
    50   31   63 1   
    51   31   65 1   
    52   32   33 1   
    53   32   64 1   
    54   32   66 1   
    55   32   67 1   
    56   33   34 1   
    57   33   68 1   
    58   33   69 1   
    59   34   35 1   
    60   34   70 1   
    61   34   71 1   
    62   35   36 1   
    63   35   40 1   
    64   35   41 1   
    65   36   42 1   
    66   36   43 1   
    67   36   78 1   
    68   37   72 1   
    69   37   73 1   
    70   37   74 1   
    71   37   80 1   
    72   38   39 1   
    73   38   45 1   
    74   38   75 1   
    75   38   76 1   
    76   39   77 1   
    77   48   80 1   
    78   49   80 1   
    79   52   83 1   
    80   53   83 1   
    81   54   83 1   
@<TRIPOS>SUBSTRUCTURE
     1 R6G         1 TEMP              0 ****  ****    0 ROOT
