@<TRIPOS>MOLECULE
R6G
   81    77     1     0     0
SMALL
bcc


@<TRIPOS>ATOM
      1 C          10.5550    0.7760    3.9270 c3        1 R6G     -0.019000
      2 O          11.9680    0.7090    3.8750 oh        1 R6G     -0.331000
      3 N          -5.2340    4.4710    0.3480 n3        1 R6G     -0.277000
      4 N1         -4.7330   -5.3430   -0.5500 n3        1 R6G     -0.300000
      5 C1         -5.1500    2.1370   -0.3760 c1        1 R6G     -0.248000
      6 C2         -4.4200    1.0180   -0.7940 c1        1 R6G      0.105500
      7 C3         -3.0180    1.1020   -0.9370 c1        1 R6G     -0.113000
      8 C4         -2.3600    2.3030   -0.6620 c1        1 R6G     -0.034000
      9 C5         -3.0910    3.4220   -0.2440 c1        1 R6G     -0.157000
     10 C6         -4.4920    3.3360   -0.1020 c1        1 R6G      0.079000
     11 C7         -2.2110   -0.1490   -1.2090 c2        1 R6G      0.053000
     12 C8         -2.8790   -1.4530   -1.2250 c1        1 R6G     -0.057000
     13 C9         -4.3140   -1.5350   -0.9360 c1        1 R6G      0.105500
     14 O1         -5.1030   -0.3190   -0.8440 os        1 R6G     -0.158000
     15 C10        -4.9420   -2.8870   -0.5620 c1        1 R6G     -0.248000
     16 C11        -4.0390   -4.0870   -0.2350 c2        1 R6G      0.072000
     17 C12        -2.6590   -4.0520   -0.9260 c2        1 R6G     -0.123000
     18 C13        -2.0570   -2.7270   -1.3410 c2        1 R6G     -0.087000
     19 C14        -0.6570   -0.0700   -1.2830 c2        1 R6G     -0.033000
     20 C15         0.0950   -0.0670   -0.1120 c2        1 R6G     -0.136000
     21 C16         1.4820    0.1040   -0.1720 c1        1 R6G     -0.150000
     22 C17         2.1110    0.2700   -1.4030 c1        1 R6G     -0.133000
     23 C18         1.3590    0.2670   -2.5760 c1        1 R6G     -0.066000
     24 C19        -0.0260    0.0970   -2.5170 c1        1 R6G     -0.068000
     25 C20        -1.9820   -5.3420   -1.3190 c3        1 R6G     -0.161000
     26 C21        -2.3630    4.6730    0.2050 c3        1 R6G     -0.165000
     27 C22        -0.4900    0.1660   -3.9570 c2        1 R6G      0.362000
     28 O2         -0.7150   -0.8940   -4.5980 o         1 R6G     -0.543000
     29 O3         -0.6310    1.2880   -4.5220 o         1 R6G     -0.543000
     30 C23         3.6290    0.5420   -1.4610 c2        1 R6G      0.352000
     31 O4          4.1800    0.6880   -2.5380 o         1 R6G     -0.371000
     32 N2          4.3870    0.6880   -0.2330 n         1 R6G     -0.388000
     33 C24         5.8380    0.7830   -0.2800 c3        1 R6G     -0.024000
     34 C25         6.4120    0.5700    1.1330 c3        1 R6G     -0.187000
     35 C26         7.9260    0.8620    1.1220 c3        1 R6G     -0.154000
     36 C27         8.4850    0.7130    2.5380 c3        1 R6G     -0.158000
     37 C28        10.0000    0.9120    2.5130 c3        1 R6G     -0.162000
     38 C29        -5.2170   -5.9370    0.6620 c3        1 R6G     -0.069000
     39 C30        -6.1770   -7.0480    0.3280 c3        1 R6G     -0.211000
     40 C31        -6.4000    4.8940   -0.3680 c3        1 R6G     -0.060000
     41 C32        -6.8130    6.2790    0.1090 c3        1 R6G     -0.222000
     42 HC1        10.2850    1.5500    4.4580 h1        1 R6G      0.059000
     43 HC2        10.2030   -0.0460    4.3400 h1        1 R6G      0.059000
     44 H281       10.2060    1.8050    2.1650 hc        1 R6G      0.094000
     45 H282       10.4090    0.2340    1.9350 hc        1 R6G      0.094000
     46 H          -4.9500    4.9440    1.0800 hn        1 R6G      0.183000
     47 H311       -6.2010    4.9240   -1.3250 h1        1 R6G      0.080500
     48 H312       -7.1320    4.2600   -0.2060 h1        1 R6G      0.080500
     49 H1         -5.4420   -5.1700   -1.1120 hn        1 R6G      0.165000
     50 H291       -4.4660   -6.2980    1.1700 h1        1 R6G      0.062000
     51 H292       -5.6800   -5.2540    1.2010 h1        1 R6G      0.062000
     52 HA         -6.1170    2.0770   -0.2690 ha        1 R6G      0.136000
     53 H4         -1.3880    2.3620   -0.7600 ha        1 R6G      0.157000
     54 H211       -2.7460    5.4490   -0.2420 hc        1 R6G      0.075000
     55 H212       -1.4110    4.5980   -0.0260 hc        1 R6G      0.075000
     56 H213       -2.4560    4.7750    1.1770 hc        1 R6G      0.075000
     57 H13        -1.1830   -2.7040   -1.7780 ha        1 R6G      0.186000
     58 H10        -5.9160   -2.9640   -0.4610 ha        1 R6G      0.136000
     59 H201       -1.1740   -5.1420   -1.8400 hc        1 R6G      0.078000
     60 H202       -2.6000   -5.8850   -1.8660 hc        1 R6G      0.078000
     61 H203       -1.7340   -5.8420   -0.5100 hc        1 R6G      0.078000
     62 H15        -0.3380   -0.2230    0.7410 ha        1 R6G      0.123000
     63 H16         2.0080    0.1060    0.6480 ha        1 R6G      0.112000
     64 H18         1.7990    0.3840   -3.4380 ha        1 R6G      0.158000
     65 HB          3.9530    0.7480    0.5650 hn        1 R6G      0.218000
     66 H241        6.0970    1.6670   -0.6070 h1        1 R6G      0.094500
     67 H242        6.1880    0.1020   -0.8770 h1        1 R6G      0.094500
     68 H251        6.2600   -0.3600    1.4120 hc        1 R6G      0.082500
     69 H252        5.9660    1.1780    1.7610 hc        1 R6G      0.082500
     70 H261        8.3750    0.2310    0.5270 hc        1 R6G      0.082000
     71 H262        8.0800    1.7720    0.8070 hc        1 R6G      0.082000
     72 H271        8.2800   -0.1810    2.8770 hc        1 R6G      0.078500
     73 H272        8.0790    1.3830    3.1210 hc        1 R6G      0.078500
     74 H301       -5.7980   -7.6050   -0.3750 hc        1 R6G      0.071333
     75 H302       -6.3380   -7.6000    1.1360 hc        1 R6G      0.071333
     76 H303       -7.0250   -6.6650    0.0190 hc        1 R6G      0.071333
     77 H321       -7.5410    6.6160   -0.4580 hc        1 R6G      0.077000
     78 H322       -6.0500    6.8840    0.0510 hc        1 R6G      0.077000
     79 H323       -7.1220    6.2260    1.0450 hc        1 R6G      0.077000
     80 HO1        12.2940    0.6850    4.7030 ho        1 R6G      0.194000
     81 H11        -3.9300   -4.1760    0.7300 h4        1 R6G      0.090000
@<TRIPOS>BOND
     1    1    2 1   
     2    1   37 1   
     3    1   42 1   
     4    1   43 1   
     5    2   80 1   
     6    3   10 1   
     7    3   40 1   
     8    3   46 1   
     9    4   16 1   
    10    4   38 1   
    11    4   49 1   
    12    5    6 1   
    13    5   52 1   
    14    6   14 1   
    15    7    8 1   
    16    7   11 1   
    17    8   53 1   
    18    9   10 1   
    19    9   26 1   
    20   11   12 1   
    21   11   19 1   
    22   12   18 1   
    23   13   14 1   
    24   13   15 1   
    25   15   58 1   
    26   16   17 1   
    27   16   81 1   
    28   17   18 1   
    29   17   25 1   
    30   18   57 1   
    31   19   20 1   
    32   19   24 1   
    33   20   21 1   
    34   20   62 1   
    35   21   63 1   
    36   22   23 1   
    37   22   30 1   
    38   23   64 1   
    39   24   27 1   
    40   25   59 1   
    41   25   60 1   
    42   25   61 1   
    43   26   54 1   
    44   26   55 1   
    45   26   56 1   
    46   27   28 1   
    47   27   29 1   
    48   30   31 1   
    49   30   32 1   
    50   32   33 1   
    51   32   65 1   
    52   33   34 1   
    53   33   66 1   
    54   33   67 1   
    55   34   35 1   
    56   34   68 1   
    57   34   69 1   
    58   35   36 1   
    59   35   70 1   
    60   35   71 1   
    61   36   37 1   
    62   36   72 1   
    63   36   73 1   
    64   37   44 1   
    65   37   45 1   
    66   38   39 1   
    67   38   50 1   
    68   38   51 1   
    69   39   74 1   
    70   39   75 1   
    71   39   76 1   
    72   40   41 1   
    73   40   47 1   
    74   40   48 1   
    75   41   77 1   
    76   41   78 1   
    77   41   79 1   
@<TRIPOS>SUBSTRUCTURE
     1 R6G         1 TEMP              0 ****  ****    0 ROOT
