@<TRIPOS>MOLECULE
R6G
   84    85     1     0     0
SMALL
bcc


@<TRIPOS>ATOM
      1 C          -4.0800   -2.4040    1.4050 c1        1 R6G      0.117000
      2 O          -3.2910   -3.0730    0.8740 o         1 R6G     -0.078000
      3 N         -13.4450    4.5980    7.3360 n4        1 R6G      0.012000
      4 N1        -15.9030   -4.4690    5.6740 n4        1 R6G      0.010000
      5 C1        -13.9070    2.1900    7.0360 c2        1 R6G     -0.226000
      6 C2        -13.5080    0.9420    6.5680 c2        1 R6G      0.112000
      7 C3        -12.2840    0.7930    5.8710 c2        1 R6G     -0.167000
      8 C4        -11.4440    1.8740    5.6470 c1        1 R6G     -0.272000
      9 C5        -11.8160    3.1410    6.1320 c2        1 R6G     -0.060000
     10 C6        -13.0350    3.2850    6.8080 c2        1 R6G     -0.104000
     11 C7        -11.9390   -0.5050    5.3420 c2        1 R6G      0.082000
     12 C8        -12.7210   -1.5820    5.6370 c2        1 R6G     -0.192000
     13 C9        -13.7970   -1.4230    6.6730 c3        1 R6G      0.121000
     14 O1        -14.3860   -0.1120    6.7730 os        1 R6G     -0.214000
     15 C10       -14.9480   -2.3600    6.4760 c2        1 R6G     -0.083000
     16 C11       -14.7870   -3.5210    5.7970 c2        1 R6G     -0.100000
     17 C12       -13.5280   -3.8490    5.1260 c2        1 R6G     -0.133000
     18 C13       -12.5700   -2.8900    5.0560 c2        1 R6G     -0.029000
     19 C14       -10.7520   -0.5110    4.4780 c2        1 R6G      0.148000
     20 C15       -10.8260   -0.0650    3.1820 c2        1 R6G     -0.210000
     21 C16        -9.6810    0.0010    2.3520 c2        1 R6G      0.153000
     22 C17        -8.4570   -0.4640    2.8270 c2        1 R6G     -0.300000
     23 C18        -8.3060   -0.9820    4.1170 c1        1 R6G     -0.132000
     24 C19        -9.4610   -1.0460    5.0180 c3        1 R6G     -0.119000
     25 C20       -13.3300   -5.1850    4.5180 c3        1 R6G     -0.194000
     26 C22        -9.0580   -0.4230    6.3410 c2        1 R6G      0.367000
     27 O2         -8.3160    0.5320    6.5500 o         1 R6G     -0.301000
     28 O3         -9.5660   -1.0990    7.4080 oh        1 R6G     -0.315000
     29 C23        -7.2530   -0.3780    2.0000 c2        1 R6G      0.330000
     30 O4         -7.1600   -0.1180    0.8050 o         1 R6G     -0.219000
     31 N2         -5.9740   -0.6420    2.7370 n4        1 R6G     -0.168000
     32 C24        -5.6740    2.6910    5.7770 c3        1 R6G     -0.218000
     33 C25        -4.9270    2.5990    4.4720 c3        1 R6G     -0.168000
     34 C26        -3.8890    1.4970    4.4940 c3        1 R6G     -0.173000
     35 C27        -3.1400    1.4110    3.1800 c3        1 R6G     -0.168000
     36 C28        -2.3510    0.1330    3.0630 c3        1 R6G     -0.218000
     37 C30       -16.6340   -4.8790    8.0500 c3        1 R6G     -0.253000
     38 C31       -15.6770    4.9880    6.2410 c3        1 R6G     -0.248000
     39 C32       -14.2280    5.4100    6.3510 c3        1 R6G     -0.123000
     40 HC1        -3.8540    1.4980    2.3170 hc        1 R6G      0.079500
     41 HC2        -2.4430    2.2880    3.1020 hc        1 R6G      0.079500
     42 H281       -1.6920    0.1640    2.1620 hc        1 R6G      0.079333
     43 H282       -3.0350   -0.7490    2.9680 hc        1 R6G      0.079333
     44 H         -12.5930    5.1150    7.5870 hn        1 R6G      0.243500
     45 H311      -15.7660    3.9160    5.9370 hc        1 R6G      0.114000
     46 H312      -14.0090    4.4580    8.1820 hn        1 R6G      0.243500
     47 H1        -15.7860   -4.9910    4.7950 hn        1 R6G      0.253500
     48 H291      -16.5570   -6.3390    6.4430 hx        1 R6G      0.149000
     49 H292      -14.9180   -5.7730    7.0480 hx        1 R6G      0.149000
     50 HA        -14.8650    2.3020    7.5610 ha        1 R6G      0.148000
     51 H4         -9.2800   -0.6680    8.2320 ho        1 R6G      0.263000
     52 H211      -11.3960    5.1150    5.3690 hc        1 R6G      0.090000
     53 H212      -10.0140    3.9440    5.3130 hc        1 R6G      0.090000
     54 H213      -10.5070    4.6720    6.8940 hc        1 R6G      0.090000
     55 H13       -11.6330   -3.0930    4.5090 ha        1 R6G      0.141000
     56 H10       -13.3400   -1.6460    7.6900 h1        1 R6G      0.126000
     57 H201      -12.2680   -5.3140    4.1850 hc        1 R6G      0.097333
     58 H202      -13.9790   -5.3180    3.6150 hc        1 R6G      0.097333
     59 H203      -13.5520   -6.0010    5.2510 hc        1 R6G      0.097333
     60 H15       -11.7830    0.3150    2.7820 ha        1 R6G      0.179000
     61 H16        -9.7740    0.4280    1.3350 ha        1 R6G      0.177000
     62 H18        -9.6250   -2.1610    5.2220 hc        1 R6G      0.203000
     63 HB         -5.3510   -1.2830    2.1910 hn        1 R6G      0.282333
     64 H241       -6.3840    3.5530    5.7530 hc        1 R6G      0.079333
     65 H242       -5.4760    0.2430    2.8930 hn        1 R6G      0.282333
     66 H251       -6.2630    1.7610    5.9740 hc        1 R6G      0.079333
     67 H252       -4.9640    2.8440    6.6250 hc        1 R6G      0.079333
     68 H261       -4.4190    3.5760    4.2570 hc        1 R6G      0.079500
     69 H262       -5.6530    2.4190    3.6340 hc        1 R6G      0.079500
     70 H271       -4.3790    0.5150    4.7330 hc        1 R6G      0.079000
     71 H272       -3.1580    1.6910    5.3240 hc        1 R6G      0.079000
     72 H301      -17.6990   -4.5990    7.8590 hc        1 R6G      0.119667
     73 H302      -16.0850   -3.9850    8.4360 hc        1 R6G      0.119667
     74 H303      -16.6190   -5.6690    8.8450 hc        1 R6G      0.119667
     75 H321      -16.1660    5.6220    5.4590 hc        1 R6G      0.114000
     76 H322      -16.2230    5.1380    7.2050 hc        1 R6G      0.114000
     77 H323      -13.7170    5.3100    5.3490 hx        1 R6G      0.141000
     78 HO1        -1.7080   -0.0180    3.9630 hc        1 R6G      0.079333
     79 H11       -15.8970   -2.0370    6.9390 ha        1 R6G      0.171000
     80 C29       -15.9730   -5.4470    6.8140 c3        1 R6G     -0.124000
     81 HN3       -14.1670    6.4870    6.6840 hx        1 R6G      0.141000
     82 H12       -16.7850   -3.9440    5.6300 hn        1 R6G      0.253500
     83 H22        -6.2080   -1.0610    3.6590 hn        1 R6G      0.282333
     84 C21       -10.8930    4.2800    5.9180 c3        1 R6G     -0.185000
@<TRIPOS>BOND
     1    1    2 1   
     2    3   10 1   
     3    3   39 1   
     4    3   44 1   
     5    3   46 1   
     6    4   16 1   
     7    4   47 1   
     8    4   80 1   
     9    4   82 1   
    10    5    6 1   
    11    5   10 1   
    12    5   50 1   
    13    6    7 1   
    14    6   14 1   
    15    7    8 1   
    16    7   11 1   
    17    8    9 1   
    18    9   10 1   
    19    9   84 1   
    20   11   12 1   
    21   11   19 1   
    22   12   13 1   
    23   12   18 1   
    24   13   14 1   
    25   13   15 1   
    26   13   56 1   
    27   15   16 1   
    28   15   79 1   
    29   16   17 1   
    30   17   18 1   
    31   17   25 1   
    32   18   55 1   
    33   19   20 1   
    34   19   24 1   
    35   20   21 1   
    36   20   60 1   
    37   21   22 1   
    38   21   61 1   
    39   22   23 1   
    40   22   29 1   
    41   23   24 1   
    42   24   26 1   
    43   24   62 1   
    44   25   57 1   
    45   25   58 1   
    46   25   59 1   
    47   26   27 1   
    48   26   28 1   
    49   28   51 1   
    50   29   30 1   
    51   29   31 1   
    52   31   63 1   
    53   31   65 1   
    54   31   83 1   
    55   32   33 1   
    56   32   64 1   
    57   32   66 1   
    58   32   67 1   
    59   33   34 1   
    60   33   68 1   
    61   33   69 1   
    62   34   35 1   
    63   34   70 1   
    64   34   71 1   
    65   35   36 1   
    66   35   40 1   
    67   35   41 1   
    68   36   42 1   
    69   36   43 1   
    70   36   78 1   
    71   37   72 1   
    72   37   73 1   
    73   37   74 1   
    74   37   80 1   
    75   38   39 1   
    76   38   45 1   
    77   38   75 1   
    78   38   76 1   
    79   39   77 1   
    80   39   81 1   
    81   48   80 1   
    82   49   80 1   
    83   52   84 1   
    84   53   84 1   
    85   54   84 1   
@<TRIPOS>SUBSTRUCTURE
     1 R6G         1 TEMP              0 ****  ****    0 ROOT
