@<TRIPOS>MOLECULE
R71
   55    56     1     0     0
SMALL
bcc


@<TRIPOS>ATOM
      1 C8         -1.1950    0.3200    5.0360 ca        1 R71     -0.155600
      2 C7         -1.6600    1.2110    3.9460 c         1 R71      0.593300
      3 O21        -2.2160    2.2870    4.1960 o         1 R71     -0.511100
      4 C1         -1.4430    0.7520    2.5590 ca        1 R71     -0.244600
      5 C6         -1.1010    1.6640    1.5380 ca        1 R71      0.219900
      6 F22        -0.9090    2.9720    1.8150 f         1 R71     -0.117900
      7 C5         -0.9330    1.2270    0.2080 ca        1 R71     -0.266000
      8 C4         -1.1270   -0.1230   -0.0910 ca        1 R71      0.182100
      9 O14        -0.9990   -0.6670   -1.3470 os        1 R71     -0.323900
     10 C15        -0.6710    0.2470   -2.4050 c3        1 R71      0.126400
     11 C16        -0.6140   -0.5940   -3.6680 c3        1 R71     -0.086400
     12 C17        -0.2730    0.2770   -4.8580 c3        1 R71     -0.078400
     13 C18        -0.2120   -0.5440   -6.1290 c3        1 R71     -0.079400
     14 C19         0.1390    0.3250   -7.3190 c3        1 R71     -0.081400
     15 C20         0.1490   -0.5200   -8.5930 c3        1 R71      0.169800
     16 N24         0.7020    0.1700   -9.7530 n3        1 R71     -0.728600
     17 C27        -0.0990    1.2910  -10.1860 c3        1 R71      0.153100
     18 C25         1.0080   -0.7740  -10.8240 c3        1 R71      0.200000
     19 C26         1.5730   -0.1430  -12.0580 c2        1 R71     -0.171200
     20 C29         2.8610   -0.2060  -12.3830 c2        1 R71     -0.202000
     21 C3         -1.4760   -1.0450    0.9190 ca        1 R71     -0.186000
     22 C2         -1.6250   -0.5980    2.2210 ca        1 R71     -0.043000
     23 C13        -1.8570    0.3540    6.2700 ca        1 R71     -0.086500
     24 C12        -1.4330   -0.4600    7.3190 ca        1 R71     -0.117500
     25 C11        -0.3350   -1.3070    7.1440 ca        1 R71     -0.004900
     26 BR23        0.2380   -2.4010    8.5520 br        1 R71     -0.080100
     27 C10         0.3380   -1.3350    5.9190 ca        1 R71     -0.117500
     28 C9         -0.0930   -0.5260    4.8690 ca        1 R71     -0.086500
     29 H5         -0.6600    1.9620   -0.5610 ha        1 R71      0.159000
     30 H151        0.3200    0.7250   -2.1890 h1        1 R71      0.045200
     31 H152       -1.4660    1.0350   -2.4770 h1        1 R71      0.045200
     32 H161       -1.6030   -1.0970   -3.8260 hc        1 R71      0.059700
     33 H162        0.1540   -1.4010   -3.5440 hc        1 R71      0.059700
     34 H171        0.7160    0.7800   -4.6880 hc        1 R71      0.043700
     35 H172       -1.0430    1.0850   -4.9680 hc        1 R71      0.043700
     36 H181       -1.2020   -1.0420   -6.3030 hc        1 R71      0.042700
     37 H182        0.5530   -1.3570   -6.0140 hc        1 R71      0.042700
     38 H191        1.1440    0.7960   -7.1600 hc        1 R71      0.049200
     39 H192       -0.6110    1.1530   -7.4100 hc        1 R71      0.049200
     40 H201       -0.9040   -0.8810   -8.7890 h1        1 R71      0.029200
     41 H202        0.7850   -1.4320   -8.4020 h1        1 R71      0.029200
     42 H271        0.4530    1.8410  -10.9940 h1        1 R71      0.031700
     43 H272       -1.1080    0.9920  -10.5810 h1        1 R71      0.031700
     44 H273       -0.2480    1.9910   -9.3230 h1        1 R71      0.031700
     45 H251        1.7540   -1.5110  -10.4060 h1        1 R71      0.033700
     46 H252        0.0890   -1.3620  -11.1300 h1        1 R71      0.033700
     47 H26         0.8390    0.3630  -12.7060 ha        1 R71      0.119000
     48 H291        3.2520    0.2320  -13.3110 ha        1 R71      0.113500
     49 H292        3.6120   -0.6950  -11.7480 ha        1 R71      0.113500
     50 H3         -1.6260   -2.1010    0.6550 ha        1 R71      0.159000
     51 H2         -1.8980   -1.3140    3.0140 ha        1 R71      0.150000
     52 H13        -2.7100    1.0390    6.4060 ha        1 R71      0.153500
     53 H12        -1.9660   -0.4250    8.2820 ha        1 R71      0.151500
     54 H10         1.2100   -1.9910    5.7750 ha        1 R71      0.151500
     55 H9          0.4420   -0.5490    3.9060 ha        1 R71      0.153500
@<TRIPOS>BOND
     1    1    2 1   
     2    1   23 ar  
     3    1   28 ar  
     4    2    3 2   
     5    2    4 1   
     6    4    5 ar  
     7    4   22 ar  
     8    5    6 1   
     9    5    7 ar  
    10    7    8 ar  
    11    7   29 1   
    12    8    9 1   
    13    8   21 ar  
    14    9   10 1   
    15   10   11 1   
    16   10   30 1   
    17   10   31 1   
    18   11   12 1   
    19   11   32 1   
    20   11   33 1   
    21   12   13 1   
    22   12   34 1   
    23   12   35 1   
    24   13   14 1   
    25   13   36 1   
    26   13   37 1   
    27   14   15 1   
    28   14   38 1   
    29   14   39 1   
    30   15   16 1   
    31   15   40 1   
    32   15   41 1   
    33   16   17 1   
    34   16   18 1   
    35   17   42 1   
    36   17   43 1   
    37   17   44 1   
    38   18   19 1   
    39   18   45 1   
    40   18   46 1   
    41   19   20 2   
    42   19   47 1   
    43   20   48 1   
    44   20   49 1   
    45   21   22 ar  
    46   21   50 1   
    47   22   51 1   
    48   23   24 ar  
    49   23   52 1   
    50   24   25 ar  
    51   24   53 1   
    52   25   26 1   
    53   25   27 ar  
    54   27   28 ar  
    55   27   54 1   
    56   28   55 1   
@<TRIPOS>SUBSTRUCTURE
     1 R71         1 TEMP              0 ****  ****    0 ROOT
