@<TRIPOS>MOLECULE
R77
   45    45     1     0     0
SMALL
bcc


@<TRIPOS>ATOM
      1 O6          1.8750    0.7870   -0.8820 o         1 R77     -0.829000
      2 P4          2.8110   -0.3230   -0.6280 p5        1 R77      1.361600
      3 O5          3.7330   -0.4100    0.5140 o         1 R77     -0.829000
      4 O7          3.8240   -0.3540   -2.0050 os        1 R77     -0.539500
      5 C1          2.0290   -1.8100   -0.8780 c3        1 R77     -0.357600
      6 C2          1.3960   -1.8040   -2.2470 c3        1 R77     -0.055700
      7 C3          2.4560   -1.9510   -3.3310 c3        1 R77     -0.170400
      8 C8          3.5860   -0.9600   -3.1550 c         1 R77      0.788600
      9 N9          7.2100    0.4140   -4.1190 n7        1 R77     -0.590700
     10 O10         7.7810    1.2580   -5.0040 oh        1 R77     -0.450300
     11 C11         6.7190    1.1420   -2.9540 c3        1 R77      0.097100
     12 O12         4.3720   -0.7040   -4.0850 o         1 R77     -0.698500
     13 C13         0.3510   -2.8980   -2.4120 c3        1 R77     -0.065400
     14 C14        -0.9620   -2.5310   -1.7510 c3        1 R77     -0.080400
     15 C15        -1.9850   -3.6340   -1.9200 c3        1 R77     -0.074400
     16 C16        -3.2990   -3.2610   -1.2600 c3        1 R77     -0.042100
     17 C17        -4.3090   -4.3480   -1.3770 ca        1 R77     -0.065300
     18 C19        -5.4130   -4.2080   -2.2270 ca        1 R77     -0.129000
     19 C21        -6.3600   -5.2260   -2.3250 ca        1 R77     -0.131500
     20 C22        -6.2140   -6.3940   -1.5770 ca        1 R77     -0.142000
     21 C20        -5.1170   -6.5400   -0.7290 ca        1 R77     -0.131500
     22 C18        -4.1700   -5.5230   -0.6280 ca        1 R77     -0.129000
     23 H3          1.2440   -1.9550   -0.0970 hc        1 R77      0.071200
     24 H4          2.7380   -2.6650   -0.7740 hc        1 R77      0.071200
     25 H5          0.8990   -0.7950   -2.3740 hc        1 R77      0.089700
     26 H6          2.9000   -2.9800   -3.3060 hc        1 R77      0.061200
     27 H7          2.0030   -1.7920   -4.3430 hc        1 R77      0.061200
     28 H8          8.7370    1.1270   -4.8830 ho        1 R77      0.396000
     29 H9          5.9310    0.5140   -2.4540 h1        1 R77      0.049700
     30 H10         6.2770    2.1400   -3.2080 h1        1 R77      0.049700
     31 H11         7.5780    1.3050   -2.2530 h1        1 R77      0.049700
     32 H12         0.1690   -3.0820   -3.5040 hc        1 R77      0.029200
     33 H13         0.7410   -3.8530   -1.9730 hc        1 R77      0.029200
     34 H14        -1.3540   -1.5800   -2.1980 hc        1 R77      0.048200
     35 H15        -0.7940   -2.3360   -0.6590 hc        1 R77      0.048200
     36 H16        -1.5970   -4.5850   -1.4690 hc        1 R77      0.038200
     37 H17        -2.1550   -3.8300   -3.0110 hc        1 R77      0.038200
     38 H18        -3.1170   -3.0420   -0.1720 hc        1 R77      0.050700
     39 H19        -3.6920   -2.3170   -1.7240 hc        1 R77      0.050700
     40 H20        -5.5320   -3.2880   -2.8200 ha        1 R77      0.133500
     41 H21        -7.2230   -5.1070   -2.9960 ha        1 R77      0.124500
     42 H22        -6.9610   -7.1960   -1.6560 ha        1 R77      0.123000
     43 H23        -4.9980   -7.4600   -0.1380 ha        1 R77      0.124500
     44 H24        -3.3030   -5.6390    0.0400 ha        1 R77      0.133500
     45 H91         6.4010    0.0110   -4.5970 hn        1 R77      0.393800
@<TRIPOS>BOND
     1    1    2 1   
     2    2    3 1   
     3    2    4 1   
     4    2    5 1   
     5    4    8 1   
     6    5    6 1   
     7    5   23 1   
     8    5   24 1   
     9    6    7 1   
    10    6   13 1   
    11    6   25 1   
    12    7    8 1   
    13    7   26 1   
    14    7   27 1   
    15    8   12 2   
    16    9   10 1   
    17    9   11 1   
    18    9   45 1   
    19   10   28 1   
    20   11   29 1   
    21   11   30 1   
    22   11   31 1   
    23   13   14 1   
    24   13   32 1   
    25   13   33 1   
    26   14   15 1   
    27   14   34 1   
    28   14   35 1   
    29   15   16 1   
    30   15   36 1   
    31   15   37 1   
    32   16   17 1   
    33   16   38 1   
    34   16   39 1   
    35   17   18 ar  
    36   17   22 ar  
    37   18   19 ar  
    38   18   40 1   
    39   19   20 ar  
    40   19   41 1   
    41   20   21 ar  
    42   20   42 1   
    43   21   22 ar  
    44   21   43 1   
    45   22   44 1   
@<TRIPOS>SUBSTRUCTURE
     1 R77         1 TEMP              0 ****  ****    0 ROOT
