@<TRIPOS>MOLECULE
R77
   45    45     1     0     0
SMALL
bcc


@<TRIPOS>ATOM
      1 O6          1.9390    0.6330   -0.6070 o         1 R77     -0.829000
      2 P4          2.8740   -0.5020   -0.5030 p5        1 R77      1.361600
      3 O5          3.8330   -0.7130    0.5920 o         1 R77     -0.829000
      4 O7          3.8410   -0.3920   -1.9080 os        1 R77     -0.539500
      5 C1          2.0730   -1.9520   -0.8810 c3        1 R77     -0.357600
      6 C2          1.3950   -1.7990   -2.2200 c3        1 R77     -0.055700
      7 C3          2.4180   -1.8350   -3.3490 c3        1 R77     -0.170400
      8 C8          3.5600   -0.8720   -3.1070 c         1 R77      0.788600
      9 N9          7.1600    0.5810   -4.0440 n3        1 R77     -0.590700
     10 O10         7.7080    1.5110   -4.8540 oh        1 R77     -0.450300
     11 C11         6.7150    1.1840   -2.7920 c3        1 R77      0.097100
     12 O12         4.3170   -0.5230   -4.0310 o         1 R77     -0.698500
     13 C13         0.3360   -2.8640   -2.4630 c3        1 R77     -0.065400
     14 C14        -0.9500   -2.5640   -1.7240 c3        1 R77     -0.080400
     15 C15        -1.9880   -3.6380   -1.9730 c3        1 R77     -0.074400
     16 C16        -3.2760   -3.3310   -1.2330 c3        1 R77     -0.042100
     17 C17        -4.2980   -4.3960   -1.4290 ca        1 R77     -0.065300
     18 C19        -5.4280   -4.1630   -2.2210 ca        1 R77     -0.129000
     19 C21        -6.3850   -5.1620   -2.3930 ca        1 R77     -0.131500
     20 C22        -6.2230   -6.4020   -1.7770 ca        1 R77     -0.142000
     21 C20        -5.0990   -6.6410   -0.9860 ca        1 R77     -0.131500
     22 C18        -4.1420   -5.6440   -0.8120 ca        1 R77     -0.129000
     23 H3          2.7790   -2.8150   -0.8910 hc        1 R77      0.071200
     24 H4          1.3130   -2.1750   -0.0940 hc        1 R77      0.071200
     25 H5          0.9020   -0.7800   -2.2240 hc        1 R77      0.089700
     26 H6          1.9320   -1.5690   -4.3220 hc        1 R77      0.061200
     27 H7          2.8540   -2.8630   -3.4460 hc        1 R77      0.061200
     28 H8          8.6660    1.3640   -4.7800 ho        1 R77      0.396000
     29 H9          7.5980    1.2680   -2.1090 h1        1 R77      0.049700
     30 H10         6.2710    2.2050   -2.9250 h1        1 R77      0.049700
     31 H11         5.9380    0.5100   -2.3360 h1        1 R77      0.049700
     32 H12         0.7330   -3.8620   -2.1410 hc        1 R77      0.029200
     33 H13         0.1180   -2.9310   -3.5620 hc        1 R77      0.029200
     34 H14        -0.7450   -2.4850   -0.6240 hc        1 R77      0.048200
     35 H15        -1.3500   -1.5690   -2.0550 hc        1 R77      0.048200
     36 H16        -1.5910   -4.6330   -1.6370 hc        1 R77      0.038200
     37 H17        -2.1950   -3.7170   -3.0720 hc        1 R77      0.038200
     38 H18        -3.6760   -2.3420   -1.5830 hc        1 R77      0.050700
     39 H19        -3.0560   -3.2280   -0.1350 hc        1 R77      0.050700
     40 H20        -5.5600   -3.1860   -2.7100 ha        1 R77      0.133500
     41 H21        -7.2700   -4.9690   -3.0180 ha        1 R77      0.124500
     42 H22        -6.9790   -7.1880   -1.9140 ha        1 R77      0.123000
     43 H23        -4.9680   -7.6180   -0.4990 ha        1 R77      0.124500
     44 H24        -3.2540   -5.8330   -0.1900 ha        1 R77      0.133500
     45 H91         6.3330    0.2330   -4.5340 hn        1 R77      0.392800
@<TRIPOS>BOND
     1    1    2 1   
     2    2    3 1   
     3    2    4 1   
     4    2    5 1   
     5    4    8 1   
     6    5    6 1   
     7    5   23 1   
     8    5   24 1   
     9    6    7 1   
    10    6   13 1   
    11    6   25 1   
    12    7    8 1   
    13    7   26 1   
    14    7   27 1   
    15    8   12 2   
    16    9   10 1   
    17    9   11 1   
    18    9   45 1   
    19   10   28 1   
    20   11   29 1   
    21   11   30 1   
    22   11   31 1   
    23   13   14 1   
    24   13   32 1   
    25   13   33 1   
    26   14   15 1   
    27   14   34 1   
    28   14   35 1   
    29   15   16 1   
    30   15   36 1   
    31   15   37 1   
    32   16   17 1   
    33   16   38 1   
    34   16   39 1   
    35   17   18 ar  
    36   17   22 ar  
    37   18   19 ar  
    38   18   40 1   
    39   19   20 ar  
    40   19   41 1   
    41   20   21 ar  
    42   20   42 1   
    43   21   22 ar  
    44   21   43 1   
    45   22   44 1   
@<TRIPOS>SUBSTRUCTURE
     1 R77         1 TEMP              0 ****  ****    0 ROOT
