@<TRIPOS>MOLECULE
R78
   77    81     1     0     0
SMALL
bcc


@<TRIPOS>ATOM
      1 N1          1.1370   -0.9970   -0.4240 nb        1 R78     -0.737000
      2 N3          5.1530   -0.0410    0.4280 nh        1 R78     -0.753300
      3 C4          2.0320   -1.9660   -0.1800 ca        1 R78      0.437200
      4 C5          6.1550   -1.0550    0.1620 c3        1 R78      0.158500
      5 C6          5.6680   -2.4980    0.3930 c         1 R78      0.700500
      6 C7         -0.6480    1.2290   -0.6280 ca        1 R78      0.119600
      7 C8          5.5590    1.3540    0.5120 c3        1 R78      0.225500
      8 C13         7.3050    3.0250    0.7360 c3        1 R78     -0.080900
      9 C15         5.5970    2.1610   -0.8060 c3        1 R78     -0.096900
     10 C17        -2.7740    2.0220    0.3130 ca        1 R78     -0.143000
     11 C20        -1.3750    0.2940   -1.3880 ca        1 R78     -0.088000
     12 C22        -6.9760   -0.4090   -0.2210 c3        1 R78      0.098700
     13 C24        -9.1010   -1.2440   -1.2660 c3        1 R78      0.170300
     14 C28        -8.8580   -1.3590    1.1440 c3        1 R78      0.170300
     15 O2         -5.6160    2.0630   -0.1410 o         1 R78     -0.612100
     16 N6         -5.5500   -0.2200   -0.3590 n         1 R78     -0.566900
     17 C29        -7.3430   -1.2250    1.0300 c3        1 R78     -0.092900
     18 N7         -9.4770   -1.9370   -0.0410 n3        1 R78     -0.734600
     19 C30       -10.9100   -2.0710    0.0970 c3        1 R78      0.158100
     20 C23        -7.5920   -1.1080   -1.4450 c3        1 R78     -0.092900
     21 C18        -3.4620    1.0630   -0.4370 ca        1 R78     -0.117600
     22 C16        -1.3840    2.1040    0.2290 ca        1 R78      0.084100
     23 O3         -0.6310    3.0120    0.9520 os        1 R78     -0.341900
     24 C31        -1.3560    4.0250    1.6410 c3        1 R78      0.115700
     25 C19        -2.7620    0.2100   -1.2890 ca        1 R78     -0.128000
     26 C1          1.6180    0.2970   -0.4260 ca        1 R78      0.867900
     27 N2          2.9340    0.6530   -0.1800 nb        1 R78     -0.780000
     28 C2          3.8250   -0.3430    0.0750 ca        1 R78      0.692200
     29 C14         6.6170    3.2720   -0.6020 c3        1 R78     -0.080900
     30 C12         6.9390    1.6110    1.1590 c3        1 R78     -0.096900
     31 C9          6.8480   -1.0150   -1.2100 c3        1 R78     -0.105400
     32 O1          6.5000   -3.3970    0.6140 o         1 R78     -0.629500
     33 N4          4.3080   -2.7700    0.3470 n         1 R78     -0.349000
     34 C11         3.8110   -4.1030    0.5540 c3        1 R78      0.075300
     35 C3          3.3990   -1.7320    0.0810 ca        1 R78     -0.247000
     36 H4          1.6140   -2.9910   -0.1880 h4        1 R78      0.031100
     37 H5          6.9610   -0.9100    0.9510 h1        1 R78      0.095700
     38 H8          4.7930    1.8470    1.1880 h1        1 R78      0.076700
     39 H10         5.4420   -2.2310   -2.3260 hc        1 R78      0.042367
     40 H10A        5.1220   -0.4500   -2.4080 hc        1 R78      0.042367
     41 H10B        6.5040   -1.1650   -3.3340 hc        1 R78      0.042367
     42 H13         8.4130    3.1400    0.6500 hc        1 R78      0.044700
     43 H13A        6.9480    3.7630    1.4980 hc        1 R78      0.044700
     44 H15         5.8900    1.5130   -1.6700 hc        1 R78      0.054200
     45 H15A        4.5870    2.5830   -1.0310 hc        1 R78      0.054200
     46 H17        -3.3500    2.7050    0.9580 ha        1 R78      0.162000
     47 H20        -0.8450   -0.3860   -2.0750 ha        1 R78      0.161000
     48 H22        -7.4490    0.6170   -0.1250 h1        1 R78      0.089700
     49 H24A       -9.5620   -0.2130   -1.3160 h1        1 R78      0.033700
     50 H28        -9.0930   -2.0390    2.0110 h1        1 R78      0.033700
     51 H28A       -9.2910   -0.3420    1.3820 h1        1 R78      0.033700
     52 HN6        -4.9890   -1.0330   -0.4360 hn        1 R78      0.312500
     53 H29        -6.8720   -2.2400    0.9790 hc        1 R78      0.052200
     54 H29A       -6.9650   -0.7120    1.9520 hc        1 R78      0.052200
     55 H30       -11.3120   -2.6020   -0.8050 h1        1 R78      0.032033
     56 H30A      -11.1290   -2.6880    1.0070 h1        1 R78      0.032033
     57 H30B      -11.4430   -1.0850    0.1970 h1        1 R78      0.032033
     58 H23        -7.4010   -0.5080   -2.3710 hc        1 R78      0.052200
     59 H23A       -7.1310   -2.1190   -1.5840 hc        1 R78      0.052200
     60 H31        -2.0130    4.5930    0.9390 h1        1 R78      0.049367
     61 H31A       -1.9580    3.5770    2.4690 h1        1 R78      0.049367
     62 H31B       -0.5490    4.6840    2.0520 h1        1 R78      0.049367
     63 H19        -3.2920   -0.5270   -1.9110 ha        1 R78      0.139000
     64 H14         6.1190    4.2730   -0.6060 hc        1 R78      0.044700
     65 H14A        7.3660    3.2710   -1.4330 hc        1 R78      0.044700
     66 H12         6.8810    1.5060    2.2690 hc        1 R78      0.054200
     67 H12A        7.7200    0.9050    0.7810 hc        1 R78      0.054200
     68 H9          7.3750   -0.0290   -1.3150 hc        1 R78      0.063200
     69 H9A         7.6340   -1.8190   -1.2010 hc        1 R78      0.063200
     70 H11         4.6550   -4.7720    0.8750 h1        1 R78      0.054367
     71 H11A        3.0210   -4.0980    1.3520 h1        1 R78      0.054367
     72 H11B        3.3680   -4.5050   -0.3970 h1        1 R78      0.054367
     73 C10         5.9260   -1.2260   -2.3800 c3        1 R78     -0.101100
     74 N5          0.7520    1.3680   -0.7830 nh        1 R78     -0.681300
     75 C21        -4.9490    1.0200   -0.3060 c         1 R78      0.675700
     76 H24        -9.5110   -1.8410   -2.1300 h1        1 R78      0.033700
     77 HN5         1.0880    2.2670   -0.4840 hn        1 R78      0.441800
@<TRIPOS>BOND
     1    1    3 ar  
     2    1   26 ar  
     3    2    4 1   
     4    2    7 1   
     5    2   28 1   
     6    3   35 ar  
     7    3   36 1   
     8    4    5 1   
     9    4   31 1   
    10    4   37 1   
    11    5   32 2   
    12    5   33 1   
    13    6   11 ar  
    14    6   22 ar  
    15    6   74 1   
    16    7    9 1   
    17    7   30 1   
    18    7   38 1   
    19    8   29 1   
    20    8   30 1   
    21    8   42 1   
    22    8   43 1   
    23    9   29 1   
    24    9   44 1   
    25    9   45 1   
    26   10   21 ar  
    27   10   22 ar  
    28   10   46 1   
    29   11   25 ar  
    30   11   47 1   
    31   12   16 1   
    32   12   17 1   
    33   12   20 1   
    34   12   48 1   
    35   13   18 1   
    36   13   20 1   
    37   13   49 1   
    38   13   76 1   
    39   14   17 1   
    40   14   18 1   
    41   14   50 1   
    42   14   51 1   
    43   15   75 2   
    44   16   52 1   
    45   16   75 1   
    46   17   53 1   
    47   17   54 1   
    48   18   19 1   
    49   19   55 1   
    50   19   56 1   
    51   19   57 1   
    52   20   58 1   
    53   20   59 1   
    54   21   25 ar  
    55   21   75 1   
    56   22   23 1   
    57   23   24 1   
    58   24   60 1   
    59   24   61 1   
    60   24   62 1   
    61   25   63 1   
    62   26   27 ar  
    63   26   74 1   
    64   27   28 ar  
    65   28   35 ar  
    66   29   64 1   
    67   29   65 1   
    68   30   66 1   
    69   30   67 1   
    70   31   68 1   
    71   31   69 1   
    72   31   73 1   
    73   33   34 1   
    74   33   35 1   
    75   34   70 1   
    76   34   71 1   
    77   34   72 1   
    78   39   73 1   
    79   40   73 1   
    80   41   73 1   
    81   74   77 1   
@<TRIPOS>SUBSTRUCTURE
     1 R78         1 TEMP              0 ****  ****    0 ROOT
