@<TRIPOS>MOLECULE
R78
   78    82     1     0     0
SMALL
bcc


@<TRIPOS>ATOM
      1 N1          0.5400   -0.4060   -0.1420 nb        1 R78     -0.739000
      2 N3          1.8020   -0.6670    3.8680 nh        1 R78     -0.747300
      3 C4          1.8530   -0.4150    0.1610 ca        1 R78      0.414200
      4 C5          3.1410   -0.2140    4.1980 c3        1 R78      0.155500
      5 C6          4.1710   -0.3980    3.0710 c         1 R78      0.699500
      6 C7         -2.3980   -0.1650   -0.4560 ca        1 R78      0.279600
      7 C8          0.8170   -0.8130    4.9320 c3        1 R78      0.223500
      8 C13         0.2720   -0.9210    7.2930 c3        1 R78     -0.081900
      9 C15        -0.0420    0.4300    5.2630 c3        1 R78     -0.095400
     10 C17        -4.4940   -0.2810   -1.7550 ca        1 R78     -0.086000
     11 C20        -1.8490    0.6040   -1.5170 ca        1 R78     -0.172000
     12 C22        -4.8920    1.5370   -6.3750 c3        1 R78      0.124500
     13 C24        -6.6440    2.9250   -7.4950 c3        1 R78      0.171300
     14 C28        -4.9410    1.8770   -8.8500 c3        1 R78      0.171300
     15 O2         -5.9100    0.4220   -4.1340 o         1 R78     -0.461100
     16 N6         -4.0250    1.3440   -5.1580 n4        1 R78     -0.677800
     17 C29        -4.0320    1.6730   -7.6350 c3        1 R78     -0.101400
     18 N7         -5.8250    3.0210   -8.6940 n3        1 R78     -0.739600
     19 C30        -6.5980    3.3020   -9.8840 c3        1 R78      0.155100
     20 C23        -5.8060    2.7570   -6.2260 c3        1 R78     -0.101400
     21 C18        -3.8970    0.4510   -2.8070 ca        1 R78     -0.256600
     22 C16        -3.7780   -0.5790   -0.6110 ca        1 R78      0.047100
     23 O3         -4.3000   -1.2980    0.4500 os        1 R78     -0.333900
     24 C31        -5.6940   -1.5880    0.4040 c3        1 R78      0.112700
     25 C19        -2.5750    0.8940   -2.6560 ca        1 R78     -0.063000
     26 C1         -0.3250   -0.4460    0.9210 ca        1 R78      0.858900
     27 N2          0.0370   -0.4810    2.2560 nb        1 R78     -0.765000
     28 C2          1.3670   -0.5140    2.5480 ca        1 R78      0.697200
     29 C14        -0.4730    0.2770    6.7160 c3        1 R78     -0.081900
     30 C12         1.3690   -1.2750    6.2990 c3        1 R78     -0.095400
     31 C9          3.2740    1.2290    4.7160 c3        1 R78     -0.106400
     32 O1          5.3820   -0.4320    3.3420 o         1 R78     -0.597500
     33 N4          3.7270   -0.5190    1.7540 n         1 R78     -0.355000
     34 C11         4.6650   -0.6810    0.6730 c3        1 R78      0.069300
     35 C3          2.3580   -0.4780    1.4740 ca        1 R78     -0.198000
     36 H4          2.5260   -0.3830   -0.7180 h4        1 R78      0.041100
     37 H5          3.5090   -0.9060    5.0220 h1        1 R78      0.106700
     38 H8          0.1130   -1.6300    4.5810 h1        1 R78      0.075700
     39 H10         2.9890    3.2980    4.1840 hc        1 R78      0.042033
     40 H10A        3.4940    2.2360    2.8070 hc        1 R78      0.042033
     41 H10B        1.7920    2.1680    3.4300 hc        1 R78      0.042033
     42 H13         0.7060   -0.6850    8.2950 hc        1 R78      0.050450
     43 H13A       -0.4260   -1.7870    7.4250 hc        1 R78      0.050450
     44 H15         0.5430    1.3730    5.1240 hc        1 R78      0.054700
     45 H15A       -0.9290    0.4800    4.5860 hc        1 R78      0.054700
     46 H17        -5.5400   -0.6160   -1.8700 ha        1 R78      0.170000
     47 H20        -0.8210    0.9960   -1.4430 ha        1 R78      0.186000
     48 H22        -5.5360    0.6080   -6.4620 hx        1 R78      0.119700
     49 H28        -4.2870    2.0650   -9.7480 h1        1 R78      0.055950
     50 H28A       -5.5130    0.9190   -9.0330 h1        1 R78      0.055950
     51 HN6        -3.6730    2.2580   -4.8550 hn        1 R78      0.451800
     52 H29        -3.3330    2.5450   -7.5410 hc        1 R78      0.069700
     53 H29A       -3.4240    0.7460   -7.8040 hc        1 R78      0.069700
     54 H30        -7.1780    4.2480   -9.7200 h1        1 R78      0.048033
     55 H30A       -5.8920    3.4580  -10.7420 h1        1 R78      0.048033
     56 H30B       -7.3160    2.4790  -10.1500 h1        1 R78      0.048033
     57 H23        -6.5030    2.6130   -5.3590 hc        1 R78      0.069700
     58 H23A       -5.1990    3.6830   -6.0510 hc        1 R78      0.069700
     59 H31        -6.2930   -0.6490    0.3170 h1        1 R78      0.058033
     60 H31A       -5.9190   -2.2850   -0.4390 h1        1 R78      0.058033
     61 H31B       -5.8790   -2.0890    1.3900 h1        1 R78      0.058033
     62 H19        -2.0740    1.4980   -3.4290 ha        1 R78      0.119000
     63 H14        -1.5780    0.1210    6.7860 hc        1 R78      0.050450
     64 H14A       -0.2310    1.2050    7.2920 hc        1 R78      0.050450
     65 H12         1.5890   -2.3690    6.2900 hc        1 R78      0.054700
     66 H12A        2.3040   -0.7300    6.5830 hc        1 R78      0.054700
     67 H9          2.6660    1.3290    5.6550 hc        1 R78      0.071200
     68 H9A         4.3530    1.3740    4.9950 hc        1 R78      0.071200
     69 H11         5.7000   -0.8110    1.0920 h1        1 R78      0.059700
     70 H11A        4.3970   -1.5870    0.0660 h1        1 R78      0.059700
     71 H11B        4.6510    0.2250    0.0100 h1        1 R78      0.059700
     72 C10         2.8620    2.2850    3.7280 c3        1 R78     -0.102100
     73 N5         -1.7300   -0.4880    0.6970 nh        1 R78     -0.699300
     74 C21        -4.7230    0.6910   -3.9720 c         1 R78      0.579700
     75 H24        -7.2320    3.8820   -7.4010 h1        1 R78      0.055950
     76 HN5        -2.2760   -0.8790    1.4430 hn        1 R78      0.486800
     77 H62        -3.2230    0.7580   -5.4120 hn        1 R78      0.451800
     78 H24A       -7.3820    2.0710   -7.5530 h1        1 R78      0.055950
@<TRIPOS>BOND
     1    1    3 ar  
     2    1   26 ar  
     3    2    4 1   
     4    2    7 1   
     5    2   28 1   
     6    3   35 ar  
     7    3   36 1   
     8    4    5 1   
     9    4   31 1   
    10    4   37 1   
    11    5   32 2   
    12    5   33 1   
    13    6   11 ar  
    14    6   22 ar  
    15    6   73 1   
    16    7    9 1   
    17    7   30 1   
    18    7   38 1   
    19    8   29 1   
    20    8   30 1   
    21    8   42 1   
    22    8   43 1   
    23    9   29 1   
    24    9   44 1   
    25    9   45 1   
    26   10   21 ar  
    27   10   22 ar  
    28   10   46 1   
    29   11   25 ar  
    30   11   47 1   
    31   12   16 1   
    32   12   17 1   
    33   12   20 1   
    34   12   48 1   
    35   13   18 1   
    36   13   20 1   
    37   13   75 1   
    38   13   78 1   
    39   14   17 1   
    40   14   18 1   
    41   14   49 1   
    42   14   50 1   
    43   15   74 2   
    44   16   51 1   
    45   16   74 1   
    46   16   77 1   
    47   17   52 1   
    48   17   53 1   
    49   18   19 1   
    50   19   54 1   
    51   19   55 1   
    52   19   56 1   
    53   20   57 1   
    54   20   58 1   
    55   21   25 ar  
    56   21   74 1   
    57   22   23 1   
    58   23   24 1   
    59   24   59 1   
    60   24   60 1   
    61   24   61 1   
    62   25   62 1   
    63   26   27 ar  
    64   26   73 1   
    65   27   28 ar  
    66   28   35 ar  
    67   29   63 1   
    68   29   64 1   
    69   30   65 1   
    70   30   66 1   
    71   31   67 1   
    72   31   68 1   
    73   31   72 1   
    74   33   34 1   
    75   33   35 1   
    76   34   69 1   
    77   34   70 1   
    78   34   71 1   
    79   39   72 1   
    80   40   72 1   
    81   41   72 1   
    82   73   76 1   
@<TRIPOS>SUBSTRUCTURE
     1 R78         1 TEMP              0 ****  ****    0 ROOT
