@<TRIPOS>MOLECULE
R78
   78    73     1     0     0
SMALL
bcc


@<TRIPOS>ATOM
      1 N1          1.1120    0.2530    0.3680 n2        1 R78     -0.243000
      2 N3          1.7850   -1.5090    4.0700 n2        1 R78     -0.175000
      3 C4          2.3220   -0.0320    0.7120 c1        1 R78     -0.144000
      4 C5          5.2880    0.7670    0.9920 c2        1 R78     -0.187000
      5 C6          4.6220    1.1030    2.2680 c2        1 R78      0.182000
      6 C7         -1.5450    1.3030   -0.1520 c2        1 R78      0.148000
      7 C8          0.7860   -1.9710    4.9420 c2        1 R78     -0.154000
      8 C13        -2.6770    0.1060    3.6720 c1        1 R78      0.058000
      9 C15        -3.9050    1.1870    5.5410 c3        1 R78     -0.147000
     10 C17        -3.2430    1.3180   -2.0290 c1        1 R78     -0.033000
     11 C20        -0.7400    2.1320   -0.9160 c2        1 R78     -0.265000
     12 C22        -6.5750   -0.7350   -5.5470 c3        1 R78     -0.262000
     13 C24        -4.7660    0.4900   -6.8600 c2        1 R78     -0.188000
     14 C28        -5.9860   -0.6080   -8.6560 c2        1 R78      0.022000
     15 O2         -3.4840    2.2600   -4.9150 o         1 R78     -0.470000
     16 N6         -2.7310    4.1580   -3.8930 nt        1 R78     -0.382000
     17 C29        -6.8100   -1.2400   -4.2040 c1        1 R78      0.002000
     18 N7         -4.9080   -0.1000   -8.1400 n7        1 R78     -0.019000
     19 C30        -7.8440    1.7810  -10.5560 c3        1 R78     -0.259000
     20 C23        -5.4780    0.2340   -5.7450 c2        1 R78     -0.075000
     21 C18        -2.2310    1.9610   -2.8630 c3        1 R78     -0.240000
     22 C16        -2.9940    1.2030   -0.5940 c3        1 R78     -0.198000
     23 O3         -3.5960   -0.0720   -0.1020 os        1 R78     -0.036000
     24 C31        -4.6870   -0.5210   -0.5350 c1        1 R78     -0.005000
     25 C19        -1.1760    2.6880   -2.1220 c1        1 R78     -0.091000
     26 C1          0.0910    0.2300    1.3440 c2        1 R78      0.312000
     27 N2          0.2820   -0.2860    2.6110 n7        1 R78     -0.311000
     28 C2          1.5660   -0.7830    3.0240 c2        1 R78      0.111000
     29 C14        -3.5190    0.0520    4.6710 c2        1 R78     -0.401000
     30 C12         0.9810   -2.0950    6.2650 c2        1 R78     -0.177000
     31 C9          6.5930    0.9300    0.7790 c2        1 R78     -0.151000
     32 O1          5.3380    2.0740    2.9480 os        1 R78     -0.220000
     33 N4          3.5230    0.6300    2.7770 n2        1 R78     -0.289000
     34 C11         4.8440    2.5330    4.2050 c3        1 R78     -0.064000
     35 C3          2.7730   -0.3970    2.1030 c3        1 R78     -0.001000
     36 H4          3.3920   -1.3430    1.9840 h1        1 R78      0.142000
     37 H5          4.5990    0.3660    0.2230 ha        1 R78      0.182000
     38 H8         -0.4750   -0.3260    3.2710 hn        1 R78      0.252000
     39 H10         4.3340   -2.1950    5.4700 ha        1 R78      0.020000
     40 H10A        7.2750    1.3390    1.5380 ha        1 R78      0.123500
     41 H10B        4.1060   -0.3910    5.5270 ha        1 R78      0.020000
     42 H13        -2.2040   -2.1700    3.3940 ha        1 R78      0.006000
     43 H13A       -2.3790   -2.0150    2.7550 ha        1 R78      0.006000
     44 H15        -0.1620   -2.3210    4.4830 h4        1 R78      0.104000
     45 H15A       -5.0110    1.3410    5.4900 hc        1 R78      0.098000
     46 H17        -3.5970    2.0200   -0.0850 h1        1 R78      0.174000
     47 H20         0.2860    2.3980   -0.5970 ha        1 R78      0.209000
     48 H22        -3.0420    4.7200   -4.6490 hn        1 R78      0.246500
     49 H28        -6.4510   -1.6470   -6.2040 hc        1 R78      0.160000
     50 H28A       -6.2140   -0.8140   -3.3830 ha        1 R78      0.063000
     51 HN6        -7.5630   -0.2550   -5.8430 hc        1 R78      0.160000
     52 H29        -6.9460   -0.6150   -8.0980 h4        1 R78      0.199500
     53 H29A       -5.9750   -1.0400   -9.6800 h4        1 R78      0.199500
     54 H30        -7.3960    1.8570  -11.5710 hc        1 R78      0.065250
     55 H30A       -8.9040    1.4570  -10.6400 hc        1 R78      0.065250
     56 H30B       -7.2760    1.0330   -9.9560 hc        1 R78      0.065250
     57 H23        -4.0530   -0.0810   -8.6870 hn        1 R78      0.284000
     58 H23A       -5.1710    0.8210   -4.8460 ha        1 R78      0.217000
     59 H31        -5.2930   -0.0460   -1.3290 ha        1 R78      0.085000
     60 H31A       -5.7340    1.3290    0.7050 ha        1 R78      0.006000
     61 H31B       -6.0490    0.8180    1.0210 ha        1 R78      0.006000
     62 H19        -1.7170    1.0890   -3.4040 hc        1 R78      0.217000
     63 H14        -4.0080   -0.9100    4.9330 ha        1 R78      0.201000
     64 H14A       -3.6240    0.9590    6.6010 hc        1 R78      0.098000
     65 H12        -3.3970    2.1340    5.2360 hc        1 R78      0.098000
     66 H12A        0.2020   -2.5280    6.9050 ha        1 R78      0.149000
     67 H9          7.0590    0.6630   -0.1800 ha        1 R78      0.123500
     68 H9A         1.9120   -1.7830    6.7770 ha        1 R78      0.149000
     69 H11         3.8430    3.0110    4.0830 h1        1 R78      0.087333
     70 H11A        4.7880    1.6930    4.9390 h1        1 R78      0.087333
     71 H11B        5.6110    3.2860    4.5180 h1        1 R78      0.087333
     72 C10         3.9010   -1.3500    6.0270 c1        1 R78     -0.040000
     73 N5         -1.2010    0.6970    1.0400 n7        1 R78     -0.259000
     74 C21        -2.8580    2.8060   -3.9730 c2        1 R78      0.369000
     75 H24        -3.9320    1.2330   -6.8300 h4        1 R78      0.231000
     76 HN5        -1.9580    0.4440    1.6630 hn        1 R78      0.281000
     77 H62        -2.0770    4.5460   -3.2470 hn        1 R78      0.246500
     78 H24A       -7.7960    2.7720  -10.0530 hc        1 R78      0.065250
@<TRIPOS>BOND
     1    1    3 1   
     2    1   26 1   
     3    2    7 1   
     4    2   28 1   
     5    3   35 1   
     6    4    5 1   
     7    4   31 1   
     8    4   37 1   
     9    5   32 1   
    10    5   33 1   
    11    6   11 1   
    12    6   22 1   
    13    6   73 1   
    14    7   30 1   
    15    7   44 1   
    16    8   29 1   
    17    9   29 1   
    18    9   45 1   
    19    9   64 1   
    20    9   65 1   
    21   10   21 1   
    22   10   22 1   
    23   11   25 1   
    24   11   47 1   
    25   12   17 1   
    26   12   20 1   
    27   12   49 1   
    28   12   51 1   
    29   13   18 1   
    30   13   20 1   
    31   13   75 1   
    32   14   18 1   
    33   14   52 1   
    34   14   53 1   
    35   15   74 1   
    36   16   48 1   
    37   16   74 1   
    38   16   77 1   
    39   17   50 1   
    40   18   57 1   
    41   19   54 1   
    42   19   55 1   
    43   19   56 1   
    44   19   78 1   
    45   20   58 1   
    46   21   25 1   
    47   21   62 1   
    48   21   74 1   
    49   22   23 1   
    50   22   46 1   
    51   23   24 1   
    52   24   59 1   
    53   26   27 1   
    54   26   73 1   
    55   27   28 1   
    56   27   38 1   
    57   28   35 1   
    58   29   63 1   
    59   30   66 1   
    60   30   68 1   
    61   31   40 1   
    62   31   67 1   
    63   32   34 1   
    64   33   35 1   
    65   34   69 1   
    66   34   70 1   
    67   34   71 1   
    68   35   36 1   
    69   39   72 1   
    70   41   72 1   
    71   42   43 1   
    72   60   61 1   
    73   73   76 1   
@<TRIPOS>SUBSTRUCTURE
     1 R78         1 TEMP              0 ****  ****    0 ROOT
