@<TRIPOS>MOLECULE
R78
   78    77     1     0     0
SMALL
bcc


@<TRIPOS>ATOM
      1 N1          0.4720    1.3470   -0.3450 n2        1 R78     -0.271000
      2 N3          1.6710   -0.8260    2.9440 n3        1 R78     -0.180000
      3 C4          1.7470    1.2000   -0.1870 c1        1 R78     -0.113000
      4 C5          3.0510   -0.6660    3.4310 c3        1 R78      0.082000
      5 C6          4.0230   -0.2620    2.3540 c2        1 R78     -0.248000
      6 C7         -2.4020    1.2280   -0.8650 c2        1 R78      0.167000
      7 C8          0.7220   -1.4140    3.8850 c3        1 R78     -0.057000
      8 C13        -1.5830    0.4290    5.5370 c1        1 R78      0.143000
      9 C15        -3.2100    0.6630    7.4140 c3        1 R78     -0.137000
     10 C17        -4.0770    1.4420   -2.7600 c1        1 R78     -0.041000
     11 C20        -2.1180    2.5820   -1.0140 c2        1 R78     -0.281000
     12 C22        -4.4150   -1.1380   -5.8370 c3        1 R78     -0.251000
     13 C24        -5.9270    0.5530   -6.9920 c3        1 R78     -0.064000
     14 C28        -3.9860    1.5700   -8.1450 c3        1 R78     -0.234000
     15 O2         -5.0080    3.3850   -4.8320 o         1 R78     -0.499000
     16 N6         -4.8810    4.8170   -3.0600 nt        1 R78     -0.378000
     17 C29        -3.2490   -0.7650   -6.5970 c1        1 R78     -0.084000
     18 N7         -5.2240    1.7750   -7.4150 n3        1 R78     -0.038000
     19 C30        -5.6800    2.9560   -7.1220 c2        1 R78      0.086000
     20 C23        -5.4430   -0.0360   -5.6680 c3        1 R78     -0.177000
     21 C18        -3.5080    2.7570   -3.0350 c3        1 R78     -0.233000
     22 C16        -3.6940    0.7650   -1.5200 c3        1 R78     -0.190000
     23 O3         -3.6460   -0.6970   -1.8020 os        1 R78     -0.042000
     24 C31        -4.5580   -1.2680   -2.4610 c1        1 R78     -0.022000
     25 C19        -2.8120    3.4010   -1.8960 c1        1 R78     -0.118000
     26 C1         -0.3870    0.4350    0.3250 c2        1 R78      0.242000
     27 N2         -0.0260   -0.4120    1.3390 n2        1 R78     -0.357000
     28 C2          1.3000   -0.3880    1.7220 c2        1 R78      0.182000
     29 C14        -2.2810    1.1550    6.3750 c2        1 R78     -0.462000
     30 C12         0.3080   -2.8360    3.5410 c3        1 R78     -0.227000
     31 C9          3.1750    0.3460    4.5880 c3        1 R78     -0.154000
     32 O1          5.1270   -1.0610    2.3710 os        1 R78      0.072000
     33 N4          3.6570    0.3950    1.1820 n7        1 R78     -0.245000
     34 C11         6.0180   -1.1220    1.4250 c2        1 R78     -0.196000
     35 C3          2.3390    0.0970    0.6850 c3        1 R78     -0.070000
     36 H4          2.4560   -0.7930   -0.0240 h1        1 R78      0.148000
     37 H5          3.3580   -1.6810    3.8380 h1        1 R78      0.119000
     38 H8         -3.2750   -0.4530    7.4120 hc        1 R78      0.088667
     39 H10         3.2680    2.1460    3.3790 hc        1 R78      0.081667
     40 H10A        4.2650    0.3670    4.8610 hc        1 R78      0.098500
     41 H10B        1.6200    1.7630    4.0320 hc        1 R78      0.081667
     42 H13         1.1900   -3.5190    3.5080 hc        1 R78      0.089333
     43 H13A       -0.3920   -3.1940    4.3340 hc        1 R78      0.089333
     44 H15        -0.1970   -0.7560    3.9550 h1        1 R78      0.125500
     45 H15A       -2.8610    0.9960    8.4240 hc        1 R78      0.088667
     46 H17        -4.5480    0.9040   -0.7840 h1        1 R78      0.176000
     47 H20        -1.3130    3.0620   -0.4240 ha        1 R78      0.209000
     48 H22        -5.4720    5.4750   -3.5070 hn        1 R78      0.251500
     49 H28        -4.8770   -2.0170   -6.3910 hc        1 R78      0.149000
     50 H28A       -2.3740   -1.4280   -6.5530 ha        1 R78      0.089000
     51 HN6        -4.1530   -1.5400   -4.8100 hc        1 R78      0.149000
     52 H29        -3.4140    0.6980   -7.6250 h1        1 R78      0.157667
     53 H29A       -3.3630    2.5000   -8.1390 h1        1 R78      0.157667
     54 H30        -6.6120    3.0850   -6.5330 h4        1 R78      0.191500
     55 H30A       -5.1260    3.8690   -7.4190 h4        1 R78      0.191500
     56 H30B       -4.2290    1.2790   -9.2000 h1        1 R78      0.157667
     57 H23        -5.0350    0.7650   -4.9860 hc        1 R78      0.131000
     58 H23A       -6.3430   -0.4710   -5.1530 hc        1 R78      0.131000
     59 H31        -5.4380   -0.7320   -2.8720 ha        1 R78      0.078000
     60 H31A       -5.9400   -1.6900   -0.4760 ha        1 R78      0.004000
     61 H31B       -5.9560   -1.0120   -0.4770 ha        1 R78      0.004000
     62 H19        -2.7070    2.5610   -3.8330 hc        1 R78      0.215000
     63 H14        -2.1830    2.2610    6.3310 ha        1 R78      0.193000
     64 H14A       -4.2340    1.0780    7.2370 hc        1 R78      0.088667
     65 H12         1.2040   -1.4190    4.9050 h1        1 R78      0.125500
     66 H12A       -0.2170   -2.8840    2.5580 hc        1 R78      0.089333
     67 H9          2.6110   -0.0360    5.4800 hc        1 R78      0.098500
     68 H9A         2.9010    2.4130    5.1310 hc        1 R78      0.081667
     69 H11         3.8750    1.3730    1.1790 hn        1 R78      0.229000
     70 H11A        6.9700   -1.5600    1.7550 h4        1 R78      0.162500
     71 H11B        5.8710   -0.7000    0.4270 h4        1 R78      0.162500
     72 C10         2.7130    1.7390    4.2590 c3        1 R78     -0.214000
     73 N5         -1.7390    0.3260   -0.0770 n7        1 R78     -0.216000
     74 C21        -4.5210    3.6810   -3.7100 c2        1 R78      0.377000
     75 H24        -7.0240    0.8020   -6.9020 h1        1 R78      0.123500
     76 HN5        -2.2270   -0.5110    0.1800 hn        1 R78      0.262000
     77 H62        -4.3700    5.0950   -2.2480 hn        1 R78      0.251500
     78 H24A       -5.7990   -0.2030   -7.8200 h1        1 R78      0.123500
@<TRIPOS>BOND
     1    1    3 1   
     2    1   26 1   
     3    2    4 1   
     4    2    7 1   
     5    2   28 1   
     6    3   35 1   
     7    4    5 1   
     8    4   31 1   
     9    4   37 1   
    10    5   32 1   
    11    5   33 1   
    12    6   11 1   
    13    6   22 1   
    14    6   73 1   
    15    7   30 1   
    16    7   44 1   
    17    7   65 1   
    18    8   29 1   
    19    9   29 1   
    20    9   38 1   
    21    9   45 1   
    22    9   64 1   
    23   10   21 1   
    24   10   22 1   
    25   11   25 1   
    26   11   47 1   
    27   12   17 1   
    28   12   20 1   
    29   12   49 1   
    30   12   51 1   
    31   13   18 1   
    32   13   20 1   
    33   13   75 1   
    34   13   78 1   
    35   14   18 1   
    36   14   52 1   
    37   14   53 1   
    38   14   56 1   
    39   15   74 1   
    40   16   48 1   
    41   16   74 1   
    42   16   77 1   
    43   17   50 1   
    44   18   19 1   
    45   19   54 1   
    46   19   55 1   
    47   20   57 1   
    48   20   58 1   
    49   21   25 1   
    50   21   62 1   
    51   21   74 1   
    52   22   23 1   
    53   22   46 1   
    54   23   24 1   
    55   24   59 1   
    56   26   27 1   
    57   26   73 1   
    58   27   28 1   
    59   28   35 1   
    60   29   63 1   
    61   30   42 1   
    62   30   43 1   
    63   30   66 1   
    64   31   40 1   
    65   31   67 1   
    66   31   72 1   
    67   32   34 1   
    68   33   35 1   
    69   33   69 1   
    70   34   70 1   
    71   34   71 1   
    72   35   36 1   
    73   39   72 1   
    74   41   72 1   
    75   60   61 1   
    76   68   72 1   
    77   73   76 1   
@<TRIPOS>SUBSTRUCTURE
     1 R78         1 TEMP              0 ****  ****    0 ROOT
