@<TRIPOS>MOLECULE
R79
   55    57     1     0     0
SMALL
bcc


@<TRIPOS>ATOM
      1 C3A         2.1830   -1.3620  -12.4590 c2        1 R79     -0.203000
      2 C2A         1.7740   -0.1960  -11.9670 c2        1 R79     -0.171200
      3 C1A         0.7240   -0.0770  -10.9070 c3        1 R79      0.200000
      4 N1          1.2420    0.2490   -9.5820 n3        1 R79     -0.729600
      5 C1B         0.1580    0.3690   -8.6130 c3        1 R79      0.169800
      6 C2B         0.6230    0.3180   -7.1580 c3        1 R79     -0.080400
      7 C3B        -0.5750    0.2110   -6.2380 c3        1 R79     -0.079400
      8 C4B        -0.1450    0.1980   -4.7860 c3        1 R79     -0.077400
      9 C5B        -1.3420    0.0860   -3.8680 c3        1 R79     -0.086400
     10 C6B        -0.8900    0.0700   -2.4180 c3        1 R79      0.128400
     11 O          -2.0910   -0.0300   -1.6400 os        1 R79     -0.327900
     12 C6C        -1.9310   -0.0570   -0.2710 ca        1 R79      0.153100
     13 C7C        -3.1310   -0.1400    0.4510 ca        1 R79     -0.133000
     14 C7P        -3.0620   -0.1760    1.8390 ca        1 R79     -0.056100
     15 S1C        -4.2710   -0.2540    3.0270 ss        1 R79      0.232600
     16 N2C        -3.2680   -0.2380    4.3270 nc        1 R79     -0.533200
     17 C3C        -1.9990   -0.1820    3.9570 cd        1 R79      0.462500
     18 C3P        -1.8000   -0.1360    2.5060 ca        1 R79     -0.235900
     19 C4C        -0.6190   -0.0420    1.7660 ca        1 R79     -0.037000
     20 C5C        -0.6800   -0.0040    0.3820 ca        1 R79     -0.208000
     21 C1D        -0.8850   -0.1620    4.9070 ca        1 R79     -0.091900
     22 C6D        -0.9170    0.6960    6.0140 ca        1 R79     -0.105000
     23 C5D         0.1490    0.7190    6.9120 ca        1 R79     -0.108500
     24 C4D         1.2500   -0.1190    6.7150 ca        1 R79     -0.018900
     25 C3D         1.2780   -0.9870    5.6190 ca        1 R79     -0.108500
     26 C2D         0.2150   -1.0080    4.7190 ca        1 R79     -0.105000
     27 BR27        2.6830   -0.0860    7.9200 br        1 R79     -0.084100
     28 C1E         2.1370    1.3820   -9.5780 c3        1 R79      0.153100
     29 H3A1        2.9280   -1.4280  -13.2630 ha        1 R79      0.113000
     30 H3A2        1.8060   -2.3270  -12.0960 ha        1 R79      0.113000
     31 H2A         2.1760    0.7600  -12.3400 ha        1 R79      0.119000
     32 H1A1        0.1780   -1.0610  -10.8100 h1        1 R79      0.033700
     33 H1A2       -0.0290    0.6930  -11.2570 h1        1 R79      0.033700
     34 H1B1       -0.4310    1.3210   -8.7660 h1        1 R79      0.029200
     35 H1B2       -0.5510   -0.4930   -8.7810 h1        1 R79      0.029200
     36 H2B1        1.3020   -0.5610   -7.0000 hc        1 R79      0.049200
     37 H2B2        1.2060    1.2420   -6.9050 hc        1 R79      0.049200
     38 H3B1       -1.2680    1.0750   -6.4170 hc        1 R79      0.042700
     39 H3B2       -1.1470   -0.7260   -6.4680 hc        1 R79      0.042700
     40 H4B1        0.5500   -0.6650   -4.6090 hc        1 R79      0.042700
     41 H4B2        0.4240    1.1360   -4.5530 hc        1 R79      0.042700
     42 H5B1       -2.0390    0.9490   -4.0310 hc        1 R79      0.059200
     43 H5B2       -1.9160   -0.8510   -4.0900 hc        1 R79      0.059200
     44 H6B1       -0.2340   -0.8150   -2.2080 h1        1 R79      0.041700
     45 H6B2       -0.3490    1.0160   -2.1520 h1        1 R79      0.041700
     46 H7C        -4.0910   -0.1740   -0.0810 ha        1 R79      0.160000
     47 H4C         0.3520    0.0060    2.2840 ha        1 R79      0.145000
     48 H5C         0.2490    0.0690   -0.1990 ha        1 R79      0.143000
     49 H6D        -1.7860    1.3510    6.1790 ha        1 R79      0.149500
     50 H5D         0.1130    1.4010    7.7770 ha        1 R79      0.149500
     51 H3D         2.1350   -1.6590    5.4610 ha        1 R79      0.149500
     52 H2D         0.2350   -1.7010    3.8640 ha        1 R79      0.149500
     53 H1F1        3.0140    1.1540  -10.2410 h1        1 R79      0.031367
     54 H1F2        1.6550    2.3330   -9.9370 h1        1 R79      0.031367
     55 H1F3        2.5170    1.5480   -8.5360 h1        1 R79      0.031367
@<TRIPOS>BOND
     1    1    2 2   
     2    1   29 1   
     3    1   30 1   
     4    2    3 1   
     5    2   31 1   
     6    3    4 1   
     7    3   32 1   
     8    3   33 1   
     9    4    5 1   
    10    4   28 1   
    11    5    6 1   
    12    5   34 1   
    13    5   35 1   
    14    6    7 1   
    15    6   36 1   
    16    6   37 1   
    17    7    8 1   
    18    7   38 1   
    19    7   39 1   
    20    8    9 1   
    21    8   40 1   
    22    8   41 1   
    23    9   10 1   
    24    9   42 1   
    25    9   43 1   
    26   10   11 1   
    27   10   44 1   
    28   10   45 1   
    29   11   12 1   
    30   12   13 ar  
    31   12   20 ar  
    32   13   14 ar  
    33   13   46 1   
    34   14   15 1   
    35   14   18 ar  
    36   15   16 1   
    37   16   17 2   
    38   17   18 1   
    39   17   21 1   
    40   18   19 ar  
    41   19   20 ar  
    42   19   47 1   
    43   20   48 1   
    44   21   22 ar  
    45   21   26 ar  
    46   22   23 ar  
    47   22   49 1   
    48   23   24 ar  
    49   23   50 1   
    50   24   25 ar  
    51   24   27 1   
    52   25   26 ar  
    53   25   51 1   
    54   26   52 1   
    55   28   53 1   
    56   28   54 1   
    57   28   55 1   
@<TRIPOS>SUBSTRUCTURE
     1 R79         1 TEMP              0 ****  ****    0 ROOT
