@<TRIPOS>MOLECULE
R79
   55    49     1     0     0
SMALL
bcc


@<TRIPOS>ATOM
      1 C3A        -6.7650   -0.3840   -5.4450 c1        1 R79     -0.152750
      2 C2A        -6.1880    0.5730   -4.6760 c1        1 R79     -0.152750
      3 C1A        -6.6100    0.7430   -3.2530 c2        1 R79     -0.046000
      4 N1         -5.9810    2.2190   -2.6410 n3        1 R79     -0.260000
      5 C1B        -5.3000    1.9340   -1.0930 c3        1 R79     -0.065000
      6 C2B        -3.9430    2.5920   -1.0160 c3        1 R79     -0.160000
      7 C3B        -3.1760    2.0400    0.1800 c3        1 R79     -0.158000
      8 C4B        -1.6670    2.3940    0.0420 c3        1 R79     -0.155000
      9 C5B        -0.8280    1.4510    0.9610 c3        1 R79     -0.196000
     10 C6B         0.6160    1.3230    0.3970 c3        1 R79     -0.024000
     11 O           1.4680    0.7380    1.3930 os        1 R79     -0.208000
     12 C6C         2.6860    0.1820    0.8660 c2        1 R79      0.111000
     13 C7C         2.9050   -0.9920    0.1570 c2        1 R79     -0.183000
     14 C7P         3.9990   -1.8250    0.4880 c1        1 R79     -0.280000
     15 S1C         4.5040   -3.1780   -0.1040 s         1 R79      0.341700
     16 N2C         5.7200   -3.5820    0.6650 n2        1 R79     -0.131700
     17 C3C         5.9670   -2.5920    1.6480 c2        1 R79      0.008000
     18 C3P         4.8520   -1.4710    1.5200 c1        1 R79     -0.080000
     19 C4C         4.6290   -0.2780    2.2410 c1        1 R79     -0.070000
     20 C5C         3.5520    0.5430    1.9150 c1        1 R79     -0.161000
     21 C1D         6.8310   -3.2860    2.4810 c1        1 R79     -0.080000
     22 C6D         6.3310   -4.0520    3.4980 c1        1 R79     -0.152750
     23 C5D         7.2010   -4.7180    4.3610 c1        1 R79     -0.152750
     24 C4D         8.5720   -4.6050    4.1880 c1        1 R79     -0.158000
     25 C3D         9.0760   -3.8330    3.1620 c1        1 R79     -0.109000
     26 C2D         8.2140   -3.1720    2.3060 c1        1 R79     -0.070000
     27 BR27        9.7760   -5.6380    5.3010 br        1 R79      0.056000
     28 C1E        -7.2750    3.3610   -2.4860 c3        1 R79     -0.120000
     29 H3A1       -7.4570   -0.9620   -5.0710 DU        1 R79      0.110000
     30 H3A2       -6.4820   -0.4950   -6.3920 ha        1 R79      0.135750
     31 H2A        -5.5150    1.1350   -5.0410 ha        1 R79      0.135750
     32 H1A1       -6.2670   -0.0050   -2.7200 h4        1 R79      0.076500
     33 H1A2       -7.6130    0.7610   -3.1990 h4        1 R79      0.076500
     34 H1B1       -5.8770    2.3050   -0.4130 h1        1 R79      0.070000
     35 H1B2       -5.2020    0.9490   -0.9460 h1        1 R79      0.070000
     36 H2B1       -3.4570    2.4120   -1.8150 hc        1 R79      0.088000
     37 H2B2       -4.0600    3.5840   -0.9100 hc        1 R79      0.088000
     38 H3B1       -3.2790    1.0810    0.2140 hc        1 R79      0.081500
     39 H3B2       -3.5280    2.4340    1.0000 hc        1 R79      0.081500
     40 H4B1       -1.5250    3.3200    0.3130 hc        1 R79      0.081500
     41 H4B2       -1.3880    2.2790   -0.8880 hc        1 R79      0.081500
     42 H5B1       -0.7940    1.8190    1.8550 hc        1 R79      0.096500
     43 H5B2       -1.2420    0.5760    0.9870 hc        1 R79      0.096500
     44 H6B1        0.9580    2.2240    0.1560 h1        1 R79      0.099000
     45 H6B2        0.6060    0.7540   -0.3990 h1        1 R79      0.099000
     46 H7C         2.3730   -1.1920   -0.5960 ha        1 R79      0.149000
     47 H4C         5.2550   -0.0170    2.9990 ha        1 R79      0.150500
     48 H5C         3.4670    1.4030    2.3270 ha        1 R79      0.155000
     49 H6D         5.3530   -4.1330    3.6220 ha        1 R79      0.135750
     50 H5D         6.8460   -5.2630    5.0850 ha        1 R79      0.135750
     51 H3D        10.0290   -3.7550    3.0410 ha        1 R79      0.150000
     52 H2D         8.5650   -2.6350    1.5920 ha        1 R79      0.150500
     53 H1F1       -7.8480    3.1080   -1.7080 h1        1 R79      0.072333
     54 H1F2       -6.9090    4.2560   -2.3430 h1        1 R79      0.072333
     55 H1F3       -7.8250    3.3560   -3.3210 h1        1 R79      0.072333
@<TRIPOS>BOND
     1    1    2 1   
     2    1   30 1   
     3    2   31 1   
     4    3    4 1   
     5    3   32 1   
     6    3   33 1   
     7    4    5 1   
     8    4   28 1   
     9    5    6 1   
    10    5   34 1   
    11    5   35 1   
    12    6    7 1   
    13    6   36 1   
    14    6   37 1   
    15    7    8 1   
    16    7   38 1   
    17    7   39 1   
    18    8    9 1   
    19    8   40 1   
    20    8   41 1   
    21    9   10 1   
    22    9   42 1   
    23    9   43 1   
    24   10   11 1   
    25   10   44 1   
    26   10   45 1   
    27   11   12 1   
    28   12   13 1   
    29   12   20 1   
    30   13   14 1   
    31   13   46 1   
    32   15   16 2   
    33   16   17 1   
    34   17   18 1   
    35   17   21 1   
    36   18   19 1   
    37   19   47 1   
    38   20   48 1   
    39   21   26 1   
    40   22   23 1   
    41   22   49 1   
    42   23   50 1   
    43   24   25 1   
    44   24   27 1   
    45   25   51 1   
    46   26   52 1   
    47   28   53 1   
    48   28   54 1   
    49   28   55 1   
@<TRIPOS>SUBSTRUCTURE
     1 R79         1 TEMP              0 ****  ****    0 ROOT
