@<TRIPOS>MOLECULE
R82
   50    52     1     0     0
SMALL
bcc


@<TRIPOS>ATOM
      1 C1          0.0860    0.2020   -0.3690 c3        1 R82      0.115700
      2 O2          1.5100    0.3040   -0.2350 os        1 R82     -0.346900
      3 C3          2.0290    0.2710    1.0300 ca        1 R82      0.257100
      4 C4          1.2690    0.1770    2.1940 ca        1 R82     -0.305000
      5 C5          1.9120    0.1600    3.4450 ca        1 R82      0.325100
      6 O6          1.2460    0.0690    4.6240 os        1 R82     -0.293900
      7 C7         -0.1770   -0.0930    4.5880 c3        1 R82      0.108700
      8 C8          3.3230    0.2460    3.5510 ca        1 R82     -0.380500
      9 C9          4.0590    0.3550    2.3790 ca        1 R82      0.048000
     10 C10         3.4510    0.3500    1.1150 ca        1 R82     -0.180400
     11 N11         4.2630    0.4340   -0.0930 n4        1 R82     -0.527200
     12 C12         4.8120   -0.9270   -0.5140 c         1 R82      0.559100
     13 O13         4.3340   -1.3710   -1.5440 o         1 R82     -0.402100
     14 C14         5.8580   -1.5160    0.3650 c3        1 R82     -0.184100
     15 S15         4.2070    0.1030    5.0460 sy        1 R82      1.522200
     16 O16         3.8110   -1.0930    5.6550 o         1 R82     -0.639300
     17 O17         5.5560    0.1690    4.6280 o         1 R82     -0.639300
     18 N18         3.7850    1.4110    5.8780 nh        1 R82     -0.688900
     19 C19         4.1670    2.7900    5.5020 c3        1 R82      0.241500
     20 C20         5.6570    3.0750    5.6260 c3        1 R82     -0.126100
     21 C21         3.3570    3.7550    6.4230 c3        1 R82     -0.033100
     22 C22         2.6430    2.8370    7.3550 ca        1 R82     -0.116300
     23 C23         1.8340    3.1320    8.4360 ca        1 R82     -0.090000
     24 C24         1.3020    2.0770    9.1900 ca        1 R82     -0.139000
     25 C25         1.5890    0.7570    8.8610 ca        1 R82     -0.105000
     26 C26         2.4060    0.4350    7.7690 ca        1 R82     -0.153000
     27 C27         2.9290    1.4830    7.0110 ca        1 R82      0.140600
     28 H11C       -0.0590    0.2360   -1.4800 h1        1 R82      0.072033
     29 H12C       -0.2710   -0.7690    0.0520 h1        1 R82      0.072033
     30 H13C       -0.4100    1.0690    0.1290 h1        1 R82      0.072033
     31 H4          0.1720    0.1140    2.1320 ha        1 R82      0.176000
     32 H71C       -0.4470   -1.0250    4.0370 h1        1 R82      0.070367
     33 H72C       -0.4390   -0.1780    5.6750 h1        1 R82      0.070367
     34 H73C       -0.6550    0.8060    4.1310 h1        1 R82      0.070367
     35 H9          5.1660    0.4340    2.4600 ha        1 R82      0.183000
     36 H11         5.0450    1.0760    0.0740 hn        1 R82      0.464800
     37 H141        5.4490   -1.7020    1.3930 hc        1 R82      0.115700
     38 H142        6.1850   -2.4950   -0.0770 hc        1 R82      0.115700
     39 H143        6.7460   -0.8400    0.4430 hc        1 R82      0.115700
     40 H19         3.8500    2.9460    4.4300 h1        1 R82      0.035700
     41 H201        5.8430    4.1280    5.3020 hc        1 R82      0.061367
     42 H202        6.0000    2.9630    6.6840 hc        1 R82      0.061367
     43 H203        6.2610    2.3870    4.9860 hc        1 R82      0.061367
     44 H211        4.0420    4.4470    6.9730 hc        1 R82      0.070700
     45 H212        2.6440    4.3670    5.8190 hc        1 R82      0.070700
     46 H23         1.6160    4.1760    8.7060 ha        1 R82      0.146000
     47 H24         0.6600    2.3010   10.0560 ha        1 R82      0.145000
     48 H25         1.1760   -0.0620    9.4710 ha        1 R82      0.145000
     49 H26         2.6220   -0.6200    7.5330 ha        1 R82      0.173000
     50 H112        3.6750    0.8060   -0.8570 hn        1 R82      0.464800
@<TRIPOS>BOND
     1    1    2 1   
     2    1   28 1   
     3    1   29 1   
     4    1   30 1   
     5    2    3 1   
     6    3    4 ar  
     7    3   10 ar  
     8    4    5 ar  
     9    4   31 1   
    10    5    6 1   
    11    5    8 ar  
    12    6    7 1   
    13    7   32 1   
    14    7   33 1   
    15    7   34 1   
    16    8    9 ar  
    17    8   15 1   
    18    9   10 ar  
    19    9   35 1   
    20   10   11 1   
    21   11   12 1   
    22   11   36 1   
    23   11   50 1   
    24   12   13 2   
    25   12   14 1   
    26   14   37 1   
    27   14   38 1   
    28   14   39 1   
    29   15   16 2   
    30   15   17 2   
    31   15   18 1   
    32   18   19 1   
    33   18   27 1   
    34   19   20 1   
    35   19   21 1   
    36   19   40 1   
    37   20   41 1   
    38   20   42 1   
    39   20   43 1   
    40   21   22 1   
    41   21   44 1   
    42   21   45 1   
    43   22   23 ar  
    44   22   27 ar  
    45   23   24 ar  
    46   23   46 1   
    47   24   25 ar  
    48   24   47 1   
    49   25   26 ar  
    50   25   48 1   
    51   26   27 ar  
    52   26   49 1   
@<TRIPOS>SUBSTRUCTURE
     1 R82         1 TEMP              0 ****  ****    0 ROOT
