@<TRIPOS>MOLECULE
R82
   49    51     1     0     0
SMALL
bcc


@<TRIPOS>ATOM
      1 C1          0.2790    0.2980   -0.3010 c3        1 R82      0.116700
      2 O2          1.6830    0.1850   -0.0940 os        1 R82     -0.338900
      3 C3          2.1170    0.1000    1.2130 ca        1 R82      0.177100
      4 C4          1.2540    0.1310    2.3060 ca        1 R82     -0.293000
      5 C5          1.7820    0.0440    3.6010 ca        1 R82      0.260100
      6 O6          1.0020    0.0930    4.7310 os        1 R82     -0.319900
      7 C7         -0.4100    0.0370    4.5530 c3        1 R82      0.117700
      8 C8          3.1660   -0.0790    3.8270 ca        1 R82     -0.414500
      9 C9          4.0130   -0.1010    2.7080 ca        1 R82      0.004000
     10 C10         3.5340   -0.0100    1.3940 ca        1 R82     -0.016400
     11 N11         4.3910    0.0160    0.2780 n         1 R82     -0.464100
     12 C12         5.6070   -0.6560    0.1840 c         1 R82      0.656100
     13 O13         6.1430   -1.2060    1.1620 o         1 R82     -0.578100
     14 C14         6.2710   -0.6380   -1.1730 c3        1 R82     -0.176100
     15 S15         3.8570   -0.2610    5.3660 sy        1 R82      1.530200
     16 O16         3.2040   -1.2840    6.0730 o         1 R82     -0.645300
     17 O17         5.2440   -0.4450    5.1920 o         1 R82     -0.645300
     18 N18         3.5890    1.1980    6.0660 nh        1 R82     -0.671900
     19 C19         4.1640    2.4560    5.5510 c3        1 R82      0.236500
     20 C20         5.6790    2.5460    5.6840 c3        1 R82     -0.121100
     21 C21         3.4870    3.6240    6.3350 c3        1 R82     -0.033100
     22 C22         2.6250    2.9250    7.3310 ca        1 R82     -0.130300
     23 C23         1.8330    3.4470    8.3340 ca        1 R82     -0.095000
     24 C24         1.1250    2.5680    9.1650 ca        1 R82     -0.162000
     25 C25         1.2210    1.1920    8.9800 ca        1 R82     -0.106000
     26 C26         2.0170    0.6410    7.9700 ca        1 R82     -0.161000
     27 C27         2.7230    1.5120    7.1360 ca        1 R82      0.175600
     28 H11C       -0.1140    1.2340    0.1660 h1        1 R82      0.051033
     29 H12C        0.1890    0.3440   -1.4170 h1        1 R82      0.051033
     30 H13C       -0.2520   -0.5990    0.1000 h1        1 R82      0.051033
     31 H4          0.1700    0.2190    2.1570 ha        1 R82      0.150000
     32 H71C       -0.7020   -0.8800    3.9870 h1        1 R82      0.051700
     33 H72C       -0.7740    0.9580    4.0370 h1        1 R82      0.051700
     34 H73C       -0.7950   -0.0060    5.6050 h1        1 R82      0.051700
     35 H9          5.1060   -0.2190    2.8800 ha        1 R82      0.205000
     36 H11         3.9630    0.3070   -0.5740 hn        1 R82      0.323500
     37 H141        5.6290   -1.1500   -1.9300 hc        1 R82      0.069033
     38 H142        7.2460   -1.1790   -1.0970 hc        1 R82      0.069033
     39 H143        6.4620    0.4110   -1.5030 hc        1 R82      0.069033
     40 H19         3.8890    2.5330    4.4590 h1        1 R82      0.049700
     41 H201        6.1830    1.7030    5.1490 hc        1 R82      0.056033
     42 H202        6.0160    3.5120    5.2370 hc        1 R82      0.056033
     43 H203        5.9900    2.5180    6.7550 hc        1 R82      0.056033
     44 H211        4.2540    4.2670    6.8340 hc        1 R82      0.059700
     45 H212        2.8840    4.2620    5.6440 hc        1 R82      0.059700
     46 H23         1.7610    4.5330    8.4840 ha        1 R82      0.132000
     47 H24         0.4930    2.9730    9.9680 ha        1 R82      0.130000
     48 H25         0.6640    0.5130    9.6430 ha        1 R82      0.132000
     49 H26         2.0740   -0.4520    7.8400 ha        1 R82      0.176000
@<TRIPOS>BOND
     1    1    2 1   
     2    1   28 1   
     3    1   29 1   
     4    1   30 1   
     5    2    3 1   
     6    3    4 ar  
     7    3   10 ar  
     8    4    5 ar  
     9    4   31 1   
    10    5    6 1   
    11    5    8 ar  
    12    6    7 1   
    13    7   32 1   
    14    7   33 1   
    15    7   34 1   
    16    8    9 ar  
    17    8   15 1   
    18    9   10 ar  
    19    9   35 1   
    20   10   11 1   
    21   11   12 1   
    22   11   36 1   
    23   12   13 2   
    24   12   14 1   
    25   14   37 1   
    26   14   38 1   
    27   14   39 1   
    28   15   16 2   
    29   15   17 2   
    30   15   18 1   
    31   18   19 1   
    32   18   27 1   
    33   19   20 1   
    34   19   21 1   
    35   19   40 1   
    36   20   41 1   
    37   20   42 1   
    38   20   43 1   
    39   21   22 1   
    40   21   44 1   
    41   21   45 1   
    42   22   23 ar  
    43   22   27 ar  
    44   23   24 ar  
    45   23   46 1   
    46   24   25 ar  
    47   24   47 1   
    48   25   26 ar  
    49   25   48 1   
    50   26   27 ar  
    51   26   49 1   
@<TRIPOS>SUBSTRUCTURE
     1 R82         1 TEMP              0 ****  ****    0 ROOT
