@<TRIPOS>MOLECULE
R82
   49    51     1     0     0
SMALL
bcc


@<TRIPOS>ATOM
      1 C1          3.7260    3.5020    1.2440 c3        1 R82      0.116700
      2 O2          3.8220    2.0990    1.0190 os        1 R82     -0.338900
      3 C3          2.7120    1.4730    0.4910 ca        1 R82      0.177100
      4 C4          1.5290    2.1460    0.1900 ca        1 R82     -0.293000
      5 C5          0.4470    1.4290   -0.3380 ca        1 R82      0.260100
      6 O6         -0.7610    2.0120   -0.6370 os        1 R82     -0.319900
      7 C7         -0.8310    3.4340   -0.5840 c3        1 R82      0.117700
      8 C8          0.5250    0.0440   -0.5760 ca        1 R82     -0.414500
      9 C9          1.7250   -0.6090   -0.2580 ca        1 R82      0.004000
     10 C10         2.8330    0.0620    0.2780 ca        1 R82     -0.016400
     11 N11         4.0170   -0.6060    0.6410 n         1 R82     -0.464100
     12 C12         4.5380   -1.7240   -0.0060 c         1 R82      0.656100
     13 O13         3.9010   -2.3540   -0.8670 o         1 R82     -0.578100
     14 C14         5.9150   -2.1630    0.4360 c3        1 R82     -0.176100
     15 S15        -0.7250   -0.8630   -1.2800 sy        1 R82      1.530200
     16 O16        -1.1740   -0.2390   -2.4570 o         1 R82     -0.645300
     17 O17        -0.2560   -2.1820   -1.4440 o         1 R82     -0.645300
     18 N18        -1.8900   -0.8430   -0.1260 nh        1 R82     -0.671900
     19 C19        -1.7090   -1.4410    1.2120 c3        1 R82      0.236500
     20 C20        -1.5860   -2.9590    1.2020 c3        1 R82     -0.121100
     21 C21        -2.9330   -1.0070    2.0770 c3        1 R82     -0.033100
     22 C22        -3.7920   -0.2550    1.1180 ca        1 R82     -0.130300
     23 C23        -5.0360    0.3160    1.3060 ca        1 R82     -0.095000
     24 C24        -5.6550    0.9590    0.2270 ca        1 R82     -0.162000
     25 C25        -5.0280    1.0190   -1.0140 ca        1 R82     -0.106000
     26 C26        -3.7680    0.4490   -1.2270 ca        1 R82     -0.161000
     27 C27        -3.1430   -0.1920   -0.1540 ca        1 R82      0.175600
     28 H11C        3.5430    4.0430    0.2840 h1        1 R82      0.051033
     29 H12C        2.9220    3.7270    1.9860 h1        1 R82      0.051033
     30 H13C        4.7330    3.7630    1.6590 h1        1 R82      0.051033
     31 H4          1.4450    3.2270    0.3610 ha        1 R82      0.150000
     32 H71C       -0.7100    3.7900    0.4680 h1        1 R82      0.051700
     33 H72C       -0.0630    3.8940   -1.2510 h1        1 R82      0.051700
     34 H73C       -1.8650    3.6500   -0.9580 h1        1 R82      0.051700
     35 H9          1.8000   -1.7000   -0.4640 ha        1 R82      0.205000
     36 H11         4.6400   -0.0780    1.2130 hn        1 R82      0.323500
     37 H141        5.9210   -2.3970    1.5280 hc        1 R82      0.069033
     38 H142        6.1920   -3.0830   -0.1350 hc        1 R82      0.069033
     39 H143        6.6670   -1.3650    0.2270 hc        1 R82      0.069033
     40 H19        -0.7670   -1.0020    1.6540 h1        1 R82      0.049700
     41 H201       -0.7290   -3.2920    0.5660 hc        1 R82      0.056033
     42 H202       -1.4180   -3.3070    2.2490 hc        1 R82      0.056033
     43 H203       -2.5180   -3.4340    0.8110 hc        1 R82      0.056033
     44 H211       -3.4640   -1.8990    2.4930 hc        1 R82      0.059700
     45 H212       -2.6030   -0.3620    2.9270 hc        1 R82      0.059700
     46 H23        -5.5350    0.2640    2.2840 ha        1 R82      0.132000
     47 H24        -6.6460    1.4150    0.3640 ha        1 R82      0.130000
     48 H25        -5.5280    1.5230   -1.8550 ha        1 R82      0.132000
     49 H26        -3.2880    0.5130   -2.2170 ha        1 R82      0.176000
@<TRIPOS>BOND
     1    1    2 1   
     2    1   28 1   
     3    1   29 1   
     4    1   30 1   
     5    2    3 1   
     6    3    4 ar  
     7    3   10 ar  
     8    4    5 ar  
     9    4   31 1   
    10    5    6 1   
    11    5    8 ar  
    12    6    7 1   
    13    7   32 1   
    14    7   33 1   
    15    7   34 1   
    16    8    9 ar  
    17    8   15 1   
    18    9   10 ar  
    19    9   35 1   
    20   10   11 1   
    21   11   12 1   
    22   11   36 1   
    23   12   13 2   
    24   12   14 1   
    25   14   37 1   
    26   14   38 1   
    27   14   39 1   
    28   15   16 2   
    29   15   17 2   
    30   15   18 1   
    31   18   19 1   
    32   18   27 1   
    33   19   20 1   
    34   19   21 1   
    35   19   40 1   
    36   20   41 1   
    37   20   42 1   
    38   20   43 1   
    39   21   22 1   
    40   21   44 1   
    41   21   45 1   
    42   22   23 ar  
    43   22   27 ar  
    44   23   24 ar  
    45   23   46 1   
    46   24   25 ar  
    47   24   47 1   
    48   25   26 ar  
    49   25   48 1   
    50   26   27 ar  
    51   26   49 1   
@<TRIPOS>SUBSTRUCTURE
     1 R82         1 TEMP              0 ****  ****    0 ROOT
