@<TRIPOS>MOLECULE
R82
   49    51     1     0     0
SMALL
bcc


@<TRIPOS>ATOM
      1 C1          0.2740    0.2890   -0.2970 c3        1 R82      0.116700
      2 O2          1.6790    0.1830   -0.0920 os        1 R82     -0.338900
      3 C3          2.1160    0.0990    1.2130 ca        1 R82      0.177100
      4 C4          1.2550    0.1230    2.3080 ca        1 R82     -0.293000
      5 C5          1.7870    0.0380    3.6020 ca        1 R82      0.260100
      6 O6          1.0090    0.0810    4.7340 os        1 R82     -0.319900
      7 C7         -0.4030    0.0160    4.5590 c3        1 R82      0.117700
      8 C8          3.1720   -0.0760    3.8250 ca        1 R82     -0.414500
      9 C9          4.0160   -0.0930    2.7040 ca        1 R82      0.004000
     10 C10         3.5340   -0.0030    1.3910 ca        1 R82     -0.016400
     11 N11         4.3880    0.0290    0.2740 ns        1 R82     -0.464100
     12 C12         5.6070   -0.6370    0.1760 c         1 R82      0.656100
     13 O13         6.1470   -1.1870    1.1520 o         1 R82     -0.578100
     14 C14         6.2690   -0.6140   -1.1820 c3        1 R82     -0.176100
     15 S15         3.8680   -0.2560    5.3620 sy        1 R82      1.530200
     16 O16         3.2230   -1.2850    6.0690 o         1 R82     -0.645300
     17 O17         5.2550   -0.4300    5.1850 o         1 R82     -0.645300
     18 N18         3.5910    1.2000    6.0650 nh        1 R82     -0.671900
     19 C19         4.1550    2.4630    5.5500 c3        1 R82      0.236500
     20 C20         5.6700    2.5640    5.6760 c3        1 R82     -0.121100
     21 C21         3.4730    3.6250    6.3370 c3        1 R82     -0.033100
     22 C22         2.6190    2.9190    7.3350 ca        1 R82     -0.130300
     23 C23         1.8270    3.4340    8.3420 ca        1 R82     -0.095000
     24 C24         1.1270    2.5490    9.1730 ca        1 R82     -0.162000
     25 C25         1.2330    1.1740    8.9870 ca        1 R82     -0.106000
     26 C26         2.0290    0.6300    7.9730 ca        1 R82     -0.161000
     27 C27         2.7260    1.5070    7.1380 ca        1 R82      0.175600
     28 H11C       -0.2510   -0.6120    0.1050 h1        1 R82      0.051033
     29 H12C       -0.1220    1.2220    0.1720 h1        1 R82      0.051033
     30 H13C        0.1810    0.3360   -1.4120 h1        1 R82      0.051033
     31 H4          0.1700    0.2060    2.1610 ha        1 R82      0.150000
     32 H71C       -0.7740    0.9350    4.0440 h1        1 R82      0.051700
     33 H72C       -0.6900   -0.9020    3.9920 h1        1 R82      0.051700
     34 H73C       -0.7860   -0.0310    5.6110 h1        1 R82      0.051700
     35 H9          5.1100   -0.2040    2.8740 ha        1 R82      0.205000
     36 H11         3.9580    0.3200   -0.5770 hn        1 R82      0.323500
     37 H141        6.4550    0.4370   -1.5110 hc        1 R82      0.069033
     38 H142        7.2460   -1.1510   -1.1090 hc        1 R82      0.069033
     39 H143        5.6280   -1.1270   -1.9390 hc        1 R82      0.069033
     40 H19         3.8750    2.5390    4.4580 h1        1 R82      0.049700
     41 H201        6.1780    1.7250    5.1390 hc        1 R82      0.056033
     42 H202        5.9990    3.5330    5.2290 hc        1 R82      0.056033
     43 H203        5.9850    2.5370    6.7470 hc        1 R82      0.056033
     44 H211        2.8630    4.2600    5.6490 hc        1 R82      0.059700
     45 H212        4.2370    4.2730    6.8340 hc        1 R82      0.059700
     46 H23         1.7470    4.5190    8.4930 ha        1 R82      0.132000
     47 H24         0.4960    2.9480    9.9790 ha        1 R82      0.130000
     48 H25         0.6830    0.4900    9.6510 ha        1 R82      0.132000
     49 H26         2.0940   -0.4630    7.8420 ha        1 R82      0.176000
@<TRIPOS>BOND
     1    1    2 1   
     2    1   28 1   
     3    1   29 1   
     4    1   30 1   
     5    2    3 1   
     6    3    4 ar  
     7    3   10 ar  
     8    4    5 ar  
     9    4   31 1   
    10    5    6 1   
    11    5    8 ar  
    12    6    7 1   
    13    7   32 1   
    14    7   33 1   
    15    7   34 1   
    16    8    9 ar  
    17    8   15 1   
    18    9   10 ar  
    19    9   35 1   
    20   10   11 1   
    21   11   12 1   
    22   11   36 1   
    23   12   13 2   
    24   12   14 1   
    25   14   37 1   
    26   14   38 1   
    27   14   39 1   
    28   15   16 2   
    29   15   17 2   
    30   15   18 1   
    31   18   19 1   
    32   18   27 1   
    33   19   20 1   
    34   19   21 1   
    35   19   40 1   
    36   20   41 1   
    37   20   42 1   
    38   20   43 1   
    39   21   22 1   
    40   21   44 1   
    41   21   45 1   
    42   22   23 ar  
    43   22   27 ar  
    44   23   24 ar  
    45   23   46 1   
    46   24   25 ar  
    47   24   47 1   
    48   25   26 ar  
    49   25   48 1   
    50   26   27 ar  
    51   26   49 1   
@<TRIPOS>SUBSTRUCTURE
     1 R82         1 TEMP              0 ****  ****    0 ROOT
