@<TRIPOS>MOLECULE
R83
   62    64     1     0     0
SMALL
bcc


@<TRIPOS>ATOM
      1 C1          3.0990    1.0890   -1.8170 c3        1 R83      0.111700
      2 O2          3.8560    0.2880   -0.8900 os        1 R83     -0.340900
      3 C3          3.5480    0.3710    0.4300 ca        1 R83      0.290100
      4 C4          2.5370    1.1720    0.9590 ca        1 R83     -0.299000
      5 C5          2.3040    1.1730    2.3410 ca        1 R83      0.344100
      6 O6          1.3860    1.9650    2.9510 os        1 R83     -0.342900
      7 C7          0.4150    2.6450    2.1320 c3        1 R83      0.111700
      8 C8          3.0510    0.3470    3.2290 ca        1 R83     -0.534500
      9 C9          4.0890   -0.4230    2.6750 ca        1 R83      0.093000
     10 C10         4.3520   -0.4360    1.3070 ca        1 R83     -0.144400
     11 N11         5.4300   -1.2600    0.7660 n4        1 R83     -0.548200
     12 C12         5.1520   -2.7690    0.9120 c         1 R83      0.570100
     13 O13         5.0660   -3.1650    2.0600 o         1 R83     -0.396100
     14 C14         5.0550   -3.5180   -0.3670 c3        1 R83     -0.188100
     15 S15         2.6620    0.1310    4.8190 sy        1 R83      1.466200
     16 O16         1.3170   -0.0840    5.0290 o         1 R83     -0.560300
     17 O17         3.6310   -0.6430    5.4390 o         1 R83     -0.560300
     18 N18         2.9500    1.8150    5.4600 n4        1 R83     -0.726900
     19 C19         2.9180    1.8190    6.9570 c3        1 R83      0.178100
     20 C20         3.4690    3.0660    7.5620 ca        1 R83     -0.169300
     21 C21         4.4960    2.9460    8.5050 ca        1 R83     -0.090000
     22 C22         4.9940    4.0710    9.1570 ca        1 R83     -0.118000
     23 C23         4.4660    5.3280    8.8670 ca        1 R83     -0.071000
     24 C24         3.4470    5.4640    7.9280 ca        1 R83     -0.145000
     25 C25         2.9320    4.3400    7.2540 ca        1 R83      0.106600
     26 N26         1.9130    4.4300    6.2470 nh        1 R83     -0.676000
     27 C27         0.5590    4.3560    6.8090 c3        1 R83      0.157800
     28 C28        -0.5140    4.3190    5.7230 c3        1 R83     -0.079900
     29 C29        -0.3690    5.4850    4.7680 c3        1 R83     -0.091400
     30 C30         1.0420    5.5750    4.2260 c3        1 R83     -0.079900
     31 C31         2.0670    5.5830    5.3590 c3        1 R83      0.157800
     32 H11C        3.2360    2.1720   -1.5840 h1        1 R83      0.086033
     33 H12C        3.5690    0.8250   -2.8010 h1        1 R83      0.086033
     34 H13C        2.0250    0.7890   -1.7900 h1        1 R83      0.086033
     35 H4          1.9240    1.8010    0.2930 ha        1 R83      0.194000
     36 H71C       -0.1410    1.9070    1.5060 h1        1 R83      0.086367
     37 H72C       -0.2580    3.1150    2.9000 h1        1 R83      0.086367
     38 H73C        0.9240    3.4210    1.5120 h1        1 R83      0.086367
     39 H9          4.6910   -1.0630    3.3610 ha        1 R83      0.204000
     40 H11         6.2980   -1.0340    1.2710 hn        1 R83      0.472800
     41 H141        4.7590   -4.5790   -0.1360 hc        1 R83      0.125367
     42 H142        6.0490   -3.5360   -0.8890 hc        1 R83      0.125367
     43 H143        4.2880   -3.0700   -1.0490 hc        1 R83      0.125367
     44 H18         3.8440    2.2090    5.1670 hn        1 R83      0.475800
     45 H191        3.5160    0.9240    7.3090 hx        1 R83      0.112200
     46 H192        1.8370    1.6880    7.2690 hx        1 R83      0.112200
     47 H21         4.9070    1.9530    8.7490 ha        1 R83      0.148000
     48 H22         5.7960    3.9640    9.9050 ha        1 R83      0.166000
     49 H23         4.8500    6.2210    9.3890 ha        1 R83      0.166000
     50 H24         3.0400    6.4690    7.7240 ha        1 R83      0.158000
     51 H271        0.3550    5.2340    7.4890 h1        1 R83      0.053200
     52 H272        0.4920    3.4210    7.4330 h1        1 R83      0.053200
     53 H311        1.9590    6.5590    5.9180 h1        1 R83      0.053200
     54 H312        3.1060    5.5510    4.9280 h1        1 R83      0.053200
     55 H281       -1.5180    4.3530    6.2210 hc        1 R83      0.045950
     56 H282       -0.4490    3.3530    5.1560 hc        1 R83      0.045950
     57 H291       -0.6250    6.4390    5.3010 hc        1 R83      0.062200
     58 H292       -1.0950    5.3730    3.9210 hc        1 R83      0.062200
     59 H301        1.1680    6.5180    3.6330 hc        1 R83      0.045950
     60 H302        1.2410    4.7100    3.5390 hc        1 R83      0.045950
     61 H112        5.5590   -1.0330   -0.2300 hn        1 R83      0.472800
     62 H182        2.2270    2.4800    5.1370 hn        1 R83      0.475800
@<TRIPOS>BOND
     1    1    2 1   
     2    1   32 1   
     3    1   33 1   
     4    1   34 1   
     5    2    3 1   
     6    3    4 ar  
     7    3   10 ar  
     8    4    5 ar  
     9    4   35 1   
    10    5    6 1   
    11    5    8 ar  
    12    6    7 1   
    13    7   36 1   
    14    7   37 1   
    15    7   38 1   
    16    8    9 ar  
    17    8   15 1   
    18    9   10 ar  
    19    9   39 1   
    20   10   11 1   
    21   11   12 1   
    22   11   40 1   
    23   11   61 1   
    24   12   13 2   
    25   12   14 1   
    26   14   41 1   
    27   14   42 1   
    28   14   43 1   
    29   15   16 2   
    30   15   17 2   
    31   15   18 1   
    32   18   19 1   
    33   18   44 1   
    34   18   62 1   
    35   19   20 1   
    36   19   45 1   
    37   19   46 1   
    38   20   21 ar  
    39   20   25 ar  
    40   21   22 ar  
    41   21   47 1   
    42   22   23 ar  
    43   22   48 1   
    44   23   24 ar  
    45   23   49 1   
    46   24   25 ar  
    47   24   50 1   
    48   25   26 1   
    49   26   27 1   
    50   26   31 1   
    51   27   28 1   
    52   27   51 1   
    53   27   52 1   
    54   28   29 1   
    55   28   55 1   
    56   28   56 1   
    57   29   30 1   
    58   29   57 1   
    59   29   58 1   
    60   30   31 1   
    61   30   59 1   
    62   30   60 1   
    63   31   53 1   
    64   31   54 1   
@<TRIPOS>SUBSTRUCTURE
     1 R83         1 TEMP              0 ****  ****    0 ROOT
