@<TRIPOS>MOLECULE
R83
   61    63     1     0     0
SMALL
bcc


@<TRIPOS>ATOM
      1 C1          0.3130   -0.2200   -0.6360 c3        1 R83      0.107700
      2 O2          1.7020   -0.2430   -0.2940 os        1 R83     -0.311900
      3 C3          2.0330   -0.1720    1.0260 ca        1 R83      0.241100
      4 C4          1.0960   -0.0080    2.0490 ca        1 R83     -0.303000
      5 C5          1.5280    0.0430    3.3760 ca        1 R83      0.300100
      6 O6          0.7020    0.3190    4.4340 os        1 R83     -0.353900
      7 C7         -0.7100    0.2410    4.2090 c3        1 R83      0.116700
      8 C8          2.8870   -0.1450    3.7280 ca        1 R83     -0.568500
      9 C9          3.8190   -0.2720    2.6650 ca        1 R83     -0.005000
     10 C10         3.4440   -0.2680    1.3250 ca        1 R83      0.013600
     11 N11         4.3810   -0.3760    0.2880 n         1 R83     -0.475100
     12 C12         5.6750    0.1520    0.3430 c         1 R83      0.672100
     13 O13         6.1020    0.6860    1.3820 o         1 R83     -0.591100
     14 C14         6.5100    0.0140   -0.9020 c3        1 R83     -0.174100
     15 S15         3.4170   -0.3100    5.2360 sy        1 R83      1.490200
     16 O16         2.5750   -0.9750    6.1070 o         1 R83     -0.581300
     17 O17         4.7840   -0.5180    5.3420 o         1 R83     -0.581300
     18 N18         3.2950    1.4880    5.7640 n4        1 R83     -0.700900
     19 C19         2.3080    1.7540    6.8430 c3        1 R83      0.187100
     20 C20         2.6150    2.9680    7.6610 ca        1 R83     -0.143300
     21 C21         2.6790    2.8290    9.0510 ca        1 R83     -0.098000
     22 C22         2.9020    3.9350    9.8670 ca        1 R83     -0.119000
     23 C23         3.0660    5.1960    9.2930 ca        1 R83     -0.088000
     24 C24         3.0100    5.3500    7.9110 ca        1 R83     -0.145000
     25 C25         2.7890    4.2410    7.0710 ca        1 R83      0.096600
     26 N26         2.7410    4.3540    5.6370 nh        1 R83     -0.664000
     27 C27         1.5160    5.0160    5.1840 c3        1 R83      0.161300
     28 C28         1.4310    5.1290    3.6630 c3        1 R83     -0.078900
     29 C29         2.6720    5.7790    3.0900 c3        1 R83     -0.084400
     30 C30         3.9180    5.0610    3.5600 c3        1 R83     -0.078900
     31 C31         3.9520    4.9620    5.0840 c3        1 R83      0.161300
     32 H11C       -0.2210   -1.0740   -0.1550 h1        1 R83      0.068033
     33 H12C       -0.1400    0.7590   -0.3450 h1        1 R83      0.068033
     34 H13C        0.3310   -0.3350   -1.7510 h1        1 R83      0.068033
     35 H4          0.0270    0.0940    1.8120 ha        1 R83      0.170000
     36 H71C       -0.9840   -0.7520    3.7780 h1        1 R83      0.068700
     37 H72C       -1.0340    1.0770    3.5430 h1        1 R83      0.068700
     38 H73C       -1.1330    0.3590    5.2400 h1        1 R83      0.068700
     39 H9          4.8950   -0.3740    2.9260 ha        1 R83      0.206000
     40 H11         4.0290   -0.6810   -0.5930 hn        1 R83      0.339500
     41 H141        7.5100    0.4770   -0.7120 hc        1 R83      0.081700
     42 H142        6.0260    0.5350   -1.7630 hc        1 R83      0.081700
     43 H143        6.6530   -1.0640   -1.1590 hc        1 R83      0.081700
     44 H18         3.0560    2.0810    4.9640 hn        1 R83      0.460800
     45 H191        1.2950    1.8700    6.3550 hx        1 R83      0.104700
     46 H192        2.2740    0.8400    7.5090 hx        1 R83      0.104700
     47 H21         2.5450    1.8350    9.5100 ha        1 R83      0.146000
     48 H22         2.9470    3.8130   10.9600 ha        1 R83      0.157000
     49 H23         3.2390    6.0750    9.9350 ha        1 R83      0.155000
     50 H24         3.1360    6.3550    7.4750 ha        1 R83      0.150000
     51 H271        0.6470    4.4070    5.5610 h1        1 R83      0.044200
     52 H272        1.4280    6.0510    5.6270 h1        1 R83      0.044200
     53 H311        4.1270    5.9960    5.5030 h1        1 R83      0.044200
     54 H312        4.8230    4.3190    5.3950 h1        1 R83      0.044200
     55 H281        1.2960    4.1120    3.2130 hc        1 R83      0.049950
     56 H282        0.5250    5.7370    3.4090 hc        1 R83      0.049950
     57 H291        2.6250    5.7640    1.9700 hc        1 R83      0.055200
     58 H292        2.7150    6.8540    3.4090 hc        1 R83      0.055200
     59 H301        4.8330    5.6140    3.2250 hc        1 R83      0.049950
     60 H302        3.9580    4.0350    3.1090 hc        1 R83      0.049950
     61 H182        4.2140    1.8050    6.0850 hn        1 R83      0.460800
@<TRIPOS>BOND
     1    1    2 1   
     2    1   32 1   
     3    1   33 1   
     4    1   34 1   
     5    2    3 1   
     6    3    4 ar  
     7    3   10 ar  
     8    4    5 ar  
     9    4   35 1   
    10    5    6 1   
    11    5    8 ar  
    12    6    7 1   
    13    7   36 1   
    14    7   37 1   
    15    7   38 1   
    16    8    9 ar  
    17    8   15 1   
    18    9   10 ar  
    19    9   39 1   
    20   10   11 1   
    21   11   12 1   
    22   11   40 1   
    23   12   13 2   
    24   12   14 1   
    25   14   41 1   
    26   14   42 1   
    27   14   43 1   
    28   15   16 2   
    29   15   17 2   
    30   15   18 1   
    31   18   19 1   
    32   18   44 1   
    33   18   61 1   
    34   19   20 1   
    35   19   45 1   
    36   19   46 1   
    37   20   21 ar  
    38   20   25 ar  
    39   21   22 ar  
    40   21   47 1   
    41   22   23 ar  
    42   22   48 1   
    43   23   24 ar  
    44   23   49 1   
    45   24   25 ar  
    46   24   50 1   
    47   25   26 1   
    48   26   27 1   
    49   26   31 1   
    50   27   28 1   
    51   27   51 1   
    52   27   52 1   
    53   28   29 1   
    54   28   55 1   
    55   28   56 1   
    56   29   30 1   
    57   29   57 1   
    58   29   58 1   
    59   30   31 1   
    60   30   59 1   
    61   30   60 1   
    62   31   53 1   
    63   31   54 1   
@<TRIPOS>SUBSTRUCTURE
     1 R83         1 TEMP              0 ****  ****    0 ROOT
