@<TRIPOS>MOLECULE
R83
   61    63     1     0     0
SMALL
bcc


@<TRIPOS>ATOM
      1 C1          0.3110   -0.2120   -0.6390 c3        1 R83      0.107700
      2 O2          1.7010   -0.2320   -0.2990 os        1 R83     -0.311900
      3 C3          2.0330   -0.1650    1.0220 ca        1 R83      0.241100
      4 C4          1.0970   -0.0060    2.0460 ca        1 R83     -0.303000
      5 C5          1.5290    0.0410    3.3730 ca        1 R83      0.300100
      6 O6          0.7040    0.3110    4.4320 os        1 R83     -0.352900
      7 C7         -0.7090    0.2310    4.2080 c3        1 R83      0.116700
      8 C8          2.8890   -0.1450    3.7230 ca        1 R83     -0.569500
      9 C9          3.8200   -0.2660    2.6590 ca        1 R83     -0.005000
     10 C10         3.4440   -0.2580    1.3190 ca        1 R83      0.013600
     11 N11         4.3810   -0.3610    0.2810 ns        1 R83     -0.475100
     12 C12         5.6730    0.1710    0.3370 c         1 R83      0.672100
     13 O13         6.1000    0.7020    1.3770 o         1 R83     -0.592100
     14 C14         6.5080    0.0400   -0.9090 c3        1 R83     -0.174100
     15 S15         3.4200   -0.3140    5.2300 sy        1 R83      1.490200
     16 O16         2.5810   -0.9820    6.1000 o         1 R83     -0.581300
     17 O17         4.7870   -0.5210    5.3340 o         1 R83     -0.581300
     18 N18         3.2980    1.4830    5.7630 ny        1 R83     -0.700900
     19 C19         2.3100    1.7460    6.8410 c3        1 R83      0.187100
     20 C20         2.6150    2.9580    7.6620 ca        1 R83     -0.143300
     21 C21         2.6780    2.8170    9.0520 ca        1 R83     -0.098000
     22 C22         2.8980    3.9210    9.8700 ca        1 R83     -0.119000
     23 C23         3.0620    5.1830    9.3000 ca        1 R83     -0.088000
     24 C24         3.0070    5.3400    7.9180 ca        1 R83     -0.145000
     25 C25         2.7880    4.2330    7.0750 ca        1 R83      0.096600
     26 N26         2.7410    4.3480    5.6410 nh        1 R83     -0.664000
     27 C27         1.5160    5.0100    5.1880 c3        1 R83      0.161300
     28 C28         1.4320    5.1260    3.6680 c3        1 R83     -0.078900
     29 C29         2.6720    5.7790    3.0970 c3        1 R83     -0.084400
     30 C30         3.9190    5.0620    3.5670 c3        1 R83     -0.078900
     31 C31         3.9520    4.9600    5.0900 c3        1 R83      0.161300
     32 H11C       -0.2200   -1.0690   -0.1610 h1        1 R83      0.068033
     33 H12C       -0.1440    0.7640   -0.3450 h1        1 R83      0.068033
     34 H13C        0.3290   -0.3240   -1.7550 h1        1 R83      0.068033
     35 H4          0.0270    0.0930    1.8100 ha        1 R83      0.170000
     36 H71C       -0.9810   -0.7610    3.7740 h1        1 R83      0.068700
     37 H72C       -1.0350    1.0680    3.5450 h1        1 R83      0.068700
     38 H73C       -1.1320    0.3450    5.2390 h1        1 R83      0.068700
     39 H9          4.8970   -0.3670    2.9190 ha        1 R83      0.206000
     40 H11         4.0290   -0.6630   -0.6000 hn        1 R83      0.339500
     41 H141        6.0210    0.5620   -1.7680 hc        1 R83      0.081700
     42 H142        6.6540   -1.0370   -1.1700 hc        1 R83      0.081700
     43 H143        7.5070    0.5050   -0.7180 hc        1 R83      0.081700
     44 H18         4.2160    1.7990    6.0860 hn        1 R83      0.460800
     45 H191        2.2760    0.8300    7.5050 hx        1 R83      0.104700
     46 H192        1.2970    1.8620    6.3530 hx        1 R83      0.104700
     47 H21         2.5440    1.8220    9.5090 ha        1 R83      0.146000
     48 H22         2.9430    3.7970   10.9630 ha        1 R83      0.157000
     49 H23         3.2340    6.0610    9.9430 ha        1 R83      0.155000
     50 H24         3.1330    6.3460    7.4840 ha        1 R83      0.150000
     51 H271        0.6480    4.3990    5.5630 h1        1 R83      0.044200
     52 H272        1.4250    6.0440    5.6330 h1        1 R83      0.044200
     53 H311        4.8240    4.3170    5.4010 h1        1 R83      0.044200
     54 H312        4.1250    5.9930    5.5120 h1        1 R83      0.044200
     55 H281        1.2980    4.1100    3.2150 hc        1 R83      0.049950
     56 H282        0.5250    5.7340    3.4140 hc        1 R83      0.049950
     57 H291        2.7130    6.8540    3.4190 hc        1 R83      0.055200
     58 H292        2.6270    5.7670    1.9770 hc        1 R83      0.055200
     59 H301        3.9610    4.0370    3.1130 hc        1 R83      0.049950
     60 H302        4.8340    5.6170    3.2340 hc        1 R83      0.049950
     61 H182        3.0600    2.0780    4.9650 hn        1 R83      0.460800
@<TRIPOS>BOND
     1    1    2 1   
     2    1   32 1   
     3    1   33 1   
     4    1   34 1   
     5    2    3 1   
     6    3    4 ar  
     7    3   10 ar  
     8    4    5 ar  
     9    4   35 1   
    10    5    6 1   
    11    5    8 ar  
    12    6    7 1   
    13    7   36 1   
    14    7   37 1   
    15    7   38 1   
    16    8    9 ar  
    17    8   15 1   
    18    9   10 ar  
    19    9   39 1   
    20   10   11 1   
    21   11   12 1   
    22   11   40 1   
    23   12   13 2   
    24   12   14 1   
    25   14   41 1   
    26   14   42 1   
    27   14   43 1   
    28   15   16 2   
    29   15   17 2   
    30   15   18 1   
    31   18   19 1   
    32   18   44 1   
    33   18   61 1   
    34   19   20 1   
    35   19   45 1   
    36   19   46 1   
    37   20   21 ar  
    38   20   25 ar  
    39   21   22 ar  
    40   21   47 1   
    41   22   23 ar  
    42   22   48 1   
    43   23   24 ar  
    44   23   49 1   
    45   24   25 ar  
    46   24   50 1   
    47   25   26 1   
    48   26   27 1   
    49   26   31 1   
    50   27   28 1   
    51   27   51 1   
    52   27   52 1   
    53   28   29 1   
    54   28   55 1   
    55   28   56 1   
    56   29   30 1   
    57   29   57 1   
    58   29   58 1   
    59   30   31 1   
    60   30   59 1   
    61   30   60 1   
    62   31   53 1   
    63   31   54 1   
@<TRIPOS>SUBSTRUCTURE
     1 R83         1 TEMP              0 ****  ****    0 ROOT
