@<TRIPOS>MOLECULE
R83
   60    62     1     0     0
SMALL
bcc


@<TRIPOS>ATOM
      1 C1         -5.0870   -0.4220   -3.5630 c3        1 R83      0.116700
      2 O2         -5.0350   -0.3860   -2.1400 os        1 R83     -0.339900
      3 C3         -3.8450    0.0190   -1.5690 ca        1 R83      0.169100
      4 C4         -2.7300    0.3940   -2.3170 ca        1 R83     -0.286000
      5 C5         -1.5610    0.7840   -1.6530 ca        1 R83      0.250100
      6 O6         -0.4060    1.1270   -2.3230 os        1 R83     -0.334900
      7 C7         -0.5370    1.4560   -3.7030 c3        1 R83      0.118700
      8 C8         -1.4840    0.8150   -0.2490 ca        1 R83     -0.394500
      9 C9         -2.6150    0.4270    0.4790 ca        1 R83      0.006000
     10 C10        -3.8080    0.0210   -0.1390 ca        1 R83     -0.014400
     11 N11        -4.9260   -0.4120    0.5970 n         1 R83     -0.463100
     12 C12        -5.3150    0.0980    1.8330 c         1 R83      0.656100
     13 O13        -4.6000    0.8760    2.4890 o         1 R83     -0.578100
     14 C14        -6.6440   -0.3870    2.3630 c3        1 R83     -0.176100
     15 S15        -0.1070    1.3420    0.6080 sy        1 R83      1.522200
     16 O16         0.2580    2.6250    0.1510 o         1 R83     -0.655800
     17 O17        -0.3960    1.2290    1.9870 o         1 R83     -0.655800
     18 N18         1.0130    0.2490    0.2290 n3        1 R83     -0.910100
     19 C19         2.0220    0.4210   -0.7730 c3        1 R83      0.291100
     20 C20         3.4230    0.5440   -0.2340 ca        1 R83     -0.087300
     21 C21         4.0820    1.7730   -0.3460 ca        1 R83     -0.114000
     22 C22         5.3920    1.9250    0.0980 ca        1 R83     -0.132000
     23 C23         6.0590    0.8430    0.6690 ca        1 R83     -0.121000
     24 C24         5.4170   -0.3840    0.7990 ca        1 R83     -0.157000
     25 C25         4.0890   -0.5530    0.3560 ca        1 R83      0.098600
     26 N26         3.3930   -1.8050    0.4860 nh        1 R83     -0.629000
     27 C27         3.9920   -2.8580   -0.3290 c3        1 R83      0.170300
     28 C28         3.2470   -4.1870   -0.2200 c3        1 R83     -0.078400
     29 C29         3.0920   -4.6110    1.2250 c3        1 R83     -0.079400
     30 C30         2.4480   -3.5070    2.0360 c3        1 R83     -0.078400
     31 C31         3.2130   -2.1940    1.8830 c3        1 R83      0.170300
     32 H11C       -4.3340   -1.1410   -3.9660 h1        1 R83      0.049700
     33 H12C       -6.1280   -0.7800   -3.7720 h1        1 R83      0.049700
     34 H13C       -4.9290    0.5990   -3.9880 h1        1 R83      0.049700
     35 H4         -2.7650    0.3840   -3.4140 ha        1 R83      0.148000
     36 H71C       -0.7430    0.5350   -4.3000 h1        1 R83      0.050033
     37 H72C       -1.3390    2.2180   -3.8580 h1        1 R83      0.050033
     38 H73C        0.4680    1.8790   -3.9610 h1        1 R83      0.050033
     39 H9         -2.5660    0.4650    1.5890 ha        1 R83      0.204000
     40 H11        -5.6130   -0.9060    0.0700 hn        1 R83      0.322500
     41 H141       -6.6430   -1.4980    2.4690 hc        1 R83      0.068367
     42 H142       -6.8150    0.0730    3.3670 hc        1 R83      0.068367
     43 H143       -7.4730   -0.0850    1.6790 hc        1 R83      0.068367
     44 H18         1.0850   -0.6120    0.7210 hn        1 R83      0.459800
     45 H191        1.9950   -0.4580   -1.4830 h1        1 R83      0.060200
     46 H192        1.7690    1.3480   -1.3720 h1        1 R83      0.060200
     47 H21         3.5500    2.6320   -0.7850 ha        1 R83      0.145000
     48 H22         5.8960    2.8980    0.0030 ha        1 R83      0.134000
     49 H23         7.0950    0.9580    1.0230 ha        1 R83      0.131000
     50 H24         5.9540   -1.2290    1.2580 ha        1 R83      0.132000
     51 H271        3.9620   -2.5070   -1.3990 h1        1 R83      0.036700
     52 H272        5.0740   -3.0300   -0.0540 h1        1 R83      0.036700
     53 H311        4.2040   -2.2940    2.4170 h1        1 R83      0.036700
     54 H312        2.6360   -1.3690    2.3890 h1        1 R83      0.036700
     55 H281        2.2360   -4.0950   -0.6960 hc        1 R83      0.047200
     56 H282        3.8230   -4.9610   -0.7900 hc        1 R83      0.047200
     57 H291        2.4670   -5.5400    1.2830 hc        1 R83      0.040700
     58 H292        4.0980   -4.8560    1.6550 hc        1 R83      0.040700
     59 H301        1.3860   -3.3670    1.7050 hc        1 R83      0.047200
     60 H302        2.4340   -3.7820    3.1220 hc        1 R83      0.047200
@<TRIPOS>BOND
     1    1    2 1   
     2    1   32 1   
     3    1   33 1   
     4    1   34 1   
     5    2    3 1   
     6    3    4 ar  
     7    3   10 ar  
     8    4    5 ar  
     9    4   35 1   
    10    5    6 1   
    11    5    8 ar  
    12    6    7 1   
    13    7   36 1   
    14    7   37 1   
    15    7   38 1   
    16    8    9 ar  
    17    8   15 1   
    18    9   10 ar  
    19    9   39 1   
    20   10   11 1   
    21   11   12 1   
    22   11   40 1   
    23   12   13 2   
    24   12   14 1   
    25   14   41 1   
    26   14   42 1   
    27   14   43 1   
    28   15   16 2   
    29   15   17 2   
    30   15   18 1   
    31   18   19 1   
    32   18   44 1   
    33   19   20 1   
    34   19   45 1   
    35   19   46 1   
    36   20   21 ar  
    37   20   25 ar  
    38   21   22 ar  
    39   21   47 1   
    40   22   23 ar  
    41   22   48 1   
    42   23   24 ar  
    43   23   49 1   
    44   24   25 ar  
    45   24   50 1   
    46   25   26 1   
    47   26   27 1   
    48   26   31 1   
    49   27   28 1   
    50   27   51 1   
    51   27   52 1   
    52   28   29 1   
    53   28   55 1   
    54   28   56 1   
    55   29   30 1   
    56   29   57 1   
    57   29   58 1   
    58   30   31 1   
    59   30   59 1   
    60   30   60 1   
    61   31   53 1   
    62   31   54 1   
@<TRIPOS>SUBSTRUCTURE
     1 R83         1 TEMP              0 ****  ****    0 ROOT
