@<TRIPOS>MOLECULE
R84
   79    81     1     0     0
SMALL
bcc


@<TRIPOS>ATOM
      1 C1         -7.0280   -0.5730   -3.3010 c3        1 R84      0.112700
      2 O2         -5.6970   -1.0290   -3.0310 os        1 R84     -0.356900
      3 C3         -5.0320   -0.3330   -2.0350 ca        1 R84      0.142100
      4 C4         -4.0210    0.5400   -2.4370 ca        1 R84     -0.222000
      5 C5         -3.2330    1.1690   -1.4710 ca        1 R84      0.197100
      6 O6         -2.1710    1.9940   -1.7980 os        1 R84     -0.344900
      7 C7         -2.1820    2.5420   -3.1110 c3        1 R84      0.122700
      8 C8         -3.4540    0.9690   -0.0970 ca        1 R84     -0.384500
      9 C9         -4.4660    0.0750    0.2830 ca        1 R84     -0.047000
     10 C10        -5.2810   -0.5940   -0.6520 ca        1 R84      0.035600
     11 N11        -6.3080   -1.4680   -0.2990 n         1 R84     -0.471100
     12 C12        -6.5570   -2.0100    0.9510 c         1 R84      0.665100
     13 O13        -5.8060   -1.8340    1.9330 o         1 R84     -0.638100
     14 C14        -7.8030   -2.8760    1.0630 c3        1 R84     -0.126400
     15 C15        -9.0770   -2.1230    0.7530 c3        1 R84     -0.201400
     16 C16        -9.5630   -2.3290   -0.6900 c         1 R84      0.910600
     17 O17        -8.7890   -2.0090   -1.6490 o         1 R84     -0.848800
     18 O18       -10.7220   -2.7860   -0.8690 o         1 R84     -0.848800
     19 S19        -2.6090    1.7960    1.1090 sy        1 R84      1.517200
     20 O20        -2.6060    3.1850    0.8290 o         1 R84     -0.666300
     21 O21        -3.1600    1.4590    2.3700 o         1 R84     -0.666300
     22 N22        -1.1080    1.2040    1.0360 n3        1 R84     -0.909100
     23 C23        -0.0110    1.7840    0.3150 c3        1 R84      0.280100
     24 C24         0.9670    2.5460    1.1760 ca        1 R84     -0.107300
     25 C25         0.4690    3.6230    1.9180 ca        1 R84     -0.112000
     26 C26         1.2930    4.3700    2.7540 ca        1 R84     -0.149000
     27 C27         2.6450    4.0480    2.8490 ca        1 R84     -0.121000
     28 C28         3.1680    3.0030    2.0970 ca        1 R84     -0.174000
     29 C29         2.3470    2.2320    1.2420 ca        1 R84      0.125600
     30 N30         2.8710    1.1410    0.4830 nh        1 R84     -0.634000
     31 C31         3.0940    1.4690   -0.9220 c3        1 R84      0.178300
     32 C32         3.4520    0.2380   -1.7540 c3        1 R84     -0.074900
     33 C33         4.6380   -0.5180   -1.1770 c3        1 R84     -0.066700
     34 C34         5.9330    0.2460   -1.4360 c3        1 R84      0.139400
     35 O35         7.0100   -0.6680   -1.2040 os        1 R84     -0.459900
     36 C36         8.2820   -0.2050   -1.4680 c         1 R84      0.636100
     37 O37         8.3700    0.9570   -1.8750 o         1 R84     -0.574000
     38 C38         9.3350   -1.2360   -1.2290 c3        1 R84     -0.111400
     39 C39        10.5320   -0.6750   -0.5020 c3        1 R84     -0.200400
     40 C40        11.7340   -1.6380   -0.6030 c         1 R84      0.912600
     41 O41        11.8130   -2.4010   -1.6090 o         1 R84     -0.846300
     42 O42        12.5880   -1.5970    0.3270 o         1 R84     -0.846300
     43 C43         4.4220   -0.7900    0.3030 c3        1 R84     -0.074900
     44 C44         4.0130    0.4610    1.0800 c3        1 R84      0.178300
     45 H11C       -6.9740    0.1500   -4.1520 h1        1 R84      0.057700
     46 H12C       -7.5920   -1.5020   -3.5750 h1        1 R84      0.057700
     47 H13C       -7.5130   -0.1000   -2.4140 h1        1 R84      0.057700
     48 H4         -3.8520    0.6980   -3.5110 ha        1 R84      0.147000
     49 H71C       -1.9290    1.7500   -3.8590 h1        1 R84      0.043367
     50 H72C       -3.1710    3.0010   -3.3460 h1        1 R84      0.043367
     51 H73C       -1.3790    3.3210   -3.0750 h1        1 R84      0.043367
     52 H9         -4.6290   -0.1030    1.3680 ha        1 R84      0.203000
     53 H11        -6.9810   -1.6970   -1.0280 hn        1 R84      0.390500
     54 H141       -7.6990   -3.7520    0.3690 hc        1 R84      0.061700
     55 H142       -7.8280   -3.2670    2.1150 hc        1 R84      0.061700
     56 H151       -9.8840   -2.4770    1.4450 hc        1 R84      0.040200
     57 H152       -8.9390   -1.0260    0.9220 hc        1 R84      0.040200
     58 H22        -0.8540    0.3960    1.5540 hn        1 R84      0.449800
     59 H231        0.5090    0.9610   -0.2530 h1        1 R84      0.068700
     60 H232       -0.4310    2.5120   -0.4460 h1        1 R84      0.068700
     61 H25        -0.6010    3.8860    1.8290 ha        1 R84      0.160000
     62 H26         0.8770    5.2060    3.3340 ha        1 R84      0.127000
     63 H27         3.3050    4.6260    3.5120 ha        1 R84      0.123000
     64 H28         4.2440    2.7840    2.1800 ha        1 R84      0.134000
     65 H311        2.1480    1.9270   -1.3280 h1        1 R84      0.035700
     66 H312        3.9200    2.2310   -1.0380 h1        1 R84      0.035700
     67 H441        4.9170    1.1370    1.1480 h1        1 R84      0.035700
     68 H442        3.7240    0.1650    2.1270 h1        1 R84      0.035700
     69 H321        2.5690   -0.4530   -1.7970 hc        1 R84      0.052200
     70 H322        3.6760    0.5750   -2.7990 hc        1 R84      0.052200
     71 H33         4.7220   -1.5110   -1.7040 hc        1 R84      0.063700
     72 H341        5.9820    0.6070   -2.4980 h1        1 R84      0.043200
     73 H342        6.0460    1.1240   -0.7490 h1        1 R84      0.043200
     74 H431        3.6310   -1.5760    0.4160 hc        1 R84      0.052200
     75 H432        5.3730   -1.1830    0.7480 hc        1 R84      0.052200
     76 H381        8.9000   -2.0970   -0.6590 hc        1 R84      0.087700
     77 H382        9.6740   -1.6280   -2.2310 hc        1 R84      0.087700
     78 H391       10.8370    0.3010   -0.9550 hc        1 R84      0.037700
     79 H392       10.2930   -0.4990    0.5750 hc        1 R84      0.037700
@<TRIPOS>BOND
     1    1    2 1   
     2    1   45 1   
     3    1   46 1   
     4    1   47 1   
     5    2    3 1   
     6    3    4 ar  
     7    3   10 ar  
     8    4    5 ar  
     9    4   48 1   
    10    5    6 1   
    11    5    8 ar  
    12    6    7 1   
    13    7   49 1   
    14    7   50 1   
    15    7   51 1   
    16    8    9 ar  
    17    8   19 1   
    18    9   10 ar  
    19    9   52 1   
    20   10   11 1   
    21   11   12 1   
    22   11   53 1   
    23   12   13 2   
    24   12   14 1   
    25   14   15 1   
    26   14   54 1   
    27   14   55 1   
    28   15   16 1   
    29   15   56 1   
    30   15   57 1   
    31   16   17 1   
    32   16   18 1   
    33   19   20 2   
    34   19   21 2   
    35   19   22 1   
    36   22   23 1   
    37   22   58 1   
    38   23   24 1   
    39   23   59 1   
    40   23   60 1   
    41   24   25 ar  
    42   24   29 ar  
    43   25   26 ar  
    44   25   61 1   
    45   26   27 ar  
    46   26   62 1   
    47   27   28 ar  
    48   27   63 1   
    49   28   29 ar  
    50   28   64 1   
    51   29   30 1   
    52   30   31 1   
    53   30   44 1   
    54   31   32 1   
    55   31   65 1   
    56   31   66 1   
    57   32   33 1   
    58   32   69 1   
    59   32   70 1   
    60   33   34 1   
    61   33   43 1   
    62   33   71 1   
    63   34   35 1   
    64   34   72 1   
    65   34   73 1   
    66   35   36 1   
    67   36   37 2   
    68   36   38 1   
    69   38   39 1   
    70   38   76 1   
    71   38   77 1   
    72   39   40 1   
    73   39   78 1   
    74   39   79 1   
    75   40   41 1   
    76   40   42 1   
    77   43   44 1   
    78   43   74 1   
    79   43   75 1   
    80   44   67 1   
    81   44   68 1   
@<TRIPOS>SUBSTRUCTURE
     1 R84         1 TEMP              0 ****  ****    0 ROOT
