@<TRIPOS>MOLECULE
R84
   80    82     1     0     0
SMALL
bcc


@<TRIPOS>ATOM
      1 C1          1.9760   -1.0620   -0.9120 c3        1 R84      0.093700
      2 O2          2.2020    0.2190   -0.2870 os        1 R84     -0.355900
      3 C3          2.7240    0.1990    0.9790 ca        1 R84      0.228100
      4 C4          1.9130    0.7340    1.9850 ca        1 R84     -0.241000
      5 C5          2.4050    0.8580    3.2800 ca        1 R84      0.243100
      6 O6          1.6920    1.4090    4.3220 os        1 R84     -0.368900
      7 C7          0.3190    1.7190    4.0760 c3        1 R84      0.121700
      8 C8          3.7140    0.4400    3.6200 ca        1 R84     -0.546500
      9 C9          4.5310   -0.0540    2.5710 ca        1 R84     -0.054000
     10 C10         4.0810   -0.2010    1.2540 ca        1 R84      0.037600
     11 N11         4.8890   -0.6610    0.2190 n         1 R84     -0.468100
     12 C12         6.0740   -1.3880    0.3640 c         1 R84      0.679100
     13 O13         6.6230   -1.5410    1.4740 o         1 R84     -0.631100
     14 C14         6.6790   -1.9560   -0.9060 c3        1 R84     -0.129400
     15 C15         5.8870   -3.1360   -1.4220 c3        1 R84     -0.195400
     16 C16         4.5060   -2.7150   -1.9300 c         1 R84      0.892600
     17 O17         4.3890   -1.5780   -2.4930 o         1 R84     -0.845800
     18 O18         3.5210   -3.4770   -1.7300 o         1 R84     -0.845800
     19 S19         4.3010    0.4210    5.1120 sy        1 R84      1.492200
     20 O20         3.4950   -0.1510    6.0820 o         1 R84     -0.598300
     21 O21         5.6700    0.1960    5.2070 o         1 R84     -0.598300
     22 N22         4.2240    2.2520    5.4680 n4        1 R84     -0.703900
     23 C23         3.4590    2.5990    6.6960 c3        1 R84      0.198100
     24 C24         3.8310    3.9210    7.2790 ca        1 R84     -0.166300
     25 C25         4.2030    3.9750    8.6260 ca        1 R84     -0.117000
     26 C26         4.4820    5.1950    9.2380 ca        1 R84     -0.145000
     27 C27         4.3960    6.3770    8.5040 ca        1 R84     -0.062000
     28 C28         4.0430    6.3350    7.1550 ca        1 R84     -0.127000
     29 C29         3.7580    5.1140    6.5210 ca        1 R84      0.074600
     30 N30         3.3890    5.0330    5.1290 nh        1 R84     -0.652000
     31 C31         2.0820    5.6540    4.8920 c3        1 R84      0.157800
     32 C32         1.6480    5.5820    3.4310 c3        1 R84     -0.067400
     33 C33         2.6970    6.1230    2.4740 c3        1 R84     -0.062700
     34 C34         2.7090    7.6460    2.4070 c3        1 R84      0.140400
     35 O35         3.1340    8.1720    3.6670 os        1 R84     -0.454900
     36 C36         3.1940    9.5430    3.7800 c         1 R84      0.635100
     37 O37         2.8750   10.2000    2.7850 o         1 R84     -0.569000
     38 C38         3.6700    9.9980    5.1210 c3        1 R84     -0.118400
     39 C39         2.6180    9.8220    6.1910 c3        1 R84     -0.198400
     40 C40         3.2560    9.6970    7.5880 c         1 R84      0.907600
     41 O41         4.4190    9.1950    7.6740 o         1 R84     -0.843300
     42 O42         2.5740   10.0590    8.5820 o         1 R84     -0.843300
     43 C43         4.0620    5.5310    2.7810 c3        1 R84     -0.067400
     44 C44         4.4250    5.5990    4.2610 c3        1 R84      0.157800
     45 H11C        2.4000   -0.9650   -1.9500 h1        1 R84      0.083700
     46 H12C        2.4830   -1.9070   -0.3890 h1        1 R84      0.083700
     47 H13C        0.8680   -1.2040   -0.9200 h1        1 R84      0.083700
     48 H4          0.8930    1.0530    1.7220 ha        1 R84      0.168000
     49 H71C       -0.2340    0.8070    3.7470 h1        1 R84      0.060700
     50 H72C        0.2420    2.5330    3.3140 h1        1 R84      0.060700
     51 H73C       -0.0430    2.0710    5.0760 h1        1 R84      0.060700
     52 H9          5.5740   -0.3410    2.8260 ha        1 R84      0.208000
     53 H11         4.4880   -0.6360   -0.7150 hn        1 R84      0.390500
     54 H141        6.7090   -1.1620   -1.7010 hc        1 R84      0.072700
     55 H142        7.7290   -2.2650   -0.6610 hc        1 R84      0.072700
     56 H151        6.4420   -3.5980   -2.2780 hc        1 R84      0.050200
     57 H152        5.7700   -3.9140   -0.6260 hc        1 R84      0.050200
     58 H22         5.1700    2.6270    5.5650 hn        1 R84      0.462800
     59 H231        3.6360    1.7750    7.4500 hx        1 R84      0.094200
     60 H232        2.3640    2.5940    6.4170 hx        1 R84      0.094200
     61 H25         4.2630    3.0460    9.2120 ha        1 R84      0.123000
     62 H26         4.7620    5.2240   10.3010 ha        1 R84      0.137000
     63 H27         4.5880    7.3740    8.9540 ha        1 R84      0.215000
     64 H28         3.9850    7.3040    6.6120 ha        1 R84      0.203000
     65 H311        2.0840    6.7390    5.2120 h1        1 R84      0.053950
     66 H312        1.3310    5.1040    5.5260 h1        1 R84      0.053950
     67 H441        5.3660    5.0040    4.4340 h1        1 R84      0.053950
     68 H442        4.6430    6.6760    4.5270 h1        1 R84      0.053950
     69 H321        1.4240    4.5170    3.1560 hc        1 R84      0.040700
     70 H322        0.6990    6.1690    3.3250 hc        1 R84      0.040700
     71 H33         2.4090    5.7930    1.4320 hc        1 R84      0.052700
     72 H341        3.4200    7.9980    1.6130 h1        1 R84      0.048200
     73 H342        1.6830    8.0400    2.1780 h1        1 R84      0.048200
     74 H431        4.0750    4.4630    2.4380 hc        1 R84      0.040700
     75 H432        4.8500    6.0840    2.2070 hc        1 R84      0.040700
     76 H381        3.9670   11.0760    5.0370 hc        1 R84      0.088700
     77 H382        4.5810    9.4000    5.4110 hc        1 R84      0.088700
     78 H391        1.9030   10.6810    6.1890 hc        1 R84      0.038700
     79 H392        2.0350    8.8830    6.0100 hc        1 R84      0.038700
     80 H222        3.7940    2.7570    4.6850 hn        1 R84      0.462800
@<TRIPOS>BOND
     1    1    2 1   
     2    1   45 1   
     3    1   46 1   
     4    1   47 1   
     5    2    3 1   
     6    3    4 ar  
     7    3   10 ar  
     8    4    5 ar  
     9    4   48 1   
    10    5    6 1   
    11    5    8 ar  
    12    6    7 1   
    13    7   49 1   
    14    7   50 1   
    15    7   51 1   
    16    8    9 ar  
    17    8   19 1   
    18    9   10 ar  
    19    9   52 1   
    20   10   11 1   
    21   11   12 1   
    22   11   53 1   
    23   12   13 2   
    24   12   14 1   
    25   14   15 1   
    26   14   54 1   
    27   14   55 1   
    28   15   16 1   
    29   15   56 1   
    30   15   57 1   
    31   16   17 1   
    32   16   18 1   
    33   19   20 2   
    34   19   21 2   
    35   19   22 1   
    36   22   23 1   
    37   22   58 1   
    38   22   80 1   
    39   23   24 1   
    40   23   59 1   
    41   23   60 1   
    42   24   25 ar  
    43   24   29 ar  
    44   25   26 ar  
    45   25   61 1   
    46   26   27 ar  
    47   26   62 1   
    48   27   28 ar  
    49   27   63 1   
    50   28   29 ar  
    51   28   64 1   
    52   29   30 1   
    53   30   31 1   
    54   30   44 1   
    55   31   32 1   
    56   31   65 1   
    57   31   66 1   
    58   32   33 1   
    59   32   69 1   
    60   32   70 1   
    61   33   34 1   
    62   33   43 1   
    63   33   71 1   
    64   34   35 1   
    65   34   72 1   
    66   34   73 1   
    67   35   36 1   
    68   36   37 2   
    69   36   38 1   
    70   38   39 1   
    71   38   76 1   
    72   38   77 1   
    73   39   40 1   
    74   39   78 1   
    75   39   79 1   
    76   40   41 1   
    77   40   42 1   
    78   43   44 1   
    79   43   74 1   
    80   43   75 1   
    81   44   67 1   
    82   44   68 1   
@<TRIPOS>SUBSTRUCTURE
     1 R84         1 TEMP              0 ****  ****    0 ROOT
