@<TRIPOS>MOLECULE
R84
   79    81     1     0     0
SMALL
bcc


@<TRIPOS>ATOM
      1 C1          1.5960   -2.6180   -1.1320 c3        1 R84      0.111700
      2 O2          2.0100   -1.2720   -0.8670 os        1 R84     -0.353900
      3 C3          2.3870   -1.0270    0.4430 ca        1 R84      0.118100
      4 C4          1.5030   -0.3000    1.2400 ca        1 R84     -0.172000
      5 C5          1.8950    0.0860    2.5220 ca        1 R84      0.164100
      6 O6          1.0580    0.9140    3.2640 os        1 R84     -0.366900
      7 C7         -0.0540    0.2300    3.8470 c3        1 R84      0.114700
      8 C8          3.1490   -0.2650    3.0460 ca        1 R84     -0.370500
      9 C9          4.0280   -0.9830    2.2280 ca        1 R84     -0.063000
     10 C10         3.6860   -1.3900    0.9200 ca        1 R84      0.056600
     11 N11         4.5300   -2.1270    0.0940 n         1 R84     -0.470100
     12 C12         5.8730   -2.4100    0.2970 c         1 R84      0.667100
     13 O13         6.5350   -1.9310    1.2400 o         1 R84     -0.635100
     14 C14         6.5180   -3.3280   -0.7300 c3        1 R84     -0.126400
     15 C15         5.9010   -4.7090   -0.7510 c3        1 R84     -0.201400
     16 C16         4.8480   -4.8870   -1.8560 c         1 R84      0.910600
     17 O17         3.8800   -4.0630   -1.9210 o         1 R84     -0.848300
     18 O18         4.9730   -5.8610   -2.6440 o         1 R84     -0.848300
     19 S19         3.6090    0.0920    4.6320 sy        1 R84      1.516200
     20 O20         2.5170   -0.1890    5.4950 o         1 R84     -0.669800
     21 O21         4.7970   -0.6120    4.9440 o         1 R84     -0.669800
     22 N22         3.9400    1.6700    4.6260 n3        1 R84     -0.909100
     23 C23         3.0070    2.7290    4.8900 c3        1 R84      0.277100
     24 C24         3.1150    3.3190    6.2760 ca        1 R84     -0.107300
     25 C25         2.8950    2.4600    7.3600 ca        1 R84     -0.115000
     26 C26         2.9880    2.9110    8.6720 ca        1 R84     -0.150000
     27 C27         3.2960    4.2470    8.9170 ca        1 R84     -0.121000
     28 C28         3.4910    5.1240    7.8560 ca        1 R84     -0.173000
     29 C29         3.4030    4.6850    6.5160 ca        1 R84      0.126600
     30 N30         3.6280    5.5730    5.4190 nh        1 R84     -0.634000
     31 C31         2.3960    6.0420    4.7930 c3        1 R84      0.177300
     32 C32         2.6590    6.8250    3.5080 c3        1 R84     -0.074900
     33 C33         3.6330    7.9720    3.7250 c3        1 R84     -0.067700
     34 C34         2.9550    9.1100    4.4830 c3        1 R84      0.139400
     35 O35         3.7990   10.2590    4.3550 os        1 R84     -0.459900
     36 C36         3.3370   11.4310    4.9170 c         1 R84      0.636100
     37 O37         2.2400   11.3750    5.4800 o         1 R84     -0.574000
     38 C38         4.2670   12.5800    4.7090 c3        1 R84     -0.111400
     39 C39         4.4600   13.3950    5.9650 c3        1 R84     -0.200400
     40 C40         5.1080   14.7570    5.6400 c         1 R84      0.912600
     41 O41         4.9160   15.2590    4.4950 o         1 R84     -0.846300
     42 O42         5.7880   15.3060    6.5510 o         1 R84     -0.846300
     43 C43         4.8820    7.4780    4.4350 c3        1 R84     -0.074900
     44 C44         4.5640    6.6580    5.6850 c3        1 R84      0.177300
     45 H11C        2.0830   -3.3610   -0.4590 h1        1 R84      0.057367
     46 H12C        1.9240   -2.8080   -2.1870 h1        1 R84      0.057367
     47 H13C        0.4840   -2.6600   -1.0270 h1        1 R84      0.057367
     48 H4          0.5160   -0.0170    0.8470 ha        1 R84      0.150000
     49 H71C        0.3100   -0.4740    4.6360 h1        1 R84      0.046700
     50 H72C       -0.6630    1.0530    4.2970 h1        1 R84      0.046700
     51 H73C       -0.6340   -0.3110    3.0620 h1        1 R84      0.046700
     52 H9          5.0280   -1.2500    2.6330 ha        1 R84      0.200000
     53 H11         4.1040   -2.5590   -0.7250 hn        1 R84      0.392500
     54 H141        6.4320   -2.8580   -1.7450 hc        1 R84      0.062200
     55 H142        7.6060   -3.3920   -0.4650 hc        1 R84      0.062200
     56 H151        5.4170   -4.9420    0.2300 hc        1 R84      0.040700
     57 H152        6.7110   -5.4650   -0.9190 hc        1 R84      0.040700
     58 H22         4.8650    1.9940    4.4660 hn        1 R84      0.451800
     59 H231        3.1460    3.5240    4.1030 h1        1 R84      0.071700
     60 H232        1.9570    2.3160    4.7750 h1        1 R84      0.071700
     61 H25         2.6380    1.4030    7.1630 ha        1 R84      0.161000
     62 H26         2.8200    2.2170    9.5070 ha        1 R84      0.127000
     63 H27         3.3790    4.6160    9.9500 ha        1 R84      0.123000
     64 H28         3.7180    6.1780    8.0810 ha        1 R84      0.134000
     65 H311        1.7620    5.1430    4.5530 h1        1 R84      0.035950
     66 H312        1.8060    6.6990    5.4980 h1        1 R84      0.035950
     67 H441        4.1720    7.3680    6.4730 h1        1 R84      0.035950
     68 H442        5.5150    6.2000    6.0770 h1        1 R84      0.035950
     69 H321        1.6790    7.2140    3.1280 hc        1 R84      0.052950
     70 H322        3.0810    6.1360    2.7310 hc        1 R84      0.052950
     71 H33         3.9420    8.3770    2.7190 hc        1 R84      0.063700
     72 H341        1.9500    9.3440    4.0420 h1        1 R84      0.043200
     73 H342        2.8280    8.8700    5.5700 h1        1 R84      0.043200
     74 H431        5.5050    8.3580    4.7420 hc        1 R84      0.052950
     75 H432        5.4840    6.8560    3.7220 hc        1 R84      0.052950
     76 H381        5.2540   12.2060    4.3320 hc        1 R84      0.087200
     77 H382        3.8280   13.2460    3.9120 hc        1 R84      0.087200
     78 H391        5.1040   12.8470    6.6960 hc        1 R84      0.037200
     79 H392        3.4720   13.5940    6.4520 hc        1 R84      0.037200
@<TRIPOS>BOND
     1    1    2 1   
     2    1   45 1   
     3    1   46 1   
     4    1   47 1   
     5    2    3 1   
     6    3    4 ar  
     7    3   10 ar  
     8    4    5 ar  
     9    4   48 1   
    10    5    6 1   
    11    5    8 ar  
    12    6    7 1   
    13    7   49 1   
    14    7   50 1   
    15    7   51 1   
    16    8    9 ar  
    17    8   19 1   
    18    9   10 ar  
    19    9   52 1   
    20   10   11 1   
    21   11   12 1   
    22   11   53 1   
    23   12   13 2   
    24   12   14 1   
    25   14   15 1   
    26   14   54 1   
    27   14   55 1   
    28   15   16 1   
    29   15   56 1   
    30   15   57 1   
    31   16   17 1   
    32   16   18 1   
    33   19   20 2   
    34   19   21 2   
    35   19   22 1   
    36   22   23 1   
    37   22   58 1   
    38   23   24 1   
    39   23   59 1   
    40   23   60 1   
    41   24   25 ar  
    42   24   29 ar  
    43   25   26 ar  
    44   25   61 1   
    45   26   27 ar  
    46   26   62 1   
    47   27   28 ar  
    48   27   63 1   
    49   28   29 ar  
    50   28   64 1   
    51   29   30 1   
    52   30   31 1   
    53   30   44 1   
    54   31   32 1   
    55   31   65 1   
    56   31   66 1   
    57   32   33 1   
    58   32   69 1   
    59   32   70 1   
    60   33   34 1   
    61   33   43 1   
    62   33   71 1   
    63   34   35 1   
    64   34   72 1   
    65   34   73 1   
    66   35   36 1   
    67   36   37 2   
    68   36   38 1   
    69   38   39 1   
    70   38   76 1   
    71   38   77 1   
    72   39   40 1   
    73   39   78 1   
    74   39   79 1   
    75   40   41 1   
    76   40   42 1   
    77   43   44 1   
    78   43   74 1   
    79   43   75 1   
    80   44   67 1   
    81   44   68 1   
@<TRIPOS>SUBSTRUCTURE
     1 R84         1 TEMP              0 ****  ****    0 ROOT
