@<TRIPOS>MOLECULE
R84
   80    82     1     0     0
SMALL
bcc


@<TRIPOS>ATOM
      1 C1          2.0650   -0.9500   -1.0120 c3        1 R84      0.094700
      2 O2          2.2910    0.3170   -0.3600 os        1 R84     -0.355900
      3 C3          2.7670    0.2710    0.9220 ca        1 R84      0.228100
      4 C4          1.9360    0.8210    1.9050 ca        1 R84     -0.241000
      5 C5          2.3850    0.9200    3.2180 ca        1 R84      0.244100
      6 O6          1.6500    1.4820    4.2380 os        1 R84     -0.367900
      7 C7          0.2940    1.8260    3.9480 c3        1 R84      0.120700
      8 C8          3.6680    0.4610    3.6000 ca        1 R84     -0.545500
      9 C9          4.5070   -0.0470    2.5770 ca        1 R84     -0.052000
     10 C10         4.1010   -0.1690    1.2430 ca        1 R84      0.035600
     11 N11         4.9340   -0.6430    0.2340 ns        1 R84     -0.469100
     12 C12         6.0840   -1.4160    0.4160 c         1 R84      0.678100
     13 O13         6.5740   -1.6140    1.5450 o         1 R84     -0.631100
     14 C14         6.7290   -1.9760   -0.8390 c3        1 R84     -0.129400
     15 C15         5.9220   -3.1140   -1.4210 c3        1 R84     -0.195400
     16 C16         4.5850   -2.6320   -1.9890 c         1 R84      0.891600
     17 O17         4.5350   -1.4760   -2.5230 o         1 R84     -0.846300
     18 O18         3.5660   -3.3650   -1.8640 o         1 R84     -0.846300
     19 S19         4.2000    0.4150    5.1130 sy        1 R84      1.491200
     20 O20         3.3420   -0.1450    6.0470 o         1 R84     -0.598800
     21 O21         5.5570    0.1440    5.2530 o         1 R84     -0.598800
     22 N22         4.1670    2.2390    5.4830 ny        1 R84     -0.704900
     23 C23         3.3510    2.6040    6.6740 c3        1 R84      0.198100
     24 C24         3.7330    3.9120    7.2820 ca        1 R84     -0.170300
     25 C25         4.0070    3.9570    8.6520 ca        1 R84     -0.116000
     26 C26         4.2800    5.1680    9.2840 ca        1 R84     -0.145000
     27 C27         4.3020    6.3500    8.5450 ca        1 R84     -0.052000
     28 C28         4.0660    6.3110    7.1700 ca        1 R84     -0.129000
     29 C29         3.7640    5.1040    6.5200 ca        1 R84      0.073600
     30 N30         3.4650    5.0450    5.1100 nh        1 R84     -0.654000
     31 C31         2.1610    5.6510    4.8270 c3        1 R84      0.155800
     32 C32         1.7780    5.5760    3.3540 c3        1 R84     -0.068400
     33 C33         2.8570    6.0960    2.4200 c3        1 R84     -0.077700
     34 C34         2.8280    7.6140    2.2560 c3        1 R84      0.134400
     35 O35         3.3940    8.3110    3.3620 os        1 R84     -0.453900
     36 C36         2.5750    9.0720    4.1690 c         1 R84      0.639100
     37 O37         1.3580    8.9720    3.9960 o         1 R84     -0.567000
     38 C38         3.3600    9.9260    5.1130 c3        1 R84     -0.123400
     39 C39         2.7280   10.0320    6.4830 c3        1 R84     -0.197400
     40 C40         3.6330    9.4750    7.5930 c         1 R84      0.896600
     41 O41         4.8480    9.2160    7.3320 o         1 R84     -0.847300
     42 O42         3.1200    9.2670    8.7280 o         1 R84     -0.847300
     43 C43         4.2270    5.5640    2.8000 c3        1 R84     -0.068400
     44 C44         4.5200    5.6510    4.2950 c3        1 R84      0.155800
     45 H11C        0.9550   -1.0650   -1.0720 h1        1 R84      0.083367
     46 H12C        2.5260   -1.8130   -0.4770 h1        1 R84      0.083367
     47 H13C        2.5380   -0.8510   -2.0280 h1        1 R84      0.083367
     48 H4          0.9350    1.1710    1.6090 ha        1 R84      0.168000
     49 H71C       -0.0920    2.1840    4.9370 h1        1 R84      0.060700
     50 H72C        0.2610    2.6440    3.1870 h1        1 R84      0.060700
     51 H73C       -0.2700    0.9280    3.5980 h1        1 R84      0.060700
     52 H9          5.5330   -0.3660    2.8650 ha        1 R84      0.207000
     53 H11         4.5760   -0.5840   -0.7160 hn        1 R84      0.390500
     54 H141        6.8250   -1.1650   -1.6110 hc        1 R84      0.072200
     55 H142        7.7540   -2.3280   -0.5530 hc        1 R84      0.072200
     56 H151        5.7360   -3.9030   -0.6510 hc        1 R84      0.049700
     57 H152        6.5030   -3.5780   -2.2590 hc        1 R84      0.049700
     58 H22         3.7950    2.7680    4.6850 hn        1 R84      0.463800
     59 H231        3.4640    1.7720    7.4310 hx        1 R84      0.093700
     60 H232        2.2710    2.6350    6.3390 hx        1 R84      0.093700
     61 H25         3.9890    3.0280    9.2410 ha        1 R84      0.121000
     62 H26         4.4690    5.1920   10.3670 ha        1 R84      0.136000
     63 H27         4.4710    7.3480    9.0080 ha        1 R84      0.221000
     64 H28         4.1170    7.2710    6.6150 ha        1 R84      0.199000
     65 H311        1.3920    5.0980    5.4360 h1        1 R84      0.053700
     66 H312        2.1380    6.7370    5.1450 h1        1 R84      0.053700
     67 H441        5.4760    5.0970    4.5140 h1        1 R84      0.053700
     68 H442        4.6820    6.7390    4.5610 h1        1 R84      0.053700
     69 H321        1.5510    4.5100    3.0820 hc        1 R84      0.042700
     70 H322        0.8380    6.1740    3.2160 hc        1 R84      0.042700
     71 H33         2.6190    5.6990    1.3870 hc        1 R84      0.047700
     72 H341        3.4890    7.9020    1.3910 h1        1 R84      0.057200
     73 H342        1.7760    7.9550    2.0600 h1        1 R84      0.057200
     74 H431        5.0190    6.1490    2.2620 hc        1 R84      0.042700
     75 H432        4.3030    4.4950    2.4640 hc        1 R84      0.042700
     76 H381        3.4370   10.9360    4.6290 hc        1 R84      0.088200
     77 H382        4.4060    9.5130    5.2140 hc        1 R84      0.088200
     78 H391        1.7490    9.4920    6.5190 hc        1 R84      0.049200
     79 H392        2.5270   11.1070    6.7230 hc        1 R84      0.049200
     80 H222        5.1180    2.5820    5.6340 hn        1 R84      0.463800
@<TRIPOS>BOND
     1    1    2 1   
     2    1   45 1   
     3    1   46 1   
     4    1   47 1   
     5    2    3 1   
     6    3    4 ar  
     7    3   10 ar  
     8    4    5 ar  
     9    4   48 1   
    10    5    6 1   
    11    5    8 ar  
    12    6    7 1   
    13    7   49 1   
    14    7   50 1   
    15    7   51 1   
    16    8    9 ar  
    17    8   19 1   
    18    9   10 ar  
    19    9   52 1   
    20   10   11 1   
    21   11   12 1   
    22   11   53 1   
    23   12   13 2   
    24   12   14 1   
    25   14   15 1   
    26   14   54 1   
    27   14   55 1   
    28   15   16 1   
    29   15   56 1   
    30   15   57 1   
    31   16   17 1   
    32   16   18 1   
    33   19   20 2   
    34   19   21 2   
    35   19   22 1   
    36   22   23 1   
    37   22   58 1   
    38   22   80 1   
    39   23   24 1   
    40   23   59 1   
    41   23   60 1   
    42   24   25 ar  
    43   24   29 ar  
    44   25   26 ar  
    45   25   61 1   
    46   26   27 ar  
    47   26   62 1   
    48   27   28 ar  
    49   27   63 1   
    50   28   29 ar  
    51   28   64 1   
    52   29   30 1   
    53   30   31 1   
    54   30   44 1   
    55   31   32 1   
    56   31   65 1   
    57   31   66 1   
    58   32   33 1   
    59   32   69 1   
    60   32   70 1   
    61   33   34 1   
    62   33   43 1   
    63   33   71 1   
    64   34   35 1   
    65   34   72 1   
    66   34   73 1   
    67   35   36 1   
    68   36   37 2   
    69   36   38 1   
    70   38   39 1   
    71   38   76 1   
    72   38   77 1   
    73   39   40 1   
    74   39   78 1   
    75   39   79 1   
    76   40   41 1   
    77   40   42 1   
    78   43   44 1   
    79   43   74 1   
    80   43   75 1   
    81   44   67 1   
    82   44   68 1   
@<TRIPOS>SUBSTRUCTURE
     1 R84         1 TEMP              0 ****  ****    0 ROOT
