@<TRIPOS>MOLECULE
R86
   73    76     1     0     0
SMALL
bcc


@<TRIPOS>ATOM
      1 C48         2.7070    3.2360   -0.4670 c3        1 R86      0.108700
      2 O47         3.7590    3.2470    0.4960 os        1 R86     -0.314900
      3 C44         3.8580    2.1470    1.3130 ca        1 R86      0.158100
      4 C45         2.9720    1.0610    1.2990 ca        1 R86     -0.177000
      5 C46         3.1740    0.0050    2.1850 ca        1 R86     -0.079500
      6 C43         4.9460    2.1720    2.2110 ca        1 R86     -0.177000
      7 C42         5.1300    1.1110    3.0840 ca        1 R86     -0.079500
      8 C41         4.2450    0.0210    3.0820 ca        1 R86     -0.172300
      9 C38         4.4680   -1.1180    4.0100 c3        1 R86     -0.037100
     10 C37         3.8520   -0.7780    5.3690 c3        1 R86      0.103800
     11 N35         4.1010   -1.8210    6.4090 ny        1 R86     -0.680800
     12 C33         5.5410   -1.8170    6.8840 c         1 R86      0.580100
     13 O34         6.2520   -2.6780    6.3880 o         1 R86     -0.431100
     14 C32         5.8910   -0.7520    7.8720 c3        1 R86     -0.176400
     15 C25         7.1740   -1.1190    8.6550 c3        1 R86      0.096700
     16 C26         7.0070   -2.4650    9.4090 c3        1 R86      0.173800
     17 N24         7.5530   -0.0510    9.5640 n         1 R86     -0.492800
     18 C27         8.0970    1.1200    9.0260 c         1 R86      0.672100
     19 O28         7.9880    1.2970    7.7960 o         1 R86     -0.608100
     20 C29         8.7670    2.1430    9.9340 c3        1 R86     -0.119700
     21 C31         9.8570    2.8580    9.1590 c3        1 R86     -0.094600
     22 C30         7.7290    3.1280   10.4330 c3        1 R86     -0.094600
     23 C23         7.6050   -0.3690   10.9690 c3        1 R86      0.081000
     24 C22         6.4610   -1.2860   11.4640 c3        1 R86      0.178800
     25 N21         6.1480   -2.3900   10.5680 nh        1 R86     -0.740300
     26 C13         4.7940   -2.7680   10.4890 ca        1 R86      0.696200
     27 N12         4.2400   -3.1310    9.2860 nb        1 R86     -0.854000
     28 C14         4.0250   -2.8330   11.6920 ca        1 R86     -0.405600
     29 C15         2.7080   -3.3180   11.6160 ca        1 R86      0.509600
     30 C17         1.8900   -3.4070   12.8640 c3        1 R86     -0.166400
     31 N16         2.1560   -3.7330   10.4450 nb        1 R86     -0.718000
     32 C11         2.9590   -3.6410    9.3360 ca        1 R86      0.766500
     33 N3          2.4130   -4.0750    8.0980 na        1 R86     -0.286700
     34 C4          3.1360   -4.6530    7.0320 cc        1 R86     -0.308600
     35 C5          2.1750   -5.0460    6.0910 cd        1 R86      0.325200
     36 NFE         0.8880   -4.7400    6.5540 nd        1 R86     -0.651000
     37 C2          1.0410   -4.1880    7.7670 cc        1 R86      0.457400
     38 H481        2.8170    2.3670   -1.1600 h1        1 R86      0.054700
     39 H482        1.7130    3.2140    0.0420 h1        1 R86      0.054700
     40 H483        2.8520    4.2020   -1.0140 h1        1 R86      0.054700
     41 H45         2.1270    1.0290    0.5960 ha        1 R86      0.159000
     42 H46         2.4840   -0.8530    2.1640 ha        1 R86      0.134000
     43 H43         5.6350    3.0300    2.2000 ha        1 R86      0.159000
     44 H42         5.9870    1.1210    3.7750 ha        1 R86      0.134000
     45 H381        5.5690   -1.3150    4.1220 hc        1 R86      0.071700
     46 H382        3.9960   -2.0510    3.5990 hc        1 R86      0.071700
     47 H371        4.2730    0.1990    5.7440 hx        1 R86      0.104200
     48 H372        2.7350   -0.6690    5.2550 hx        1 R86      0.104200
     49 HN35        3.8800   -2.7530    6.0170 hn        1 R86      0.466300
     50 H321        6.0900    0.2010    7.2940 hc        1 R86      0.115200
     51 H322        5.0450   -0.5610    8.5830 hc        1 R86      0.115200
     52 H25         7.9970   -1.2570    7.8860 h1        1 R86      0.095700
     53 H261        8.0240   -2.7810    9.7900 h1        1 R86      0.091700
     54 H262        6.6660   -3.2550    8.6870 h1        1 R86      0.091700
     55 H29         9.2440    1.6230   10.8110 hc        1 R86      0.066700
     56 H311        9.4330    3.3510    8.2510 hc        1 R86      0.053033
     57 H312       10.3290    3.6350    9.8070 hc        1 R86      0.053033
     58 H313       10.6420    2.1340    8.8320 hc        1 R86      0.053033
     59 H301        8.2180    3.8810   11.0980 hc        1 R86      0.053033
     60 H302        7.2580    3.6670    9.5760 hc        1 R86      0.053033
     61 H303        6.9280    2.6090   11.0130 hc        1 R86      0.053033
     62 H231        7.5370    0.5830   11.5700 h1        1 R86      0.068200
     63 H232        8.5910   -0.8670   11.2060 h1        1 R86      0.068200
     64 H221        6.7870   -1.7290   12.4490 h1        1 R86      0.068700
     65 H222        5.5440   -0.6560   11.6500 h1        1 R86      0.068700
     66 H14         4.4560   -2.5420   12.6590 ha        1 R86      0.174000
     67 H171        0.8700   -2.9750   12.7080 hc        1 R86      0.075700
     68 H172        2.3930   -2.8580   13.6960 hc        1 R86      0.075700
     69 H173        1.7720   -4.4810   13.1590 hc        1 R86      0.075700
     70 H4          4.2120   -4.8210    7.0790 h4        1 R86      0.198000
     71 H5          2.3240   -5.5370    5.1270 h4        1 R86      0.063100
     72 H2          0.2400   -3.8570    8.4430 h5        1 R86      0.095100
     73 H352        3.4870   -1.6540    7.2110 hn        1 R86      0.466300
@<TRIPOS>BOND
     1    1    2 1   
     2    1   38 1   
     3    1   39 1   
     4    1   40 1   
     5    2    3 1   
     6    3    4 ar  
     7    3    6 ar  
     8    4    5 ar  
     9    4   41 1   
    10    5    8 ar  
    11    5   42 1   
    12    6    7 ar  
    13    6   43 1   
    14    7    8 ar  
    15    7   44 1   
    16    8    9 1   
    17    9   10 1   
    18    9   45 1   
    19    9   46 1   
    20   10   11 1   
    21   10   47 1   
    22   10   48 1   
    23   11   12 1   
    24   11   49 1   
    25   11   73 1   
    26   12   13 2   
    27   12   14 1   
    28   14   15 1   
    29   14   50 1   
    30   14   51 1   
    31   15   16 1   
    32   15   17 1   
    33   15   52 1   
    34   16   25 1   
    35   16   53 1   
    36   16   54 1   
    37   17   18 1   
    38   17   23 1   
    39   18   19 2   
    40   18   20 1   
    41   20   21 1   
    42   20   22 1   
    43   20   55 1   
    44   21   56 1   
    45   21   57 1   
    46   21   58 1   
    47   22   59 1   
    48   22   60 1   
    49   22   61 1   
    50   23   24 1   
    51   23   62 1   
    52   23   63 1   
    53   24   25 1   
    54   24   64 1   
    55   24   65 1   
    56   25   26 1   
    57   26   27 ar  
    58   26   28 ar  
    59   27   32 ar  
    60   28   29 ar  
    61   28   66 1   
    62   29   30 1   
    63   29   31 ar  
    64   30   67 1   
    65   30   68 1   
    66   30   69 1   
    67   31   32 ar  
    68   32   33 1   
    69   33   34 1   
    70   33   37 1   
    71   34   35 2   
    72   34   70 1   
    73   35   36 1   
    74   35   71 1   
    75   36   37 2   
    76   37   72 1   
@<TRIPOS>SUBSTRUCTURE
     1 R86         1 TEMP              0 ****  ****    0 ROOT
