@<TRIPOS>MOLECULE
R86
   73    76     1     0     0
SMALL
bcc


@<TRIPOS>ATOM
      1 C48         2.7170    3.0640   -0.5590 c3        1 R86      0.108700
      2 O47         3.7640    3.1030    0.4090 os        1 R86     -0.314900
      3 C44         3.8660    2.0190    1.2480 ca        1 R86      0.158100
      4 C45         2.9890    0.9260    1.2500 ca        1 R86     -0.177000
      5 C46         3.1950   -0.1110    2.1570 ca        1 R86     -0.079500
      6 C43         4.9490    2.0700    2.1520 ca        1 R86     -0.177000
      7 C42         5.1360    1.0270    3.0450 ca        1 R86     -0.079500
      8 C41         4.2600   -0.0690    3.0600 ca        1 R86     -0.172300
      9 C38         4.4860   -1.1880    4.0110 c3        1 R86     -0.037100
     10 C37         3.8610   -0.8260    5.3590 c3        1 R86      0.103800
     11 N35         4.1120   -1.8470    6.4210 n4        1 R86     -0.680800
     12 C33         5.5490   -1.8240    6.9040 c         1 R86      0.580100
     13 O34         6.2690   -2.6890    6.4280 o         1 R86     -0.431100
     14 C32         5.8880   -0.7380    7.8720 c3        1 R86     -0.176400
     15 C25         7.1690   -1.0810    8.6690 c3        1 R86      0.096700
     16 C26         7.0070   -2.4130    9.4470 c3        1 R86      0.173800
     17 N24         7.5360    0.0070    9.5590 n         1 R86     -0.492800
     18 C27         8.0740    1.1720    9.0010 c         1 R86      0.672100
     19 O28         7.9710    1.3250    7.7680 o         1 R86     -0.608100
     20 C29         8.7320    2.2160    9.8930 c3        1 R86     -0.119700
     21 C31         9.8220    2.9240    9.1100 c3        1 R86     -0.094600
     22 C30         7.6860    3.2030   10.3680 c3        1 R86     -0.094600
     23 C23         7.5830   -0.2840   10.9700 c3        1 R86      0.081000
     24 C22         6.4420   -1.1990   11.4770 c3        1 R86      0.178800
     25 N21         6.1420   -2.3220   10.6000 nh        1 R86     -0.740300
     26 C13         4.7910   -2.7110   10.5220 ca        1 R86      0.696200
     27 N12         4.2460   -3.1010    9.3230 nb        1 R86     -0.854000
     28 C14         4.0160   -2.7590   11.7220 ca        1 R86     -0.405600
     29 C15         2.7040   -3.2550   11.6490 ca        1 R86      0.509600
     30 C17         1.8800   -3.3260   12.8940 c3        1 R86     -0.166400
     31 N16         2.1600   -3.6960   10.4830 nb        1 R86     -0.718000
     32 C11         2.9680   -3.6190    9.3760 ca        1 R86      0.766500
     33 N3          2.4310   -4.0810    8.1450 na        1 R86     -0.286700
     34 C4          3.1640   -4.6740    7.0930 cc        1 R86     -0.308600
     35 C5          2.2100   -5.0910    6.1550 cd        1 R86      0.325200
     36 NFE         0.9190   -4.7850    6.6060 nd        1 R86     -0.651000
     37 C2          1.0620   -4.2100    7.8090 cc        1 R86      0.457400
     38 H481        1.7200    3.0450   -0.0560 h1        1 R86      0.054700
     39 H482        2.8580    4.0210   -1.1240 h1        1 R86      0.054700
     40 H483        2.8380    2.1840   -1.2350 h1        1 R86      0.054700
     41 H45         2.1490    0.8740    0.5430 ha        1 R86      0.159000
     42 H46         2.5110   -0.9740    2.1500 ha        1 R86      0.134000
     43 H43         5.6310    2.9330    2.1270 ha        1 R86      0.159000
     44 H42         5.9900    1.0580    3.7410 ha        1 R86      0.134000
     45 H381        5.5880   -1.3740    4.1330 hc        1 R86      0.071700
     46 H382        4.0230   -2.1330    3.6160 hc        1 R86      0.071700
     47 H371        2.7440   -0.7270    5.2390 hx        1 R86      0.104200
     48 H372        4.2740    0.1610    5.7180 hx        1 R86      0.104200
     49 HN35        3.9000   -2.7880    6.0460 hn        1 R86      0.466300
     50 H321        6.0820    0.2050    7.2770 hc        1 R86      0.115200
     51 H322        5.0370   -0.5390    8.5750 hc        1 R86      0.115200
     52 H25         7.9960   -1.2270    7.9060 h1        1 R86      0.095700
     53 H261        8.0250   -2.7150    9.8390 h1        1 R86      0.091700
     54 H262        6.6760   -3.2190    8.7380 h1        1 R86      0.091700
     55 H29         9.2090    1.7160   10.7820 hc        1 R86      0.066700
     56 H311       10.6130    2.1990    8.8010 hc        1 R86      0.053033
     57 H312        9.3990    3.3970    8.1900 hc        1 R86      0.053033
     58 H313       10.2860    3.7160    9.7460 hc        1 R86      0.053033
     59 H301        7.2160    3.7230    9.4980 hc        1 R86      0.053033
     60 H302        8.1660    3.9730   11.0210 hc        1 R86      0.053033
     61 H303        6.8860    2.6900   10.9540 hc        1 R86      0.053033
     62 H231        8.5710   -0.7700   11.2220 h1        1 R86      0.068200
     63 H232        7.5050    0.6790   11.5520 h1        1 R86      0.068200
     64 H221        6.7660   -1.6210   12.4720 h1        1 R86      0.068700
     65 H222        5.5210   -0.5720   11.6460 h1        1 R86      0.068700
     66 H14         4.4410   -2.4470   12.6850 ha        1 R86      0.174000
     67 H171        2.3750   -2.7580   13.7190 hc        1 R86      0.075700
     68 H172        1.7680   -4.3950   13.2090 hc        1 R86      0.075700
     69 H173        0.8580   -2.9040   12.7250 hc        1 R86      0.075700
     70 H4          4.2410   -4.8330    7.1490 h4        1 R86      0.198000
     71 H5          2.3680   -5.6000    5.2020 h4        1 R86      0.063100
     72 H2          0.2560   -3.8710    8.4740 h5        1 R86      0.095100
     73 H352        3.4930   -1.6690    7.2170 hn        1 R86      0.466300
@<TRIPOS>BOND
     1    1    2 1   
     2    1   38 1   
     3    1   39 1   
     4    1   40 1   
     5    2    3 1   
     6    3    4 ar  
     7    3    6 ar  
     8    4    5 ar  
     9    4   41 1   
    10    5    8 ar  
    11    5   42 1   
    12    6    7 ar  
    13    6   43 1   
    14    7    8 ar  
    15    7   44 1   
    16    8    9 1   
    17    9   10 1   
    18    9   45 1   
    19    9   46 1   
    20   10   11 1   
    21   10   47 1   
    22   10   48 1   
    23   11   12 1   
    24   11   49 1   
    25   11   73 1   
    26   12   13 2   
    27   12   14 1   
    28   14   15 1   
    29   14   50 1   
    30   14   51 1   
    31   15   16 1   
    32   15   17 1   
    33   15   52 1   
    34   16   25 1   
    35   16   53 1   
    36   16   54 1   
    37   17   18 1   
    38   17   23 1   
    39   18   19 2   
    40   18   20 1   
    41   20   21 1   
    42   20   22 1   
    43   20   55 1   
    44   21   56 1   
    45   21   57 1   
    46   21   58 1   
    47   22   59 1   
    48   22   60 1   
    49   22   61 1   
    50   23   24 1   
    51   23   62 1   
    52   23   63 1   
    53   24   25 1   
    54   24   64 1   
    55   24   65 1   
    56   25   26 1   
    57   26   27 ar  
    58   26   28 ar  
    59   27   32 ar  
    60   28   29 ar  
    61   28   66 1   
    62   29   30 1   
    63   29   31 ar  
    64   30   67 1   
    65   30   68 1   
    66   30   69 1   
    67   31   32 ar  
    68   32   33 1   
    69   33   34 1   
    70   33   37 1   
    71   34   35 2   
    72   34   70 1   
    73   35   36 1   
    74   35   71 1   
    75   36   37 2   
    76   37   72 1   
@<TRIPOS>SUBSTRUCTURE
     1 R86         1 TEMP              0 ****  ****    0 ROOT
