@<TRIPOS>MOLECULE
R86
   73    76     1     0     0
SMALL
bcc


@<TRIPOS>ATOM
      1 C48         2.9980    2.9440   -0.6860 c3        1 R86      0.108700
      2 O47         4.0240    2.9740    0.3030 os        1 R86     -0.314900
      3 C44         4.0760    1.9070    1.1680 ca        1 R86      0.158100
      4 C45         3.1680    0.8400    1.1740 ca        1 R86     -0.177000
      5 C46         3.3240   -0.1820    2.1080 ca        1 R86     -0.079500
      6 C43         5.1400    1.9480    2.0940 ca        1 R86     -0.177000
      7 C42         5.2780    0.9200    3.0140 ca        1 R86     -0.079500
      8 C41         4.3700   -0.1500    3.0330 ca        1 R86     -0.172300
      9 C38         4.5430   -1.2540    4.0130 c3        1 R86     -0.037100
     10 C37         3.8990   -0.8440    5.3390 c3        1 R86      0.103800
     11 N35         4.0990   -1.8470    6.4280 n4        1 R86     -0.680800
     12 C33         5.5250   -1.8530    6.9420 c         1 R86      0.580100
     13 O34         6.2300   -2.7490    6.5030 o         1 R86     -0.431100
     14 C32         5.8740   -0.7520    7.8910 c3        1 R86     -0.176400
     15 C25         7.1280   -1.1110    8.7230 c3        1 R86      0.096700
     16 C26         6.9120   -2.4180    9.5300 c3        1 R86      0.173800
     17 N24         7.5070   -0.0130    9.5950 n         1 R86     -0.492800
     18 C27         8.0890    1.1220    9.0210 c         1 R86      0.672100
     19 O28         8.0170    1.2470    7.7820 o         1 R86     -0.608100
     20 C29         8.7580    2.1700    9.9010 c3        1 R86     -0.119700
     21 C31         9.8840    2.8270    9.1260 c3        1 R86     -0.094600
     22 C30         7.7300    3.1970   10.3300 c3        1 R86     -0.094600
     23 C23         7.5150   -0.2700   11.0130 c3        1 R86      0.081000
     24 C22         6.3390   -1.1390   11.5170 c3        1 R86      0.178800
     25 N21         6.0260   -2.2750   10.6610 nh        1 R86     -0.740300
     26 C13         4.6660   -2.6280   10.5630 ca        1 R86      0.696200
     27 N12         4.1350   -3.0320    9.3620 nb        1 R86     -0.854000
     28 C14         3.8650   -2.6250   11.7460 ca        1 R86     -0.405600
     29 C15         2.5400   -3.0860   11.6570 ca        1 R86      0.509600
     30 C17         1.6890   -3.1040   12.8850 c3        1 R86     -0.166400
     31 N16         2.0100   -3.5410   10.4910 nb        1 R86     -0.718000
     32 C11         2.8430   -3.5130    9.4000 ca        1 R86      0.766500
     33 N3          2.3190   -3.9900    8.1680 na        1 R86     -0.286700
     34 C4          3.0570   -4.6280    7.1470 cc        1 R86     -0.308600
     35 C5          2.1120   -5.0420    6.1990 cd        1 R86      0.325200
     36 NFE         0.8210   -4.6900    6.6140 nd        1 R86     -0.651000
     37 C2          0.9550   -4.0900    7.8060 cc        1 R86      0.457400
     38 H481        3.1780    3.8840   -1.2690 h1        1 R86      0.054700
     39 H482        1.9900    2.9640   -0.2060 h1        1 R86      0.054700
     40 H483        3.1080    2.0460   -1.3400 h1        1 R86      0.054700
     41 H45         2.3420    0.7960    0.4500 ha        1 R86      0.159000
     42 H46         2.6160   -1.0260    2.1040 ha        1 R86      0.134000
     43 H43         5.8480    2.7900    2.0660 ha        1 R86      0.159000
     44 H42         6.1160    0.9420    3.7280 ha        1 R86      0.134000
     45 H381        4.0620   -2.1930    3.6280 hc        1 R86      0.071700
     46 H382        5.6360   -1.4680    4.1640 hc        1 R86      0.071700
     47 H371        2.7880   -0.7180    5.1910 hx        1 R86      0.104200
     48 H372        4.3310    0.1390    5.6850 hx        1 R86      0.104200
     49 HN35        3.8680   -2.7900    6.0710 hn        1 R86      0.466300
     50 H321        6.1080    0.1700    7.2780 hc        1 R86      0.115200
     51 H322        5.0140   -0.5130    8.5710 hc        1 R86      0.115200
     52 H25         7.9660   -1.3000    7.9830 h1        1 R86      0.095700
     53 H261        7.9120   -2.7390    9.9510 h1        1 R86      0.091700
     54 H262        6.5730   -3.2320    8.8340 h1        1 R86      0.091700
     55 H29         9.2010    1.6790   10.8130 hc        1 R86      0.066700
     56 H311        9.4940    3.2890    8.1860 hc        1 R86      0.053033
     57 H312       10.3560    3.6220    9.7520 hc        1 R86      0.053033
     58 H313       10.6600    2.0740    8.8520 hc        1 R86      0.053033
     59 H301        6.9030    2.7210   10.9090 hc        1 R86      0.053033
     60 H302        7.2930    3.7080    9.4370 hc        1 R86      0.053033
     61 H303        8.2180    3.9690   10.9740 hc        1 R86      0.053033
     62 H231        8.4830   -0.7760   11.2980 h1        1 R86      0.068200
     63 H232        7.4530    0.7090   11.5700 h1        1 R86      0.068200
     64 H221        6.6290   -1.5460   12.5290 h1        1 R86      0.068700
     65 H222        5.4320   -0.4830   11.6510 h1        1 R86      0.068700
     66 H14         4.2770   -2.3010   12.7110 ha        1 R86      0.174000
     67 H171        1.5410   -4.1610   13.2240 hc        1 R86      0.075700
     68 H172        0.6820   -2.6590   12.6830 hc        1 R86      0.075700
     69 H173        2.1820   -2.5280   13.7060 hc        1 R86      0.075700
     70 H4          4.1280   -4.8150    7.2300 h4        1 R86      0.198000
     71 H5          2.2760   -5.5780    5.2610 h4        1 R86      0.063100
     72 H2          0.1440   -3.7130    8.4450 h5        1 R86      0.095100
     73 H352        3.4670   -1.6330    7.2060 hn        1 R86      0.466300
@<TRIPOS>BOND
     1    1    2 1   
     2    1   38 1   
     3    1   39 1   
     4    1   40 1   
     5    2    3 1   
     6    3    4 ar  
     7    3    6 ar  
     8    4    5 ar  
     9    4   41 1   
    10    5    8 ar  
    11    5   42 1   
    12    6    7 ar  
    13    6   43 1   
    14    7    8 ar  
    15    7   44 1   
    16    8    9 1   
    17    9   10 1   
    18    9   45 1   
    19    9   46 1   
    20   10   11 1   
    21   10   47 1   
    22   10   48 1   
    23   11   12 1   
    24   11   49 1   
    25   11   73 1   
    26   12   13 2   
    27   12   14 1   
    28   14   15 1   
    29   14   50 1   
    30   14   51 1   
    31   15   16 1   
    32   15   17 1   
    33   15   52 1   
    34   16   25 1   
    35   16   53 1   
    36   16   54 1   
    37   17   18 1   
    38   17   23 1   
    39   18   19 2   
    40   18   20 1   
    41   20   21 1   
    42   20   22 1   
    43   20   55 1   
    44   21   56 1   
    45   21   57 1   
    46   21   58 1   
    47   22   59 1   
    48   22   60 1   
    49   22   61 1   
    50   23   24 1   
    51   23   62 1   
    52   23   63 1   
    53   24   25 1   
    54   24   64 1   
    55   24   65 1   
    56   25   26 1   
    57   26   27 ar  
    58   26   28 ar  
    59   27   32 ar  
    60   28   29 ar  
    61   28   66 1   
    62   29   30 1   
    63   29   31 ar  
    64   30   67 1   
    65   30   68 1   
    66   30   69 1   
    67   31   32 ar  
    68   32   33 1   
    69   33   34 1   
    70   33   37 1   
    71   34   35 2   
    72   34   70 1   
    73   35   36 1   
    74   35   71 1   
    75   36   37 2   
    76   37   72 1   
@<TRIPOS>SUBSTRUCTURE
     1 R86         1 TEMP              0 ****  ****    0 ROOT
