@<TRIPOS>MOLECULE
R86
   72    75     1     0     0
SMALL
bcc


@<TRIPOS>ATOM
      1 C48         4.0340    1.9900   13.3680 c3        1 R86      0.113700
      2 O47         4.5670    1.3490   12.2160 os        1 R86     -0.326900
      3 C44         3.7270    1.2640   11.1220 ca        1 R86      0.124100
      4 C45         2.4170    1.7540   11.0870 ca        1 R86     -0.178000
      5 C46         1.6660    1.6060    9.9210 ca        1 R86     -0.092500
      6 C43         4.2850    0.6290    9.9960 ca        1 R86     -0.178000
      7 C42         3.5210    0.4930    8.8460 ca        1 R86     -0.092500
      8 C41         2.2050    0.9790    8.7960 ca        1 R86     -0.117300
      9 C38         1.4060    0.8350    7.5510 c3        1 R86     -0.056100
     10 C37         0.9750   -0.6270    7.3610 c3        1 R86      0.089000
     11 N35         0.1870   -0.8630    6.1840 n         1 R86     -0.570900
     12 C33         0.6930   -1.4810    5.0560 c         1 R86      0.664100
     13 O34         1.8480   -1.9520    5.0430 o         1 R86     -0.615100
     14 C32        -0.2490   -1.5930    3.8710 c3        1 R86     -0.170400
     15 C25         0.4490   -2.2430    2.6630 c3        1 R86      0.115700
     16 C26         1.5420   -1.3090    2.0830 c3        1 R86      0.189800
     17 N24        -0.4940   -2.6680    1.6390 n         1 R86     -0.487800
     18 C27        -1.2030   -3.8520    1.8090 c         1 R86      0.663100
     19 O28        -1.1330   -4.4530    2.9000 o         1 R86     -0.597100
     20 C29        -2.0610   -4.3920    0.6670 c3        1 R86     -0.125700
     21 C31        -2.0380   -5.9080    0.7010 c3        1 R86     -0.091100
     22 C30        -3.4760   -3.8730    0.8180 c3        1 R86     -0.091100
     23 C23        -0.5710   -1.8830    0.4380 c3        1 R86      0.086000
     24 C22        -0.2210   -0.3920    0.6390 c3        1 R86      0.190800
     25 N21         0.9970   -0.1590    1.3860 nh        1 R86     -0.760300
     26 C13         1.8720    0.8320    0.9110 ca        1 R86      0.706200
     27 N12         3.2200    0.7040    1.1280 nb        1 R86     -0.777000
     28 C14         1.3420    1.9980    0.2740 ca        1 R86     -0.442600
     29 C15         2.2420    3.0040   -0.1120 ca        1 R86      0.496600
     30 C17         1.7120    4.2340   -0.7790 c3        1 R86     -0.156400
     31 N16         3.5770    2.9110    0.1000 nb        1 R86     -0.753000
     32 C11         4.0110    1.7580    0.7250 ca        1 R86      0.790500
     33 N3          5.4010    1.6410    0.9620 na        1 R86     -0.259700
     34 C4          6.0610    0.5820    1.6180 cc        1 R86     -0.211600
     35 C5          7.4200    0.9150    1.6080 cd        1 R86      0.288200
     36 NFE         7.6160    2.1480    0.9660 nd        1 R86     -0.667000
     37 C2          6.4040    2.5710    0.5860 cc        1 R86      0.436400
     38 H481        3.7670    3.0510   13.1420 h1        1 R86      0.044033
     39 H482        4.8760    1.9430   14.1050 h1        1 R86      0.044033
     40 H483        3.1440    1.4350   13.7520 h1        1 R86      0.044033
     41 H45         1.9740    2.2510   11.9600 ha        1 R86      0.143500
     42 H46         0.6360    1.9930    9.8930 ha        1 R86      0.135500
     43 H43         5.3170    0.2520   10.0440 ha        1 R86      0.143500
     44 H42         3.9500   -0.0010    7.9600 ha        1 R86      0.135500
     45 H381        2.0230    1.1640    6.6720 hc        1 R86      0.050200
     46 H382        0.5020    1.4970    7.5930 hc        1 R86      0.050200
     47 H371        1.8980   -1.2740    7.3170 h1        1 R86      0.067200
     48 H372        0.3660   -0.9410    8.2570 h1        1 R86      0.067200
     49 HN35       -0.6920   -0.4090    6.1280 hn        1 R86      0.304500
     50 H321       -1.1180   -2.2380    4.1780 hc        1 R86      0.078700
     51 H322       -0.6390   -0.5790    3.5960 hc        1 R86      0.078700
     52 H25         0.9870   -3.1650    3.0510 h1        1 R86      0.105700
     53 H261        2.1710   -0.9480    2.9480 h1        1 R86      0.078700
     54 H262        2.2020   -1.9160    1.3990 h1        1 R86      0.078700
     55 H29        -1.6450   -4.0600   -0.3250 hc        1 R86      0.057700
     56 H311       -2.3920   -6.2790    1.6940 hc        1 R86      0.046700
     57 H312       -1.0000   -6.2840    0.5360 hc        1 R86      0.046700
     58 H313       -2.7030   -6.3140   -0.0980 hc        1 R86      0.046700
     59 H301       -3.4980   -2.7570    0.7720 hc        1 R86      0.046700
     60 H302       -3.9050   -4.1970    1.7980 hc        1 R86      0.046700
     61 H303       -4.1170   -4.2770   -0.0020 hc        1 R86      0.046700
     62 H231       -1.6200   -1.9140    0.0250 h1        1 R86      0.049200
     63 H232        0.1250   -2.3160   -0.3390 h1        1 R86      0.049200
     64 H221       -0.1700    0.0680   -0.3890 h1        1 R86      0.056700
     65 H222       -1.0580    0.1110    1.2060 h1        1 R86      0.056700
     66 H14         0.2660    2.1260    0.1130 ha        1 R86      0.154000
     67 H171        2.1830    4.3660   -1.7840 hc        1 R86      0.060700
     68 H172        0.6050    4.1580   -0.9060 hc        1 R86      0.060700
     69 H173        1.9430    5.1380   -0.1610 hc        1 R86      0.060700
     70 H4          5.5290   -0.2790    2.0210 h4        1 R86      0.199000
     71 H5          8.2590    0.3540    2.0180 h4        1 R86      0.046100
     72 H2          6.1730    3.5030    0.0550 h5        1 R86      0.081100
@<TRIPOS>BOND
     1    1    2 1   
     2    1   38 1   
     3    1   39 1   
     4    1   40 1   
     5    2    3 1   
     6    3    4 ar  
     7    3    6 ar  
     8    4    5 ar  
     9    4   41 1   
    10    5    8 ar  
    11    5   42 1   
    12    6    7 ar  
    13    6   43 1   
    14    7    8 ar  
    15    7   44 1   
    16    8    9 1   
    17    9   10 1   
    18    9   45 1   
    19    9   46 1   
    20   10   11 1   
    21   10   47 1   
    22   10   48 1   
    23   11   12 1   
    24   11   49 1   
    25   12   13 2   
    26   12   14 1   
    27   14   15 1   
    28   14   50 1   
    29   14   51 1   
    30   15   16 1   
    31   15   17 1   
    32   15   52 1   
    33   16   25 1   
    34   16   53 1   
    35   16   54 1   
    36   17   18 1   
    37   17   23 1   
    38   18   19 2   
    39   18   20 1   
    40   20   21 1   
    41   20   22 1   
    42   20   55 1   
    43   21   56 1   
    44   21   57 1   
    45   21   58 1   
    46   22   59 1   
    47   22   60 1   
    48   22   61 1   
    49   23   24 1   
    50   23   62 1   
    51   23   63 1   
    52   24   25 1   
    53   24   64 1   
    54   24   65 1   
    55   25   26 1   
    56   26   27 ar  
    57   26   28 ar  
    58   27   32 ar  
    59   28   29 ar  
    60   28   66 1   
    61   29   30 1   
    62   29   31 ar  
    63   30   67 1   
    64   30   68 1   
    65   30   69 1   
    66   31   32 ar  
    67   32   33 1   
    68   33   34 1   
    69   33   37 1   
    70   34   35 2   
    71   34   70 1   
    72   35   36 1   
    73   35   71 1   
    74   36   37 2   
    75   37   72 1   
@<TRIPOS>SUBSTRUCTURE
     1 R86         1 TEMP              0 ****  ****    0 ROOT
