@<TRIPOS>MOLECULE
R88
   47    49     1     0     0
SMALL
bcc


@<TRIPOS>ATOM
      1 C1A         1.1530    0.0920    3.7510 ca        1 R88     -0.152600
      2 C1          2.1120    0.7940    2.8630 c         1 R88      0.591300
      3 O2          3.1530    1.2860    3.3200 o         1 R88     -0.528100
      4 C1B         1.7820    0.8850    1.4270 ca        1 R88     -0.210600
      5 C6B         2.3200    1.9430    0.6750 ca        1 R88     -0.048000
      6 C5B         2.0470    2.0590   -0.6800 ca        1 R88     -0.198500
      7 C4B         1.2340    1.0910   -1.3040 ca        1 R88      0.159100
      8 C2C         0.2190    0.3160   -3.3210 c3        1 R88      0.161600
      9 C3C         0.1470    0.7390   -4.7450 c2        1 R88     -0.185200
     10 C4C        -0.5280    0.0380   -5.6590 c2        1 R88     -0.156200
     11 C5C        -0.6540    0.4950   -7.0780 c3        1 R88      0.203000
     12 N1D        -0.6620   -0.6020   -8.0400 n3        1 R88     -0.713600
     13 C1F         0.5750   -1.3490   -8.0700 c3        1 R88      0.160100
     14 C1E        -1.0620   -0.1520   -9.3520 cx        1 R88      0.104500
     15 C2E        -1.7990   -1.0900  -10.2890 cx        1 R88     -0.121400
     16 C3B         0.7050    0.0220   -0.5680 ca        1 R88     -0.198500
     17 C2B         0.9820   -0.0710    0.7940 ca        1 R88     -0.048000
     18 C6A         1.6450   -0.6860    4.8050 ca        1 R88     -0.089500
     19 C5A         0.7650   -1.3420    5.6650 ca        1 R88     -0.116000
     20 C4A        -0.6150   -1.2110    5.4840 ca        1 R88     -0.007900
     21 O1C         1.0250    1.2980   -2.6490 os        1 R88     -0.324900
     22 C3E        -2.5270    0.0680   -9.6760 cx        1 R88     -0.121400
     23 BR23       -1.8000   -2.0890    6.6380 br        1 R88     -0.081100
     24 C3A        -1.1100   -0.4200    4.4420 ca        1 R88     -0.116000
     25 C2A        -0.2290    0.2260    3.5780 ca        1 R88     -0.089500
     26 H6          2.9680    2.6810    1.1760 ha        1 R88      0.149500
     27 H5          2.4570    2.8860   -1.2760 ha        1 R88      0.149000
     28 H151       -0.8010    0.2920   -2.8500 h1        1 R88      0.050200
     29 H152        0.7050   -0.6920   -3.2200 h1        1 R88      0.050200
     30 H16         0.6840    1.6710   -4.9890 ha        1 R88      0.147000
     31 H17        -1.0550   -0.8950   -5.4020 ha        1 R88      0.135000
     32 H201        0.1630    1.2430   -7.3100 h1        1 R88      0.042700
     33 H202       -1.6430    1.0330   -7.1770 h1        1 R88      0.042700
     34 H271        0.4560   -2.2110   -8.7780 h1        1 R88      0.033367
     35 H272        1.4590   -0.7360   -8.3990 h1        1 R88      0.033367
     36 H273        0.7770   -1.7440   -7.0400 h1        1 R88      0.033367
     37 H25        -0.3370    0.5540   -9.8240 h1        1 R88      0.056700
     38 H261       -1.5350   -1.0580  -11.3610 hc        1 R88      0.073950
     39 H262       -2.0440   -2.1120   -9.9500 hc        1 R88      0.073950
     40 H3          0.0780   -0.7430   -1.0460 ha        1 R88      0.149000
     41 H2          0.5710   -0.9140    1.3730 ha        1 R88      0.149500
     42 H13         2.7330   -0.7680    4.9560 ha        1 R88      0.152000
     43 H12         1.1660   -1.9560    6.4860 ha        1 R88      0.151000
     44 H3E1       -3.2890   -0.1330   -8.9030 hc        1 R88      0.073950
     45 H3E2       -2.7910    0.9360  -10.3050 hc        1 R88      0.073950
     46 H10        -2.1960   -0.3020    4.2980 ha        1 R88      0.151000
     47 H9         -0.6220    0.8490    2.7590 ha        1 R88      0.152000
@<TRIPOS>BOND
     1    1    2 1   
     2    1   18 ar  
     3    1   25 ar  
     4    2    3 2   
     5    2    4 1   
     6    4    5 ar  
     7    4   17 ar  
     8    5    6 ar  
     9    5   26 1   
    10    6    7 ar  
    11    6   27 1   
    12    7   16 ar  
    13    7   21 1   
    14    8    9 1   
    15    8   21 1   
    16    8   28 1   
    17    8   29 1   
    18    9   10 2   
    19    9   30 1   
    20   10   11 1   
    21   10   31 1   
    22   11   12 1   
    23   11   32 1   
    24   11   33 1   
    25   12   13 1   
    26   12   14 1   
    27   13   34 1   
    28   13   35 1   
    29   13   36 1   
    30   14   15 1   
    31   14   22 1   
    32   14   37 1   
    33   15   22 1   
    34   15   38 1   
    35   15   39 1   
    36   16   17 ar  
    37   16   40 1   
    38   17   41 1   
    39   18   19 ar  
    40   18   42 1   
    41   19   20 ar  
    42   19   43 1   
    43   20   23 1   
    44   20   24 ar  
    45   22   44 1   
    46   22   45 1   
    47   24   25 ar  
    48   24   46 1   
    49   25   47 1   
@<TRIPOS>SUBSTRUCTURE
     1 R88         1 TEMP              0 ****  ****    0 ROOT
