@<TRIPOS>MOLECULE
R8D
   40    43     1     0     0
SMALL
bcc


@<TRIPOS>ATOM
      1 CL28        0.6610   -0.2740    1.2870 cl        1 R8D     -0.065400
      2 C13         2.2940   -0.2060    0.8360 ca        1 R8D     -0.028600
      3 C8          3.3040   -0.7850    1.6270 ca        1 R8D      0.112100
      4 O7          2.9970   -1.5640    2.7440 os        1 R8D     -0.238200
      5 C4          2.7140   -0.8700    3.9150 ca        1 R8D      0.127100
      6 C3          3.0440    0.4720    4.1240 ca        1 R8D     -0.149000
      7 C2          2.7540    1.0510    5.3670 ca        1 R8D      0.023000
      8 C25         3.0800    2.4170    5.5960 cg        1 R8D      0.231800
      9 N26         3.3460    3.5340    5.7820 n1        1 R8D     -0.352800
     10 C5          2.1050   -1.6430    4.9180 ca        1 R8D     -0.123000
     11 C6          1.8340   -1.0410    6.1470 ca        1 R8D      0.035400
     12 CL27        1.1020   -1.9540    7.3780 cl        1 R8D     -0.074400
     13 C1          2.1510    0.3010    6.3830 ca        1 R8D     -0.116000
     14 C12         2.6490    0.4370   -0.3530 ca        1 R8D     -0.081000
     15 C11         3.9810    0.5100   -0.7540 ca        1 R8D     -0.199000
     16 C10         4.9760   -0.0720    0.0420 ca        1 R8D      0.139100
     17 C9          4.6450   -0.7230    1.2440 ca        1 R8D     -0.149000
     18 O14         6.3250   -0.0570   -0.2430 os        1 R8D     -0.311900
     19 C15         6.6890    0.5430   -1.4980 c3        1 R8D      0.129100
     20 C16         8.1600    0.3920   -1.6310 cc        1 R8D      0.329900
     21 N20         8.8000   -0.7840   -1.8640 nd        1 R8D     -0.468100
     22 N19        10.1080   -0.5500   -1.9540 na        1 R8D     -0.106800
     23 C18        10.4110    0.8130   -1.7550 ca        1 R8D      0.415800
     24 N24        11.6210    1.4480   -1.7590 nb        1 R8D     -0.657000
     25 C23        11.5490    2.7650   -1.5450 ca        1 R8D      0.428200
     26 C22        10.3510    3.5010   -1.3260 ca        1 R8D     -0.272300
     27 C21         9.1270    2.8500   -1.3260 ca        1 R8D     -0.028000
     28 C17         9.1290    1.4710   -1.5440 ca        1 R8D     -0.302200
     29 H3          3.5190    1.0620    3.3260 ha        1 R8D      0.162000
     30 H5          1.8570   -2.6970    4.7220 ha        1 R8D      0.172000
     31 H1          1.9290    0.7650    7.3570 ha        1 R8D      0.162000
     32 H12         1.8680    0.8920   -0.9830 ha        1 R8D      0.154000
     33 H11         4.2310    1.0210   -1.6940 ha        1 R8D      0.146000
     34 H9          5.4300   -1.1870    1.8600 ha        1 R8D      0.174000
     35 H15         6.1480    0.0230   -2.3340 h1        1 R8D      0.057200
     36 H15A        6.4200    1.6330   -1.4780 h1        1 R8D      0.057200
     37 HN19       10.7550   -1.2970   -2.0650 hn        1 R8D      0.340700
     38 H23        12.5230    3.2910   -1.5430 h4        1 R8D      0.028100
     39 H22        10.4140    4.5840   -1.1580 ha        1 R8D      0.149000
     40 H21         8.1860    3.3930   -1.1570 ha        1 R8D      0.144000
@<TRIPOS>BOND
     1    1    2 1   
     2    2    3 ar  
     3    2   14 ar  
     4    3    4 1   
     5    3   17 ar  
     6    4    5 1   
     7    5    6 ar  
     8    5   10 ar  
     9    6    7 ar  
    10    6   29 1   
    11    7    8 1   
    12    7   13 ar  
    13    8    9 3   
    14   10   11 ar  
    15   10   30 1   
    16   11   12 1   
    17   11   13 ar  
    18   13   31 1   
    19   14   15 ar  
    20   14   32 1   
    21   15   16 ar  
    22   15   33 1   
    23   16   17 ar  
    24   16   18 1   
    25   17   34 1   
    26   18   19 1   
    27   19   20 1   
    28   19   35 1   
    29   19   36 1   
    30   20   21 2   
    31   20   28 1   
    32   21   22 1   
    33   22   23 1   
    34   22   37 1   
    35   23   24 ar  
    36   23   28 ar  
    37   24   25 ar  
    38   25   26 ar  
    39   25   38 1   
    40   26   27 ar  
    41   26   39 1   
    42   27   28 ar  
    43   27   40 1   
@<TRIPOS>SUBSTRUCTURE
     1 R8D         1 TEMP              0 ****  ****    0 ROOT
