@<TRIPOS>MOLECULE
R8D
   40    43     1     0     0
SMALL
bcc


@<TRIPOS>ATOM
      1 CL28       -3.4790   -2.7400   -0.1680 cl        1 R8D     -0.065400
      2 C13        -1.8950   -2.1820    0.0610 ca        1 R8D     -0.028600
      3 C8         -1.6240   -0.9920    0.7620 ca        1 R8D      0.112100
      4 O7         -2.6350   -0.2910    1.4230 os        1 R8D     -0.238200
      5 C4         -3.4130    0.5500    0.6360 ca        1 R8D      0.127100
      6 C3         -3.0430    0.9840   -0.6400 ca        1 R8D     -0.149000
      7 C2         -3.8860    1.8730   -1.3200 ca        1 R8D      0.023000
      8 C25        -3.5270    2.3230   -2.6210 cg        1 R8D      0.231800
      9 N26        -3.2340    2.6890   -3.6850 n1        1 R8D     -0.352800
     10 C5         -4.6010    0.9870    1.2460 ca        1 R8D     -0.123000
     11 C6         -5.4170    1.8770    0.5480 ca        1 R8D      0.035400
     12 CL27       -6.8570    2.4240    1.2640 cl        1 R8D     -0.074400
     13 C1         -5.0740    2.3260   -0.7320 ca        1 R8D     -0.116000
     14 C12        -0.8280   -2.9220   -0.4550 ca        1 R8D     -0.081000
     15 C11         0.4860   -2.4940   -0.2830 ca        1 R8D     -0.199000
     16 C10         0.7420   -1.3080    0.4170 ca        1 R8D      0.139100
     17 C9         -0.3150   -0.5430    0.9450 ca        1 R8D     -0.149000
     18 O14         1.9940   -0.7770    0.6430 os        1 R8D     -0.311900
     19 C15         3.0990   -1.5690    0.1740 c3        1 R8D      0.129100
     20 C16         4.3360   -0.8530    0.5770 cc        1 R8D      0.329900
     21 N20         4.7890   -0.7480    1.8530 nd        1 R8D     -0.468100
     22 N19         5.9340   -0.0680    1.8470 na        1 R8D     -0.106800
     23 C18         6.2920    0.3440    0.5460 ca        1 R8D      0.415800
     24 N24         7.3760    1.0610    0.1240 nb        1 R8D     -0.657000
     25 C23         7.4140    1.2700   -1.1960 ca        1 R8D      0.428200
     26 C22         6.4460    0.8120   -2.1320 ca        1 R8D     -0.272300
     27 C21         5.3500    0.0830   -1.6960 ca        1 R8D     -0.028000
     28 C17         5.2470   -0.1720   -0.3280 ca        1 R8D     -0.302200
     29 H3         -2.1100    0.6300   -1.1030 ha        1 R8D      0.162000
     30 H5         -4.8640    0.6260    2.2520 ha        1 R8D      0.172000
     31 H1         -5.7290    3.0260   -1.2730 ha        1 R8D      0.162000
     32 H12        -1.0260   -3.8570   -1.0030 ha        1 R8D      0.154000
     33 H11         1.3060   -3.0960   -0.7000 ha        1 R8D      0.146000
     34 H9         -0.1080    0.3820    1.5030 ha        1 R8D      0.174000
     35 H15         3.0500   -2.5920    0.6360 h1        1 R8D      0.057200
     36 H15A        3.0510   -1.6440   -0.9460 h1        1 R8D      0.057200
     37 HN19        6.3950    0.1650    2.6960 hn        1 R8D      0.340700
     38 H23         8.2860    1.8520   -1.5500 h4        1 R8D      0.028100
     39 H22         6.5800    1.0470   -3.1960 ha        1 R8D      0.149000
     40 H21         4.5850   -0.2810   -2.3970 ha        1 R8D      0.144000
@<TRIPOS>BOND
     1    1    2 1   
     2    2    3 ar  
     3    2   14 ar  
     4    3    4 1   
     5    3   17 ar  
     6    4    5 1   
     7    5    6 ar  
     8    5   10 ar  
     9    6    7 ar  
    10    6   29 1   
    11    7    8 1   
    12    7   13 ar  
    13    8    9 3   
    14   10   11 ar  
    15   10   30 1   
    16   11   12 1   
    17   11   13 ar  
    18   13   31 1   
    19   14   15 ar  
    20   14   32 1   
    21   15   16 ar  
    22   15   33 1   
    23   16   17 ar  
    24   16   18 1   
    25   17   34 1   
    26   18   19 1   
    27   19   20 1   
    28   19   35 1   
    29   19   36 1   
    30   20   21 2   
    31   20   28 1   
    32   21   22 1   
    33   22   23 1   
    34   22   37 1   
    35   23   24 ar  
    36   23   28 ar  
    37   24   25 ar  
    38   25   26 ar  
    39   25   38 1   
    40   26   27 ar  
    41   26   39 1   
    42   27   28 ar  
    43   27   40 1   
@<TRIPOS>SUBSTRUCTURE
     1 R8D         1 TEMP              0 ****  ****    0 ROOT
