@<TRIPOS>MOLECULE
R8D
   40    43     1     0     0
SMALL
bcc


@<TRIPOS>ATOM
      1 Cl28        0.0000    0.0000    0.0000 cl        1 R8D     -0.003400
      2 C13         1.7360    0.0000    0.0000 ca        1 R8D     -0.115600
      3 C8          2.4300    0.0000    1.2020 ca        1 R8D      0.183100
      4 O7          1.7520   -0.0000    2.3790 os        1 R8D     -0.210200
      5 C4          2.4720    0.0110    3.5320 ca        1 R8D      0.116100
      6 C3          2.8280    1.2170    4.1130 ca        1 R8D     -0.092000
      7 C2          3.5680    1.2240    5.2970 ca        1 R8D      0.055000
      8 C25         3.9380    2.4670    5.9040 cg        1 R8D      0.223800
      9 N26         4.2420    3.4440    6.4000 n1        1 R8D     -0.363800
     10 C5          2.8480   -1.1860    4.1280 ca        1 R8D     -0.098000
     11 C6          3.5810   -1.1800    5.3020 ca        1 R8D     -0.030600
     12 Cl27        4.0450   -2.6810    6.0390 cl        1 R8D      0.001600
     13 C1          3.9450    0.0170    5.8870 ca        1 R8D     -0.077000
     14 C12         2.4280   -0.0060   -1.1980 ca        1 R8D     -0.015000
     15 C11         3.8090   -0.0060   -1.2000 ca        1 R8D     -0.240000
     16 C10         4.5060   -0.0010   -0.0010 ca        1 R8D      0.197100
     17 C9          3.8170   -0.0000    1.2010 ca        1 R8D     -0.236000
     18 O14         5.8660   -0.0020   -0.0070 os        1 R8D     -0.297900
     19 C15         6.5110   -0.0070   -1.2810 c3        1 R8D      0.213100
     20 C16         8.0050   -0.0070   -1.0890 cc        1 R8D      0.378900
     21 N20         8.7670   -1.0590   -0.9860 nd        1 R8D     -0.599100
     22 N19        10.1000   -0.6710   -0.8150 na        1 R8D      0.326200
     23 C18        10.1760    0.6950   -0.8120 ca        1 R8D      0.270800
     24 N24        11.1780    1.5560   -0.6870 nb        1 R8D     -0.588000
     25 C23        10.9750    2.8550   -0.7170 ca        1 R8D      0.449200
     26 C22         9.7050    3.3890   -0.8840 ca        1 R8D     -0.268300
     27 C21         8.6300    2.5500   -1.0190 ca        1 R8D      0.017000
     28 C17         8.8600    1.1710   -0.9890 ca        1 R8D     -0.362200
     29 H3          2.4980    2.1490    3.6710 ha        1 R8D      0.131000
     30 H5          2.5290   -2.1280    3.6980 ha        1 R8D      0.133000
     31 H1          4.5190    0.0190    6.8060 ha        1 R8D      0.127000
     32 H12         1.8860   -0.0100   -2.1360 ha        1 R8D      0.115000
     33 H11         4.3480   -0.0100   -2.1400 ha        1 R8D      0.126000
     34 H9          4.3600   -0.0000    2.1390 ha        1 R8D      0.140000
     35 H15         6.2170   -0.8940   -1.8300 h1        1 R8D      0.013200
     36 H15A        6.2180    0.8750   -1.8380 h1        1 R8D      0.013200
     37 HN19       10.8820   -1.2860   -0.7110 hn        1 R8D      0.159700
     38 H23        11.8110    3.5360   -0.6130 h4        1 R8D     -0.019900
     39 H22         9.5680    4.4630   -0.9050 ha        1 R8D      0.118000
     40 H21         7.6350    2.9600   -1.1490 ha        1 R8D      0.108000
@<TRIPOS>BOND
     1    1    2 1   
     2    2    3 ar  
     3    2   14 ar  
     4    3    4 1   
     5    3   17 ar  
     6    4    5 1   
     7    5    6 ar  
     8    5   10 ar  
     9    6    7 ar  
    10    6   29 1   
    11    7    8 1   
    12    7   13 ar  
    13    8    9 3   
    14   10   11 ar  
    15   10   30 1   
    16   11   12 1   
    17   11   13 ar  
    18   13   31 1   
    19   14   15 ar  
    20   14   32 1   
    21   15   16 ar  
    22   15   33 1   
    23   16   17 ar  
    24   16   18 1   
    25   17   34 1   
    26   18   19 1   
    27   19   20 1   
    28   19   35 1   
    29   19   36 1   
    30   20   21 2   
    31   20   28 1   
    32   21   22 1   
    33   22   23 1   
    34   22   37 1   
    35   23   24 ar  
    36   23   28 ar  
    37   24   25 ar  
    38   25   26 ar  
    39   25   38 1   
    40   26   27 ar  
    41   26   39 1   
    42   27   28 ar  
    43   27   40 1   
@<TRIPOS>SUBSTRUCTURE
     1 R8D         1 TEMP              0 ****  ****    0 ROOT
