@<TRIPOS>MOLECULE
R8E
   42    45     1     0     0
SMALL
bcc


@<TRIPOS>ATOM
      1 CL29       -3.9310   -2.6200   -0.3510 cl        1 R8E     -0.066400
      2 C13        -2.3290   -2.1590   -0.0410 ca        1 R8E     -0.028600
      3 C8         -2.0210   -1.0180    0.7230 ca        1 R8E      0.112100
      4 O7         -3.0190   -0.2930    1.3780 os        1 R8E     -0.238200
      5 C4         -3.7100    0.6340    0.6060 ca        1 R8E      0.127100
      6 C3         -3.2600    1.1070   -0.6300 ca        1 R8E     -0.149000
      7 C2         -4.0180    2.0800   -1.2950 ca        1 R8E      0.023000
      8 C26        -3.5780    2.5710   -2.5550 cg        1 R8E      0.232800
      9 N27        -3.2170    2.9710   -3.5860 n1        1 R8E     -0.352800
     10 C5         -4.8940    1.1130    1.1910 ca        1 R8E     -0.123000
     11 C6         -5.6250    2.0860    0.5090 ca        1 R8E      0.035400
     12 CL28       -7.0580    2.6850    1.1950 cl        1 R8E     -0.074400
     13 C1         -5.2000    2.5760   -0.7320 ca        1 R8E     -0.116000
     14 C12        -1.2830   -2.9340   -0.5510 ca        1 R8E     -0.081000
     15 C11         0.0440   -2.5860   -0.3150 ca        1 R8E     -0.199000
     16 C10         0.3360   -1.4460    0.4460 ca        1 R8E      0.140100
     17 C9         -0.6980   -0.6490    0.9700 ca        1 R8E     -0.150000
     18 O14         1.6050   -0.9950    0.7400 os        1 R8E     -0.310900
     19 C15         2.6840   -1.8140    0.2580 c3        1 R8E      0.129100
     20 C16         3.9420   -1.1770    0.7190 cc        1 R8E      0.343900
     21 N20         4.3720   -1.1500    2.0060 nd        1 R8E     -0.481100
     22 N19         5.5530   -0.5310    2.0510 na        1 R8E     -0.115800
     23 C18         5.9540   -0.0760    0.7760 ca        1 R8E      0.463800
     24 N24         7.0760    0.6110    0.4330 nb        1 R8E     -0.737000
     25 C23         7.1890    0.8780   -0.9030 ca        1 R8E      0.672200
     26 N25         8.3580    1.4870   -1.3630 nh        1 R8E     -0.934500
     27 C22         6.1840    0.5010   -1.8750 ca        1 R8E     -0.316300
     28 C21         5.0530   -0.1870   -1.4860 ca        1 R8E      0.003000
     29 C17         4.9040   -0.5030   -0.1350 ca        1 R8E     -0.347200
     30 H3         -2.3310    0.7190   -1.0740 ha        1 R8E      0.162000
     31 H5         -5.2210    0.7200    2.1660 ha        1 R8E      0.172000
     32 H1         -5.7880    3.3420   -1.2610 ha        1 R8E      0.162000
     33 H12        -1.5100   -3.8330   -1.1470 ha        1 R8E      0.154000
     34 H11         0.8460   -3.2140   -0.7280 ha        1 R8E      0.147000
     35 H9         -0.4640    0.2380    1.5770 ha        1 R8E      0.174000
     36 H15         2.5780   -2.8540    0.6710 h1        1 R8E      0.056700
     37 H15A        2.6590   -1.8360   -0.8650 h1        1 R8E      0.056700
     38 HN19        5.9970   -0.3420    2.9200 hn        1 R8E      0.336700
     39 HN25        8.9600    1.8890   -0.6810 hn        1 R8E      0.414800
     40 HN2A        8.2520    2.0150   -2.1980 hn        1 R8E      0.414800
     41 H22         6.3370    0.7600   -2.9320 ha        1 R8E      0.146000
     42 H21         4.2870   -0.4790   -2.2190 ha        1 R8E      0.142000
@<TRIPOS>BOND
     1    1    2 1   
     2    2    3 ar  
     3    2   14 ar  
     4    3    4 1   
     5    3   17 ar  
     6    4    5 1   
     7    5    6 ar  
     8    5   10 ar  
     9    6    7 ar  
    10    6   30 1   
    11    7    8 1   
    12    7   13 ar  
    13    8    9 3   
    14   10   11 ar  
    15   10   31 1   
    16   11   12 1   
    17   11   13 ar  
    18   13   32 1   
    19   14   15 ar  
    20   14   33 1   
    21   15   16 ar  
    22   15   34 1   
    23   16   17 ar  
    24   16   18 1   
    25   17   35 1   
    26   18   19 1   
    27   19   20 1   
    28   19   36 1   
    29   19   37 1   
    30   20   21 2   
    31   20   29 1   
    32   21   22 1   
    33   22   23 1   
    34   22   38 1   
    35   23   24 ar  
    36   23   29 ar  
    37   24   25 ar  
    38   25   26 1   
    39   25   27 ar  
    40   26   39 1   
    41   26   40 1   
    42   27   28 ar  
    43   27   41 1   
    44   28   29 ar  
    45   28   42 1   
@<TRIPOS>SUBSTRUCTURE
     1 R8E         1 TEMP              0 ****  ****    0 ROOT
