@<TRIPOS>MOLECULE
R8E
   43    46     1     0     0
SMALL
bcc


@<TRIPOS>ATOM
      1 CL29        0.8980    0.6030    1.4340 cl        1 R8E     -0.037400
      2 C13         2.2220    0.4680    0.3920 ca        1 R8E      0.000400
      3 C8          3.3840   -0.2320    0.7540 ca        1 R8E      0.106100
      4 O7          3.4180   -0.9440    1.9550 os        1 R8E     -0.227200
      5 C4          4.1510   -0.3680    2.9860 ca        1 R8E      0.132100
      6 C3          5.1030    0.6360    2.8000 ca        1 R8E     -0.161000
      7 C2          5.8380    1.0850    3.9090 ca        1 R8E     -0.015000
      8 C26         6.8430    2.0680    3.6980 cg        1 R8E      0.331800
      9 N27         7.6750    2.8530    3.4800 n1        1 R8E     -0.495800
     10 C5          3.9040   -0.9150    4.2580 ca        1 R8E     -0.102000
     11 C6          4.6390   -0.4410    5.3450 ca        1 R8E      0.036400
     12 CL28        4.3560   -1.0790    6.8870 cl        1 R8E     -0.040400
     13 C1          5.6110    0.5580    5.1830 ca        1 R8E     -0.100000
     14 C12         2.1580    1.0660   -0.8770 ca        1 R8E     -0.089000
     15 C11         3.2330    0.9950   -1.7520 ca        1 R8E     -0.130000
     16 C10         4.3970    0.3070   -1.3620 ca        1 R8E      0.104100
     17 C9          4.4760   -0.3270   -0.1210 ca        1 R8E     -0.200000
     18 O14         5.4500    0.3770   -2.2610 os        1 R8E     -0.327900
     19 C15         6.4080   -0.6760   -2.2150 c3        1 R8E      0.115100
     20 C16         7.4890   -0.3950   -1.2240 cc        1 R8E      0.325900
     21 N20         8.2870   -1.3510   -0.6830 nd        1 R8E     -0.445100
     22 N19         9.1570   -0.7840    0.1540 na        1 R8E     -0.089800
     23 C18         8.9730    0.6080    0.2220 ca        1 R8E      0.434800
     24 N24         9.6110    1.5330    0.9840 nb        1 R8E     -0.648000
     25 C23         9.1490    2.7950    0.8150 ca        1 R8E      0.498200
     26 N25         9.7710    3.8300    1.6730 n4        1 R8E     -0.814300
     27 C22         8.1220    3.2000   -0.0810 ca        1 R8E     -0.260300
     28 C21         7.4790    2.2310   -0.8510 ca        1 R8E      0.018000
     29 C17         7.8750    0.9080   -0.7040 ca        1 R8E     -0.266200
     30 H3          5.2710    1.0710    1.8050 ha        1 R8E      0.152000
     31 H5          3.1410   -1.7030    4.3750 ha        1 R8E      0.186000
     32 H1          6.1850    0.9200    6.0500 ha        1 R8E      0.167000
     33 H12         1.2410    1.5980   -1.1820 ha        1 R8E      0.168000
     34 H11         3.1870    1.4680   -2.7450 ha        1 R8E      0.166000
     35 H9          5.3630   -0.9030    0.1780 ha        1 R8E      0.158000
     36 H15         5.9160   -1.6650   -2.0110 h1        1 R8E      0.100200
     37 H15A        6.8460   -0.6720   -3.2560 h1        1 R8E      0.100200
     38 HN19        9.8360   -1.3320    0.6380 hn        1 R8E      0.361700
     39 HN25       10.5280    4.2880    1.1560 hn        1 R8E      0.475467
     40 HN2A       10.1490    3.4110    2.5350 hn        1 R8E      0.475467
     41 H22         7.8220    4.2550   -0.1690 ha        1 R8E      0.169000
     42 H21         6.6680    2.5000   -1.5520 ha        1 R8E      0.195000
     43 H253        9.0510    4.5170    1.9290 hn        1 R8E      0.475467
@<TRIPOS>BOND
     1    1    2 1   
     2    2    3 ar  
     3    2   14 ar  
     4    3    4 1   
     5    3   17 ar  
     6    4    5 1   
     7    5    6 ar  
     8    5   10 ar  
     9    6    7 ar  
    10    6   30 1   
    11    7    8 1   
    12    7   13 ar  
    13    8    9 3   
    14   10   11 ar  
    15   10   31 1   
    16   11   12 1   
    17   11   13 ar  
    18   13   32 1   
    19   14   15 ar  
    20   14   33 1   
    21   15   16 ar  
    22   15   34 1   
    23   16   17 ar  
    24   16   18 1   
    25   17   35 1   
    26   18   19 1   
    27   19   20 1   
    28   19   36 1   
    29   19   37 1   
    30   20   21 2   
    31   20   29 1   
    32   21   22 1   
    33   22   23 1   
    34   22   38 1   
    35   23   24 ar  
    36   23   29 ar  
    37   24   25 ar  
    38   25   26 1   
    39   25   27 ar  
    40   26   39 1   
    41   26   40 1   
    42   26   43 1   
    43   27   28 ar  
    44   27   41 1   
    45   28   29 ar  
    46   28   42 1   
@<TRIPOS>SUBSTRUCTURE
     1 R8E         1 TEMP              0 ****  ****    0 ROOT
