@<TRIPOS>MOLECULE
R8E
   42    45     1     0     0
SMALL
bcc


@<TRIPOS>ATOM
      1 Cl29        0.0000    0.0000    0.0000 cl        1 R8E     -0.002400
      2 C13         1.7360    0.0000    0.0000 ca        1 R8E     -0.121600
      3 C8          2.4300    0.0000    1.2030 ca        1 R8E      0.197100
      4 O7          1.7510   -0.0020    2.3800 os        1 R8E     -0.213200
      5 C4          2.4720    0.0100    3.5320 ca        1 R8E      0.104100
      6 C3          2.8260    1.2150    4.1150 ca        1 R8E     -0.109000
      7 C2          3.5660    1.2230    5.2980 ca        1 R8E      0.097000
      8 C26         3.9360    2.4650    5.9060 cg        1 R8E      0.224800
      9 N27         4.2480    3.4470    6.3860 n1        1 R8E     -0.365800
     10 C5          2.8470   -1.1870    4.1280 ca        1 R8E     -0.098000
     11 C6          3.5800   -1.1820    5.3010 ca        1 R8E     -0.056600
     12 Cl28        4.0450   -2.6830    6.0380 cl        1 R8E      0.002600
     13 C1          3.9440    0.0150    5.8870 ca        1 R8E     -0.081000
     14 C12         2.4260   -0.0040   -1.1980 ca        1 R8E     -0.021000
     15 C11         3.8090   -0.0040   -1.2010 ca        1 R8E     -0.230000
     16 C10         4.5070    0.0010   -0.0010 ca        1 R8E      0.187100
     17 C9          3.8160    0.0010    1.2010 ca        1 R8E     -0.238000
     18 O14         5.8660    0.0010   -0.0050 os        1 R8E     -0.286900
     19 C15         6.5110   -0.0040   -1.2810 c3        1 R8E      0.200100
     20 C16         8.0050   -0.0030   -1.0870 cc        1 R8E      0.358900
     21 N20         8.7680   -1.0540   -0.9850 nd        1 R8E     -0.554100
     22 N19        10.1010   -0.6660   -0.8160 na        1 R8E      0.287200
     23 C18        10.1740    0.7000   -0.8120 ca        1 R8E      0.239800
     24 N24        11.1780    1.5620   -0.6860 nb        1 R8E     -0.607000
     25 C23        10.9740    2.8660   -0.7180 ca        1 R8E      0.608200
     26 N25        12.0550    3.7270   -0.5840 nv        1 R8E     -0.672500
     27 C22         9.6930    3.3980   -0.8850 ca        1 R8E     -0.261300
     28 C21         8.6250    2.5560   -1.0190 ca        1 R8E      0.013000
     29 C17         8.8590    1.1750   -0.9880 ca        1 R8E     -0.381200
     30 H3          2.2010    1.8890    3.5420 ha        1 R8E      0.146000
     31 H5          2.6500   -2.2010    3.8000 ha        1 R8E      0.132000
     32 H1          4.5940   -0.1680    6.7350 ha        1 R8E      0.130000
     33 H12         1.8310    0.2280   -2.0720 ha        1 R8E      0.115000
     34 H11         4.2890    0.1180   -2.1640 ha        1 R8E      0.124000
     35 H9          4.5090    0.0640    2.0310 ha        1 R8E      0.144000
     36 H15         6.5540    0.8800   -1.9060 h1        1 R8E      0.024700
     37 H15A        6.1390   -0.8860   -1.7870 h1        1 R8E      0.024700
     38 HN19       11.0830   -0.8540   -0.8450 hn        1 R8E      0.192700
     39 HN25       12.5320    4.3230    0.0640 hn        1 R8E      0.258800
     40 HN2A       12.7650    3.9750   -1.2450 hn        1 R8E      0.258800
     41 H22         9.4640    4.4560   -0.8560 ha        1 R8E      0.123000
     42 H21         7.6000    2.8610   -1.1910 ha        1 R8E      0.107000
@<TRIPOS>BOND
     1    1    2 1   
     2    2    3 ar  
     3    2   14 ar  
     4    3    4 1   
     5    3   17 ar  
     6    4    5 1   
     7    5    6 ar  
     8    5   10 ar  
     9    6    7 ar  
    10    6   30 1   
    11    7    8 1   
    12    7   13 ar  
    13    8    9 3   
    14   10   11 ar  
    15   10   31 1   
    16   11   12 1   
    17   11   13 ar  
    18   13   32 1   
    19   14   15 ar  
    20   14   33 1   
    21   15   16 ar  
    22   15   34 1   
    23   16   17 ar  
    24   16   18 1   
    25   17   35 1   
    26   18   19 1   
    27   19   20 1   
    28   19   36 1   
    29   19   37 1   
    30   20   21 2   
    31   20   29 1   
    32   21   22 1   
    33   22   23 1   
    34   22   38 1   
    35   23   24 ar  
    36   23   29 ar  
    37   24   25 ar  
    38   25   26 1   
    39   25   27 ar  
    40   26   39 1   
    41   26   40 1   
    42   27   28 ar  
    43   27   41 1   
    44   28   29 ar  
    45   28   42 1   
@<TRIPOS>SUBSTRUCTURE
     1 R8E         1 TEMP              0 ****  ****    0 ROOT
