@<TRIPOS>MOLECULE
R8J
   27    29     1     0     0
SMALL
bcc


@<TRIPOS>ATOM
      1 OAA         0.5950    0.5460   -0.3660 o         1 R8J     -0.817800
      2 OAC         1.6670    2.4750    0.0140 o         1 R8J     -0.817800
      3 CAD         9.0200    0.0510    7.3410 cc        1 R8J      0.224200
      4 CAE         1.7730   -0.6400    1.9210 ca        1 R8J     -0.090000
      5 CAF         2.3720   -1.1520    3.0760 ca        1 R8J     -0.220300
      6 CAG         8.0370   -0.1650    6.3620 cd        1 R8J     -0.188600
      7 CAH         2.9090    1.4390    2.3320 ca        1 R8J      0.417200
      8 CAI         4.3340   -0.2460    7.1720 cc        1 R8J      0.044000
      9 NAJ         8.3540    0.1470    8.5820 nc        1 R8J     -0.365000
     10 NAK         3.5030    0.9860    3.4460 nb        1 R8J     -0.691000
     11 NAL         7.1030    0.0100    8.4190 nd        1 R8J     -0.185800
     12 NAM         3.2900   -0.3800    6.2180 na        1 R8J     -0.463000
     13 CAN         1.3810    1.2790    0.2950 c         1 R8J      0.913200
     14 CAO         2.0290    0.6740    1.5330 ca        1 R8J     -0.212900
     15 CAP         3.2310   -0.3020    3.8090 ca        1 R8J      0.415200
     16 CAQ         5.5630   -0.3710    6.5560 cd        1 R8J     -0.178300
     17 CAR         5.2960   -0.7100    5.1090 c         1 R8J      0.686700
     18 NAS         6.8360   -0.1840    7.0950 na        1 R8J      0.143200
     19 NAT         3.8480   -0.8560    5.0110 n         1 R8J     -0.261700
     20 HAD        10.0980    0.1420    7.2530 h4        1 R8J      0.051100
     21 HAE         1.0950   -1.2540    1.3070 ha        1 R8J      0.164000
     22 HAF         2.1860   -2.1850    3.3950 ha        1 R8J      0.130000
     23 HAG         8.0610   -0.3030    5.2790 h4        1 R8J      0.223000
     24 HAH         3.1320    2.4830    2.0350 h4        1 R8J      0.049100
     25 HAI         4.0960   -0.0090    8.2130 h4        1 R8J      0.188000
     26 HNAM        2.5440   -0.9970    6.5030 hn        1 R8J      0.413800
     27 OAB         6.1170   -0.9290    4.2190 o         1 R8J     -0.571500
@<TRIPOS>BOND
     1    1   13 1   
     2    2   13 1   
     3    3    6 2   
     4    3    9 1   
     5    3   20 1   
     6    4    5 ar  
     7    4   14 ar  
     8    4   21 1   
     9    5   15 ar  
    10    5   22 1   
    11    6   18 1   
    12    6   23 1   
    13    7   10 ar  
    14    7   14 ar  
    15    7   24 1   
    16    8   12 1   
    17    8   16 2   
    18    8   25 1   
    19    9   11 2   
    20   10   15 ar  
    21   11   18 1   
    22   12   19 1   
    23   12   26 1   
    24   13   14 1   
    25   15   19 1   
    26   16   17 1   
    27   16   18 1   
    28   17   19 1   
    29   17   27 2   
@<TRIPOS>SUBSTRUCTURE
     1 R8J         1 TEMP              0 ****  ****    0 ROOT
