@<TRIPOS>MOLECULE
R94
   77    81     1     0     0
SMALL
bcc


@<TRIPOS>ATOM
      1 O62         1.2840   -1.0970    0.4470 o         1 R94     -0.469100
      2 C61         2.3450   -0.5430    0.7400 c         1 R94      0.591300
      3 C71         2.7410   -0.1990    2.1150 ca        1 R94     -0.184600
      4 C72         4.0050   -0.5020    2.6460 ca        1 R94      0.114100
      5 C73         4.3080   -0.1610    3.9700 ca        1 R94     -0.175000
      6 C74         3.3650    0.4740    4.7640 ca        1 R94     -0.115000
      7 C75         2.0780    0.7950    4.2610 ca        1 R94      0.137600
      8 N91         1.1300    1.5260    5.0050 nh        1 R94     -0.638000
      9 C92         1.5930    2.1000    6.2600 c3        1 R94      0.187300
     10 C93         0.5910    3.0790    6.8710 c3        1 R94     -0.080400
     11 C94        -0.7800    2.4530    7.0020 c3        1 R94     -0.082400
     12 C95        -1.2390    1.9110    5.6660 c3        1 R94     -0.080400
     13 C96        -0.2080    0.9500    5.0770 c3        1 R94      0.187300
     14 C76         1.7900    0.4320    2.9250 ca        1 R94     -0.096000
     15 O92         4.9180   -1.1460    1.8340 oh        1 R94     -0.535100
     16 C54         3.2800   -0.1290   -0.3550 ca        1 R94     -0.019600
     17 C55         3.1810    1.1520   -0.9080 ca        1 R94     -0.092000
     18 C56         3.9920    1.5150   -1.9780 ca        1 R94     -0.058000
     19 C53         4.2240   -1.0410   -0.8600 ca        1 R94     -0.092000
     20 C52         5.0290   -0.6920   -1.9320 ca        1 R94     -0.058000
     21 C51         4.9050    0.5850   -2.5190 ca        1 R94     -0.230600
     22 C42         5.6800    1.0230   -3.6580 c         1 R94      0.614700
     23 O43         5.9050    2.1640   -4.0610 o         1 R94     -0.528100
     24 N41         6.3090   -0.0680   -4.5310 n4        1 R94     -0.706800
     25 C37         6.2650    0.2520   -6.0070 c3        1 R94      0.126500
     26 C36         5.7230   -0.9350   -6.8270 c3        1 R94     -0.091400
     27 C35         4.8350   -0.4510   -7.9560 c3        1 R94     -0.092400
     28 C34         5.5760    0.2030   -9.1190 c3        1 R94      0.150800
     29 N33         6.5690    1.1840   -8.7190 n3        1 R94     -0.862200
     30 C32         7.7330    0.6250   -8.0920 c3        1 R94      0.155800
     31 C31         7.6520    0.7220   -6.5330 c3        1 R94      0.111500
     32 N23         7.9620    2.1310   -6.0900 n4        1 R94     -0.692800
     33 C21         8.9460    2.2080   -4.9320 c         1 R94      0.605700
     34 O22         8.9150    1.2480   -4.1670 o         1 R94     -0.489100
     35 C14         9.8050    3.3880   -4.8800 ca        1 R94     -0.172600
     36 C13        11.0020    3.2860   -4.1510 ca        1 R94     -0.189800
     37 C12        11.8340    4.4250   -4.0820 ca        1 R94      0.426700
     38 N11        11.5350    5.5960   -4.6670 nb        1 R94     -0.572000
     39 C16        10.3750    5.6810   -5.3520 ca        1 R94      0.426700
     40 C15         9.4750    4.6100   -5.4920 ca        1 R94     -0.189800
     41 H73         5.2950   -0.4130    4.3880 ha        1 R94      0.147000
     42 H74         3.6360    0.7160    5.8050 ha        1 R94      0.156000
     43 H921        1.8090    1.2910    7.0190 h1        1 R94      0.040200
     44 H922        2.5530    2.6550    6.0560 h1        1 R94      0.040200
     45 H931        0.5260    4.0010    6.2370 hc        1 R94      0.056450
     46 H932        0.9750    3.3830    7.8790 hc        1 R94      0.056450
     47 H941       -0.7470    1.6230    7.7550 hc        1 R94      0.053200
     48 H942       -1.5120    3.2160    7.3740 hc        1 R94      0.053200
     49 H951       -1.4170    2.7600    4.9550 hc        1 R94      0.056450
     50 H952       -2.2040    1.3540    5.7840 hc        1 R94      0.056450
     51 H961       -0.5360    0.6650    4.0390 h1        1 R94      0.040200
     52 H962       -0.1950    0.0090    5.7040 h1        1 R94      0.040200
     53 H76         0.7980    0.6420    2.4900 ha        1 R94      0.158000
     54 H92         5.6400   -1.4600    2.3990 ho        1 R94      0.434000
     55 H55         2.4580    1.8790   -0.4970 ha        1 R94      0.188500
     56 H56         3.9140    2.5270   -2.4140 ha        1 R94      0.147500
     57 H53         4.3320   -2.0280   -0.3730 ha        1 R94      0.188500
     58 H52         5.7780   -1.4200   -2.2790 ha        1 R94      0.147500
     59 H41         7.2810   -0.2020   -4.2190 hn        1 R94      0.471300
     60 H37         5.5150    1.1000   -6.1280 hx        1 R94      0.137700
     61 H361        5.0930   -1.6090   -6.1800 hc        1 R94      0.080700
     62 H362        6.5650   -1.5630   -7.2170 hc        1 R94      0.080700
     63 H351        4.2820   -1.3390   -8.3720 hc        1 R94      0.084700
     64 H352        4.0620    0.2570   -7.5540 hc        1 R94      0.084700
     65 H341        6.0370   -0.6130   -9.7520 h1        1 R94      0.076200
     66 H342        4.8140    0.7370   -9.7600 h1        1 R94      0.076200
     67 H33         6.8120    1.7740   -9.4950 hn        1 R94      0.413800
     68 H321        8.6710    1.1520   -8.4340 h1        1 R94      0.085200
     69 H322        7.8860   -0.4720   -8.3250 h1        1 R94      0.085200
     70 H31         8.4730    0.0510   -6.1330 hx        1 R94      0.119700
     71 H23         7.0920    2.6100   -5.8010 hn        1 R94      0.480800
     72 H13        11.2890    2.3520   -3.6440 ha        1 R94      0.163000
     73 H12        12.7910    4.3910   -3.5200 h4        1 R94      0.072600
     74 H16        10.1590    6.6690   -5.8110 h4        1 R94      0.072600
     75 H15         8.5370    4.7740   -6.0390 ha        1 R94      0.163000
     76 H412        5.7980   -0.9460   -4.3630 hn        1 R94      0.471300
     77 H232        8.3530    2.6540   -6.8860 hn        1 R94      0.480800
@<TRIPOS>BOND
     1    1    2 2   
     2    2    3 1   
     3    2   16 1   
     4    3    4 ar  
     5    3   14 ar  
     6    4    5 ar  
     7    4   15 1   
     8    5    6 ar  
     9    5   41 1   
    10    6    7 ar  
    11    6   42 1   
    12    7    8 1   
    13    7   14 ar  
    14    8    9 1   
    15    8   13 1   
    16    9   10 1   
    17    9   43 1   
    18    9   44 1   
    19   10   11 1   
    20   10   45 1   
    21   10   46 1   
    22   11   12 1   
    23   11   47 1   
    24   11   48 1   
    25   12   13 1   
    26   12   49 1   
    27   12   50 1   
    28   13   51 1   
    29   13   52 1   
    30   14   53 1   
    31   15   54 1   
    32   16   17 ar  
    33   16   19 ar  
    34   17   18 ar  
    35   17   55 1   
    36   18   21 ar  
    37   18   56 1   
    38   19   20 ar  
    39   19   57 1   
    40   20   21 ar  
    41   20   58 1   
    42   21   22 1   
    43   22   23 2   
    44   22   24 1   
    45   24   25 1   
    46   24   59 1   
    47   24   76 1   
    48   25   26 1   
    49   25   31 1   
    50   25   60 1   
    51   26   27 1   
    52   26   61 1   
    53   26   62 1   
    54   27   28 1   
    55   27   63 1   
    56   27   64 1   
    57   28   29 1   
    58   28   65 1   
    59   28   66 1   
    60   29   30 1   
    61   29   67 1   
    62   30   31 1   
    63   30   68 1   
    64   30   69 1   
    65   31   32 1   
    66   31   70 1   
    67   32   33 1   
    68   32   71 1   
    69   32   77 1   
    70   33   34 2   
    71   33   35 1   
    72   35   36 ar  
    73   35   40 ar  
    74   36   37 ar  
    75   36   72 1   
    76   37   38 ar  
    77   37   73 1   
    78   38   39 ar  
    79   39   40 ar  
    80   39   74 1   
    81   40   75 1   
@<TRIPOS>SUBSTRUCTURE
     1 R94         1 TEMP              0 ****  ****    0 ROOT
