@<TRIPOS>MOLECULE
R94
   77    81     1     0     0
SMALL
bcc


@<TRIPOS>ATOM
      1 O62         1.3560   -1.1620    0.4940 o         1 R94     -0.470100
      2 C61         2.4040   -0.5790    0.7750 c         1 R94      0.591300
      3 C71         2.7970   -0.2100    2.1440 ca        1 R94     -0.184600
      4 C72         4.0720   -0.4730    2.6710 ca        1 R94      0.114100
      5 C73         4.3720   -0.1100    3.9910 ca        1 R94     -0.175000
      6 C74         3.4160    0.5070    4.7830 ca        1 R94     -0.115000
      7 C75         2.1190    0.7860    4.2840 ca        1 R94      0.137600
      8 N91         1.1550    1.4980    5.0270 nh        1 R94     -0.638000
      9 C92         1.6090    2.0970    6.2740 c3        1 R94      0.187300
     10 C93         0.5820    3.0540    6.8810 c3        1 R94     -0.080400
     11 C94        -0.7700    2.3910    7.0250 c3        1 R94     -0.082400
     12 C95        -1.2200    1.8240    5.6970 c3        1 R94     -0.080400
     13 C96        -0.1660    0.8850    5.1120 c3        1 R94      0.187300
     14 C76         1.8330    0.4020    2.9540 ca        1 R94     -0.095000
     15 O92         4.9990   -1.0990    1.8610 oh        1 R94     -0.535100
     16 C54         3.3220   -0.1530   -0.3290 ca        1 R94     -0.019600
     17 C55         3.1890    1.1190   -0.8950 ca        1 R94     -0.092000
     18 C56         3.9840    1.4900   -1.9740 ca        1 R94     -0.058000
     19 C53         4.2860   -1.0470   -0.8290 ca        1 R94     -0.092000
     20 C52         5.0760   -0.6900   -1.9100 ca        1 R94     -0.058000
     21 C51         4.9170    0.5770   -2.5110 ca        1 R94     -0.230600
     22 C42         5.6740    1.0220   -3.6590 c         1 R94      0.614700
     23 O43         5.8680    2.1640   -4.0760 o         1 R94     -0.528100
     24 N41         6.3240   -0.0630   -4.5250 n4        1 R94     -0.706800
     25 C37         6.2620    0.2390   -6.0030 c3        1 R94      0.126500
     26 C36         5.7440   -0.9700   -6.8060 c3        1 R94     -0.091400
     27 C35         4.8360   -0.5210   -7.9340 c3        1 R94     -0.092400
     28 C34         5.5520    0.1380   -9.1100 c3        1 R94      0.150800
     29 N33         6.5230    1.1480   -8.7280 n3        1 R94     -0.862200
     30 C32         7.7050    0.6250   -8.1030 c3        1 R94      0.155800
     31 C31         7.6330    0.7380   -6.5450 c3        1 R94      0.111500
     32 N23         7.9100    2.1580   -6.1190 n4        1 R94     -0.692800
     33 C21         8.9010    2.2730   -4.9690 c         1 R94      0.605700
     34 O22         8.8990    1.3220   -4.1940 o         1 R94     -0.489100
     35 C14         9.7310    3.4740   -4.9370 ca        1 R94     -0.172600
     36 C13        10.9350    3.4090   -4.2170 ca        1 R94     -0.189800
     37 C12        11.7400    4.5690   -4.1670 ca        1 R94      0.426700
     38 N11        11.4080    5.7260   -4.7630 nb        1 R94     -0.572000
     39 C16        10.2410    5.7750   -5.4400 ca        1 R94      0.426700
     40 C15         9.3660    4.6810   -5.5600 ca        1 R94     -0.189800
     41 H73         5.3680   -0.3300    4.4060 ha        1 R94      0.147000
     42 H74         3.6860    0.7660    5.8200 ha        1 R94      0.156000
     43 H921        2.5510    2.6760    6.0590 h1        1 R94      0.040200
     44 H922        1.8510    1.3010    7.0390 h1        1 R94      0.040200
     45 H931        0.4880    3.9670    6.2370 hc        1 R94      0.056450
     46 H932        0.9630    3.3790    7.8840 hc        1 R94      0.056450
     47 H941       -0.7100    1.5690    7.7860 hc        1 R94      0.053200
     48 H942       -1.5210    3.1370    7.3930 hc        1 R94      0.053200
     49 H951       -2.1690    1.2410    5.8260 hc        1 R94      0.056450
     50 H952       -1.4260    2.6600    4.9790 hc        1 R94      0.056450
     51 H961       -0.4920    0.5810    4.0780 h1        1 R94      0.040200
     52 H962       -0.1240   -0.0480    5.7470 h1        1 R94      0.040200
     53 H76         0.8340    0.5800    2.5220 ha        1 R94      0.158000
     54 H92         5.7330   -1.3860    2.4250 ho        1 R94      0.434000
     55 H55         2.4490    1.8320   -0.4880 ha        1 R94      0.188500
     56 H56         3.8790    2.4950   -2.4200 ha        1 R94      0.147500
     57 H53         4.4220   -2.0250   -0.3330 ha        1 R94      0.188500
     58 H52         5.8410   -1.4020   -2.2540 ha        1 R94      0.147500
     59 H41         7.3010   -0.1690   -4.2180 hn        1 R94      0.471300
     60 H37         5.4890    1.0670   -6.1290 hx        1 R94      0.137700
     61 H361        6.5980   -1.5810   -7.1960 hc        1 R94      0.080700
     62 H362        5.1360   -1.6520   -6.1470 hc        1 R94      0.080700
     63 H351        4.0480    0.1720   -7.5340 hc        1 R94      0.084700
     64 H352        4.3020   -1.4270   -8.3360 hc        1 R94      0.084700
     65 H341        6.0290   -0.6730   -9.7360 h1        1 R94      0.076200
     66 H342        4.7720    0.6460   -9.7500 h1        1 R94      0.076200
     67 H33         6.7460    1.7350   -9.5110 hn        1 R94      0.413800
     68 H321        8.6270    1.1710   -8.4580 h1        1 R94      0.085200
     69 H322        7.8840   -0.4700   -8.3250 h1        1 R94      0.085200
     70 H31         8.4730    0.0920   -6.1430 hx        1 R94      0.119700
     71 H23         8.2830    2.6820   -6.9230 hn        1 R94      0.480800
     72 H13        11.2500    2.4880   -3.7020 ha        1 R94      0.163000
     73 H12        12.7030    4.5640   -3.6120 h4        1 R94      0.072600
     74 H16         9.9980    6.7520   -5.9070 h4        1 R94      0.072600
     75 H15         8.4210    4.8160   -6.1010 ha        1 R94      0.163000
     76 H412        5.8360   -0.9520   -4.3430 hn        1 R94      0.471300
     77 H232        7.0320    2.6190   -5.8290 hn        1 R94      0.480800
@<TRIPOS>BOND
     1    1    2 2   
     2    2    3 1   
     3    2   16 1   
     4    3    4 ar  
     5    3   14 ar  
     6    4    5 ar  
     7    4   15 1   
     8    5    6 ar  
     9    5   41 1   
    10    6    7 ar  
    11    6   42 1   
    12    7    8 1   
    13    7   14 ar  
    14    8    9 1   
    15    8   13 1   
    16    9   10 1   
    17    9   43 1   
    18    9   44 1   
    19   10   11 1   
    20   10   45 1   
    21   10   46 1   
    22   11   12 1   
    23   11   47 1   
    24   11   48 1   
    25   12   13 1   
    26   12   49 1   
    27   12   50 1   
    28   13   51 1   
    29   13   52 1   
    30   14   53 1   
    31   15   54 1   
    32   16   17 ar  
    33   16   19 ar  
    34   17   18 ar  
    35   17   55 1   
    36   18   21 ar  
    37   18   56 1   
    38   19   20 ar  
    39   19   57 1   
    40   20   21 ar  
    41   20   58 1   
    42   21   22 1   
    43   22   23 2   
    44   22   24 1   
    45   24   25 1   
    46   24   59 1   
    47   24   76 1   
    48   25   26 1   
    49   25   31 1   
    50   25   60 1   
    51   26   27 1   
    52   26   61 1   
    53   26   62 1   
    54   27   28 1   
    55   27   63 1   
    56   27   64 1   
    57   28   29 1   
    58   28   65 1   
    59   28   66 1   
    60   29   30 1   
    61   29   67 1   
    62   30   31 1   
    63   30   68 1   
    64   30   69 1   
    65   31   32 1   
    66   31   70 1   
    67   32   33 1   
    68   32   71 1   
    69   32   77 1   
    70   33   34 2   
    71   33   35 1   
    72   35   36 ar  
    73   35   40 ar  
    74   36   37 ar  
    75   36   72 1   
    76   37   38 ar  
    77   37   73 1   
    78   38   39 ar  
    79   39   40 ar  
    80   39   74 1   
    81   40   75 1   
@<TRIPOS>SUBSTRUCTURE
     1 R94         1 TEMP              0 ****  ****    0 ROOT
