@<TRIPOS>MOLECULE
R94
   77    81     1     0     0
SMALL
bcc


@<TRIPOS>ATOM
      1 O62         1.2120   -1.0280    0.3930 o         1 R94     -0.469100
      2 C61         2.2870   -0.5090    0.7000 c         1 R94      0.591300
      3 C71         2.6840   -0.1990    2.0820 ca        1 R94     -0.184600
      4 C72         3.9350   -0.5490    2.6150 ca        1 R94      0.113100
      5 C73         4.2400   -0.2380    3.9460 ca        1 R94     -0.175000
      6 C74         3.3120    0.4130    4.7450 ca        1 R94     -0.115000
      7 C75         2.0390    0.7800    4.2400 ca        1 R94      0.137600
      8 N91         1.1090    1.5270    4.9910 nh        1 R94     -0.638000
      9 C92         1.5810    2.0670    6.2580 c3        1 R94      0.187300
     10 C93         0.6050    3.0650    6.8790 c3        1 R94     -0.080400
     11 C94        -0.7850    2.4780    6.9920 c3        1 R94     -0.082400
     12 C95        -1.2520    1.9720    5.6450 c3        1 R94     -0.080400
     13 C96        -0.2460    0.9900    5.0460 c3        1 R94      0.187300
     14 C76         1.7480    0.4470    2.8970 ca        1 R94     -0.096000
     15 O92         4.8340   -1.2060    1.7980 oh        1 R94     -0.535100
     16 C54         3.2380   -0.1040   -0.3840 ca        1 R94     -0.019600
     17 C55         3.1770    1.1880   -0.9160 ca        1 R94     -0.092000
     18 C56         4.0030    1.5460   -1.9770 ca        1 R94     -0.058000
     19 C53         4.1600   -1.0330   -0.8980 ca        1 R94     -0.092000
     20 C52         4.9800   -0.6890   -1.9610 ca        1 R94     -0.058000
     21 C51         4.8940    0.6000   -2.5280 ca        1 R94     -0.230600
     22 C42         5.6860    1.0350   -3.6560 c         1 R94      0.614700
     23 O43         5.9440    2.1760   -4.0400 o         1 R94     -0.528100
     24 N41         6.2910   -0.0590   -4.5430 ny        1 R94     -0.706800
     25 C37         6.2630    0.2850   -6.0140 c3        1 R94      0.126500
     26 C36         5.6950   -0.8750   -6.8540 c3        1 R94     -0.091400
     27 C35         4.8250   -0.3500   -7.9810 c3        1 R94     -0.092400
     28 C34         5.5890    0.3020   -9.1300 c3        1 R94      0.150800
     29 N33         6.6050    1.2510   -8.7100 n7        1 R94     -0.862200
     30 C32         7.7510    0.6510   -8.0850 c3        1 R94      0.155800
     31 C31         7.6650    0.7270   -6.5260 c3        1 R94      0.111500
     32 N23         8.0090    2.1190   -6.0590 ny        1 R94     -0.692800
     33 C21         8.9890    2.1530   -4.8950 c         1 R94      0.605700
     34 O22         8.9280    1.1830   -4.1460 o         1 R94     -0.489100
     35 C14         9.8780    3.3090   -4.8210 ca        1 R94     -0.172600
     36 C13        11.0690    3.1640   -4.0890 ca        1 R94     -0.189800
     37 C12        11.9310    4.2790   -3.9980 ca        1 R94      0.426700
     38 N11        11.6650    5.4660   -4.5660 nb        1 R94     -0.572000
     39 C16        10.5110    5.5930   -5.2550 ca        1 R94      0.426700
     40 C15         9.5840    4.5480   -5.4150 ca        1 R94     -0.189800
     41 H73         5.2170   -0.5260    4.3660 ha        1 R94      0.147000
     42 H74         3.5840    0.6300    5.7910 ha        1 R94      0.156000
     43 H921        2.5580    2.5960    6.0680 h1        1 R94      0.040200
     44 H922        1.7680    1.2390    7.0040 h1        1 R94      0.040200
     45 H931        0.5710    3.9980    6.2590 hc        1 R94      0.056450
     46 H932        0.9920    3.3410    7.8940 hc        1 R94      0.056450
     47 H941       -1.4960    3.2560    7.3720 hc        1 R94      0.053200
     48 H942       -0.7810    1.6350    7.7320 hc        1 R94      0.053200
     49 H951       -1.4010    2.8370    4.9470 hc        1 R94      0.056450
     50 H952       -2.2340    1.4420    5.7490 hc        1 R94      0.056450
     51 H961       -0.2650    0.0400    5.6580 h1        1 R94      0.040200
     52 H962       -0.5770    0.7320    4.0020 h1        1 R94      0.040200
     53 H76         0.7650    0.6930    2.4600 ha        1 R94      0.158000
     54 H92         5.5430   -1.5510    2.3610 ho        1 R94      0.434000
     55 H55         2.4710    1.9270   -0.4980 ha        1 R94      0.188500
     56 H56         3.9550    2.5660   -2.3970 ha        1 R94      0.147500
     57 H53         4.2390   -2.0300   -0.4270 ha        1 R94      0.188500
     58 H52         5.7110   -1.4310   -2.3150 ha        1 R94      0.147500
     59 H41         5.7560   -0.9260   -4.3910 hn        1 R94      0.471300
     60 H37         5.5360    1.1540   -6.1260 hx        1 R94      0.137700
     61 H361        5.0440   -1.5420   -6.2210 hc        1 R94      0.080700
     62 H362        6.5220   -1.5180   -7.2510 hc        1 R94      0.080700
     63 H351        4.0690    0.3720   -7.5710 hc        1 R94      0.084700
     64 H352        4.2510   -1.2170   -8.4130 hc        1 R94      0.084700
     65 H341        4.8440    0.8650   -9.7650 h1        1 R94      0.076200
     66 H342        6.0320   -0.5160   -9.7730 h1        1 R94      0.076200
     67 H33         6.8680    1.8450   -9.4750 hn        1 R94      0.413800
     68 H321        7.8770   -0.4450   -8.3350 h1        1 R94      0.085200
     69 H322        8.7050    1.1580   -8.4160 h1        1 R94      0.085200
     70 H31         8.4650    0.0280   -6.1320 hx        1 R94      0.119700
     71 H23         8.4180    2.6440   -6.8450 hn        1 R94      0.480800
     72 H13        11.3290    2.2140   -3.5950 ha        1 R94      0.163000
     73 H12        12.8840    4.2110   -3.4320 h4        1 R94      0.072600
     74 H16        10.3240    6.5930   -5.6990 h4        1 R94      0.072600
     75 H15         8.6530    4.7450   -5.9640 ha        1 R94      0.163000
     76 H412        7.2580   -0.2230   -4.2290 hn        1 R94      0.471300
     77 H232        7.1510    2.6170   -5.7670 hn        1 R94      0.480800
@<TRIPOS>BOND
     1    1    2 2   
     2    2    3 1   
     3    2   16 1   
     4    3    4 ar  
     5    3   14 ar  
     6    4    5 ar  
     7    4   15 1   
     8    5    6 ar  
     9    5   41 1   
    10    6    7 ar  
    11    6   42 1   
    12    7    8 1   
    13    7   14 ar  
    14    8    9 1   
    15    8   13 1   
    16    9   10 1   
    17    9   43 1   
    18    9   44 1   
    19   10   11 1   
    20   10   45 1   
    21   10   46 1   
    22   11   12 1   
    23   11   47 1   
    24   11   48 1   
    25   12   13 1   
    26   12   49 1   
    27   12   50 1   
    28   13   51 1   
    29   13   52 1   
    30   14   53 1   
    31   15   54 1   
    32   16   17 ar  
    33   16   19 ar  
    34   17   18 ar  
    35   17   55 1   
    36   18   21 ar  
    37   18   56 1   
    38   19   20 ar  
    39   19   57 1   
    40   20   21 ar  
    41   20   58 1   
    42   21   22 1   
    43   22   23 2   
    44   22   24 1   
    45   24   25 1   
    46   24   59 1   
    47   24   76 1   
    48   25   26 1   
    49   25   31 1   
    50   25   60 1   
    51   26   27 1   
    52   26   61 1   
    53   26   62 1   
    54   27   28 1   
    55   27   63 1   
    56   27   64 1   
    57   28   29 1   
    58   28   65 1   
    59   28   66 1   
    60   29   30 1   
    61   29   67 1   
    62   30   31 1   
    63   30   68 1   
    64   30   69 1   
    65   31   32 1   
    66   31   70 1   
    67   32   33 1   
    68   32   71 1   
    69   32   77 1   
    70   33   34 2   
    71   33   35 1   
    72   35   36 ar  
    73   35   40 ar  
    74   36   37 ar  
    75   36   72 1   
    76   37   38 ar  
    77   37   73 1   
    78   38   39 ar  
    79   39   40 ar  
    80   39   74 1   
    81   40   75 1   
@<TRIPOS>SUBSTRUCTURE
     1 R94         1 TEMP              0 ****  ****    0 ROOT
