@<TRIPOS>MOLECULE
R94
   75    79     1     0     0
SMALL
bcc


@<TRIPOS>ATOM
      1 O62         2.9920    4.8320   -0.0980 o         1 R94     -0.556100
      2 C61         2.8410    3.6230    0.1500 c         1 R94      0.600300
      3 C71         3.9420    2.7970    0.6740 ca        1 R94     -0.242600
      4 C72         4.9810    3.3550    1.4430 ca        1 R94      0.174100
      5 C73         6.0110    2.5300    1.9390 ca        1 R94     -0.158000
      6 C74         6.0270    1.1790    1.6430 ca        1 R94     -0.111000
      7 C75         5.0100    0.5930    0.8500 ca        1 R94      0.082600
      8 N91         4.9490   -0.8010    0.5780 nh        1 R94     -0.630000
      9 C92         5.8070   -1.6430    1.3980 c3        1 R94      0.184300
     10 C93         5.5350   -3.1330    1.1890 c3        1 R94     -0.080400
     11 C94         5.6270   -3.5030   -0.2750 c3        1 R94     -0.078400
     12 C95         4.7180   -2.6190   -1.1030 c3        1 R94     -0.080400
     13 C96         4.9980   -1.1400   -0.8410 c3        1 R94      0.184300
     14 C76         3.9770    1.4260    0.3830 ca        1 R94     -0.082000
     15 O92         5.0840    4.6740    1.7950 oh        1 R94     -0.501100
     16 C54         1.5240    2.9800   -0.0760 ca        1 R94     -0.146600
     17 C55         0.7420    3.4000   -1.1600 ca        1 R94     -0.091500
     18 C56        -0.5160    2.8400   -1.3740 ca        1 R94     -0.106500
     19 C53         1.0330    2.0020    0.7960 ca        1 R94     -0.091500
     20 C52        -0.2320    1.4520    0.5930 ca        1 R94     -0.106500
     21 C51        -1.0090    1.8720   -0.4910 ca        1 R94     -0.123600
     22 C42        -2.3680    1.3100   -0.7560 c         1 R94      0.670700
     23 O43        -2.7390    1.0450   -1.9220 o         1 R94     -0.630100
     24 N41        -3.1920    1.1220    0.3290 n         1 R94     -0.558900
     25 C37        -4.5800    0.7240    0.2200 c3        1 R94      0.095700
     26 C36        -5.3270    1.0910    1.5180 c3        1 R94     -0.088400
     27 C35        -6.8190    1.2150    1.3290 c3        1 R94     -0.076400
     28 C34        -7.4770   -0.0700    0.8290 c3        1 R94      0.169800
     29 N33        -7.2520   -0.2950   -0.5810 n3        1 R94     -0.839200
     30 C32        -6.0570   -1.0040   -0.9670 c3        1 R94      0.162800
     31 C31        -4.8010   -0.8060   -0.0700 c3        1 R94      0.084700
     32 N23        -3.6790   -1.4550   -0.7090 n         1 R94     -0.552900
     33 C21        -2.7870   -2.2460   -0.0170 c         1 R94      0.665700
     34 O22        -2.9720   -2.5560    1.1790 o         1 R94     -0.612100
     35 C14        -1.6130   -2.7720   -0.7770 ca        1 R94     -0.104600
     36 C13        -1.1210   -4.0410   -0.4450 ca        1 R94     -0.209300
     37 C12        -0.0100   -4.5320   -1.1540 ca        1 R94      0.385700
     38 N11         0.6110   -3.8460   -2.1330 nb        1 R94     -0.653000
     39 C16         0.1280   -2.6250   -2.4330 ca        1 R94      0.385700
     40 C15        -0.9780   -2.0420   -1.7870 ca        1 R94     -0.209300
     41 H73         6.8020    2.9840    2.5540 ha        1 R94      0.156000
     42 H74         6.8540    0.5660    2.0360 ha        1 R94      0.141000
     43 H921        6.9010   -1.4520    1.1830 h1        1 R94      0.034700
     44 H922        5.6140   -1.3840    2.4770 h1        1 R94      0.034700
     45 H931        6.2880   -3.7120    1.7830 hc        1 R94      0.051700
     46 H932        4.5160   -3.3900    1.5810 hc        1 R94      0.051700
     47 H941        6.6860   -3.3890   -0.6260 hc        1 R94      0.042200
     48 H942        5.3400   -4.5770   -0.4140 hc        1 R94      0.042200
     49 H951        4.8770   -2.8170   -2.1940 hc        1 R94      0.051700
     50 H952        3.6480   -2.8520   -0.8650 hc        1 R94      0.051700
     51 H961        4.2220   -0.5240   -1.3760 h1        1 R94      0.034700
     52 H962        6.0050   -0.8820   -1.2820 h1        1 R94      0.034700
     53 H76         3.1650    1.0000   -0.2320 ha        1 R94      0.149000
     54 H92         4.4180    5.1950    1.3180 ho        1 R94      0.452000
     55 H55         1.1270    4.1810   -1.8350 ha        1 R94      0.156500
     56 H56        -1.1280    3.1510   -2.2360 ha        1 R94      0.152500
     57 H53         1.6470    1.6670    1.6480 ha        1 R94      0.156500
     58 H52        -0.5970    0.6760    1.2830 ha        1 R94      0.152500
     59 H41        -2.8210    1.2430    1.2420 hn        1 R94      0.317500
     60 H37        -5.0200    1.3000   -0.6490 h1        1 R94      0.090700
     61 H361       -5.1050    0.3230    2.3060 hc        1 R94      0.048200
     62 H362       -4.9530    2.0790    1.9050 hc        1 R94      0.048200
     63 H351       -7.2810    1.4690    2.3210 hc        1 R94      0.052700
     64 H352       -7.0440    2.0590    0.6260 hc        1 R94      0.052700
     65 H341       -7.1240   -0.9320    1.4680 h1        1 R94      0.031700
     66 H342       -8.5890    0.0320    0.9910 h1        1 R94      0.031700
     67 H33        -8.0480   -0.7440   -0.9940 hn        1 R94      0.371800
     68 H321       -6.2420   -2.1190   -1.0200 h1        1 R94      0.040200
     69 H322       -5.8190   -0.6490   -2.0130 h1        1 R94      0.040200
     70 H31        -4.9760   -1.3300    0.9180 h1        1 R94      0.086700
     71 H23        -3.4310   -1.1110   -1.6110 hn        1 R94      0.332500
     72 H13        -1.5900   -4.6270    0.3580 ha        1 R94      0.164500
     73 H12         0.4080   -5.5290   -0.9250 h4        1 R94      0.027100
     74 H16         0.6570   -2.0830   -3.2380 h4        1 R94      0.027100
     75 H15        -1.3100   -1.0330   -2.0780 ha        1 R94      0.164500
@<TRIPOS>BOND
     1    1    2 2   
     2    2    3 1   
     3    2   16 1   
     4    3    4 ar  
     5    3   14 ar  
     6    4    5 ar  
     7    4   15 1   
     8    5    6 ar  
     9    5   41 1   
    10    6    7 ar  
    11    6   42 1   
    12    7    8 1   
    13    7   14 ar  
    14    8    9 1   
    15    8   13 1   
    16    9   10 1   
    17    9   43 1   
    18    9   44 1   
    19   10   11 1   
    20   10   45 1   
    21   10   46 1   
    22   11   12 1   
    23   11   47 1   
    24   11   48 1   
    25   12   13 1   
    26   12   49 1   
    27   12   50 1   
    28   13   51 1   
    29   13   52 1   
    30   14   53 1   
    31   15   54 1   
    32   16   17 ar  
    33   16   19 ar  
    34   17   18 ar  
    35   17   55 1   
    36   18   21 ar  
    37   18   56 1   
    38   19   20 ar  
    39   19   57 1   
    40   20   21 ar  
    41   20   58 1   
    42   21   22 1   
    43   22   23 2   
    44   22   24 1   
    45   24   25 1   
    46   24   59 1   
    47   25   26 1   
    48   25   31 1   
    49   25   60 1   
    50   26   27 1   
    51   26   61 1   
    52   26   62 1   
    53   27   28 1   
    54   27   63 1   
    55   27   64 1   
    56   28   29 1   
    57   28   65 1   
    58   28   66 1   
    59   29   30 1   
    60   29   67 1   
    61   30   31 1   
    62   30   68 1   
    63   30   69 1   
    64   31   32 1   
    65   31   70 1   
    66   32   33 1   
    67   32   71 1   
    68   33   34 2   
    69   33   35 1   
    70   35   36 ar  
    71   35   40 ar  
    72   36   37 ar  
    73   36   72 1   
    74   37   38 ar  
    75   37   73 1   
    76   38   39 ar  
    77   39   40 ar  
    78   39   74 1   
    79   40   75 1   
@<TRIPOS>SUBSTRUCTURE
     1 R94         1 TEMP              0 ****  ****    0 ROOT
