@<TRIPOS>MOLECULE
R96
   81    78     1     0     0
SMALL
bcc


@<TRIPOS>ATOM
      1 O22        -4.4190   -3.1530   -4.4300 o         1 R96     -0.374000
      2 C21        -4.2390   -2.5020   -3.4120 c1        1 R96      0.340000
      3 C14        -4.3560   -0.9570   -3.4470 c1        1 R96     -0.085000
      4 C13        -4.2090   -0.2350   -2.2950 c2        1 R96     -0.158000
      5 C12        -4.3210    1.1630   -2.3260 c1        1 R96     -0.077000
      6 N11        -4.5810    1.8110   -3.5220 n1        1 R96     -0.125000
      7 C16        -4.7280    1.0890   -4.6730 c1        1 R96     -0.082000
      8 C15        -4.6170   -0.3080   -4.6450 c1        1 R96     -0.131000
      9 N23        -3.9660   -3.1980   -2.1250 n3        1 R96     -0.362000
     10 C31        -3.9140   -4.6550   -2.0810 c3        1 R96      0.007000
     11 C32        -5.2980   -5.1850   -2.0820 c3        1 R96     -0.074000
     12 N33        -5.3080   -6.5970   -1.8700 n3        1 R96     -0.318000
     13 C34        -4.1670   -7.2180   -2.4730 c3        1 R96     -0.067000
     14 C35        -3.1160   -7.5270   -1.4360 c3        1 R96     -0.155000
     15 C36        -2.2770   -6.2910   -1.1290 c3        1 R96     -0.167000
     16 C37        -3.1600   -5.1010   -0.8280 c3        1 R96      0.019000
     17 N41        -2.3500   -4.0150   -0.3530 n         1 R96     -0.369000
     18 C42        -2.5190   -3.5170    1.0260 c2        1 R96      0.343000
     19 O43        -3.3620   -4.0380    1.7770 o         1 R96     -0.390000
     20 C51        -1.6290   -2.3980    1.5440 c2        1 R96     -0.101000
     21 C52        -0.3580   -2.2100    1.0000 c2        1 R96     -0.124000
     22 C53         0.5010   -1.2480    1.5460 c1        1 R96     -0.090000
     23 C56        -2.0420   -1.6260    2.6340 c1        1 R96     -0.097000
     24 C55        -1.1890   -0.6740    3.1750 c1        1 R96     -0.083000
     25 C54         0.0880   -0.4840    2.6280 c1        1 R96     -0.126000
     26 C61         1.0610    0.5170    3.2770 c2        1 R96      0.324000
     27 O62         0.9810    0.7570    4.4660 o         1 R96     -0.268000
     28 C71         2.2210    1.1210    2.4410 c2        1 R96     -0.144000
     29 C72         3.0970    0.2810    1.7570 c2        1 R96      0.085000
     30 O92         2.9510   -1.1250    1.8550 oh        1 R96     -0.245000
     31 C73         4.2020    0.8260    1.0650 c1        1 R96     -0.192000
     32 C74         4.4180    2.2070    1.0660 c1        1 R96     -0.129000
     33 C76         2.4390    2.5150    2.4430 c1        1 R96     -0.099000
     34 C75         3.5400    3.0550    1.7530 c1        1 R96      0.021000
     35 N91         3.7740    4.5130    1.7540 n3        1 R96     -0.234000
     36 C92         4.2110    4.9460    3.0910 c3        1 R96     -0.050000
     37 C93         4.6130    6.4290    3.1230 c3        1 R96     -0.159000
     38 C94         5.5870    6.7650    2.0650 c3        1 R96     -0.150000
     39 C95         5.1400    6.3210    0.7320 c3        1 R96     -0.051000
     40 C97         3.8960    7.1930    0.2840 c3        1 R96     -0.205000
     41 C98         6.2880    6.5390   -0.2720 c3        1 R96     -0.205000
     42 C96         4.7370    4.8480    0.7100 c3        1 R96     -0.047000
     43 H13        -4.0220   -0.6990   -1.4360 ha        1 R96      0.163000
     44 H12        -4.2160    1.6750   -1.5100 ha        1 R96      0.166000
     45 H16        -4.9190    1.5660   -5.5510 ha        1 R96      0.163000
     46 H15        -4.7210   -0.8160   -5.4540 ha        1 R96      0.165000
     47 H23        -3.8200   -2.7050   -1.3510 hn        1 R96      0.246000
     48 H31        -3.4420   -4.9810   -2.8720 h1        1 R96      0.126000
     49 H321       -5.8120   -4.7470   -1.3630 h1        1 R96      0.079500
     50 H322       -5.7160   -4.9870   -2.9400 h1        1 R96      0.079500
     51 H33        -6.0510   -6.9420   -2.2140 hn        1 R96      0.167000
     52 H341       -3.7840   -6.6100   -3.1540 h1        1 R96      0.071000
     53 H342       -4.4570   -8.0800   -2.9200 h1        1 R96      0.071000
     54 H351       -3.5630   -7.8360   -0.5970 hc        1 R96      0.091500
     55 H352       -2.5190   -8.2580   -1.7800 hc        1 R96      0.091500
     56 H361       -1.7200   -6.0880   -1.8900 hc        1 R96      0.087500
     57 H362       -1.7220   -6.4690   -0.3730 hc        1 R96      0.087500
     58 H37        -3.8180   -5.3530   -0.1210 h1        1 R96      0.130000
     59 H41        -1.6770   -3.6640   -0.8950 hn        1 R96      0.231000
     60 H52        -0.0580   -2.7660    0.2110 ha        1 R96      0.143000
     61 H53         1.3940   -1.1160    1.1650 ha        1 R96      0.153000
     62 H56        -2.9250   -1.7560    3.0140 ha        1 R96      0.159000
     63 H55        -1.4850   -0.1270    3.9490 ha        1 R96      0.162000
     64 H92         3.7370   -1.4910    2.0430 ho        1 R96      0.222000
     65 H73         4.8360    0.2170    0.5700 ha        1 R96      0.137000
     66 H74         5.1830    2.5820    0.5850 ha        1 R96      0.139000
     67 H76         1.8290    3.1020    2.9200 ha        1 R96      0.149000
     68 H921        3.4990    4.8050    3.7090 h1        1 R96      0.077500
     69 H922        4.9710    4.4100    3.3610 h1        1 R96      0.077500
     70 H931        3.7950    6.9910    3.0070 hc        1 R96      0.090000
     71 H932        5.0130    6.6300    3.9970 hc        1 R96      0.090000
     72 H941        6.4810    6.3180    2.2790 hc        1 R96      0.082500
     73 H942        5.7160    7.7550    2.0480 hc        1 R96      0.082500
     74 H971        3.1440    7.0550    0.9260 hc        1 R96      0.076833
     75 H972        4.1440    8.1280    0.2720 hc        1 R96      0.076833
     76 H973        3.6070    6.9160   -0.6290 hc        1 R96      0.076833
     77 H981        7.1570    6.2390    0.1410 hc        1 R96      0.076833
     78 H982        6.1150    6.0170   -1.0880 hc        1 R96      0.076833
     79 H983        6.3470    7.5180   -0.5050 hc        1 R96      0.076833
     80 H961        4.3280    4.6300   -0.2030 h1        1 R96      0.075000
     81 H962        5.5290    4.3060    0.8370 h1        1 R96      0.075000
@<TRIPOS>BOND
     1    1    2 1   
     2    2    9 1   
     3    3    4 1   
     4    3    8 1   
     5    4    5 1   
     6    4   43 1   
     7    5   44 1   
     8    6    7 1   
     9    7   45 1   
    10    8   46 1   
    11    9   10 1   
    12    9   47 1   
    13   10   11 1   
    14   10   16 1   
    15   10   48 1   
    16   11   12 1   
    17   11   49 1   
    18   11   50 1   
    19   12   13 1   
    20   12   51 1   
    21   13   14 1   
    22   13   52 1   
    23   13   53 1   
    24   14   15 1   
    25   14   54 1   
    26   14   55 1   
    27   15   16 1   
    28   15   56 1   
    29   15   57 1   
    30   16   17 1   
    31   16   58 1   
    32   17   18 1   
    33   17   59 1   
    34   18   19 1   
    35   18   20 1   
    36   20   21 1   
    37   20   23 1   
    38   21   22 1   
    39   21   60 1   
    40   22   61 1   
    41   23   62 1   
    42   24   25 1   
    43   24   63 1   
    44   25   26 1   
    45   26   27 1   
    46   26   28 1   
    47   28   29 1   
    48   28   33 1   
    49   29   30 1   
    50   29   31 1   
    51   30   64 1   
    52   31   65 1   
    53   32   34 1   
    54   32   66 1   
    55   33   67 1   
    56   34   35 1   
    57   35   36 1   
    58   35   42 1   
    59   36   37 1   
    60   36   68 1   
    61   36   69 1   
    62   37   38 1   
    63   37   70 1   
    64   37   71 1   
    65   38   39 1   
    66   38   72 1   
    67   38   73 1   
    68   39   40 1   
    69   39   41 1   
    70   39   42 1   
    71   40   74 1   
    72   40   75 1   
    73   40   76 1   
    74   41   77 1   
    75   41   78 1   
    76   41   79 1   
    77   42   80 1   
    78   42   81 1   
@<TRIPOS>SUBSTRUCTURE
     1 R96         1 TEMP              0 ****  ****    0 ROOT
