@<TRIPOS>MOLECULE
R96
   83    87     1     0     0
SMALL
bcc


@<TRIPOS>ATOM
      1 O22         0.0340   -0.7220   -0.1240 o         1 R96     -0.427100
      2 C21         0.7470   -1.5840   -0.6150 c         1 R96      0.588700
      3 C14         0.9220   -2.9740   -0.1890 ca        1 R96     -0.165600
      4 C13        -0.0330   -3.4900    0.7020 ca        1 R96     -0.192800
      5 C12         0.1170   -4.8260    1.1380 ca        1 R96      0.425700
      6 N11         1.1270   -5.6210    0.7470 nb        1 R96     -0.578000
      7 C16         2.0410   -5.1070   -0.1030 ca        1 R96      0.425700
      8 C15         1.9870   -3.7930   -0.6010 ca        1 R96     -0.192800
      9 N23         1.5600   -1.1570   -1.8380 n4        1 R96     -0.682800
     10 C31         1.0670    0.1100   -2.4790 c3        1 R96      0.116500
     11 C32        -0.2860   -0.1430   -3.2120 c3        1 R96      0.157800
     12 N33        -0.2140   -1.2510   -4.1240 n3        1 R96     -0.871200
     13 C34         0.1740   -0.9190   -5.4800 c3        1 R96      0.149800
     14 C35         1.5850   -0.3520   -5.5900 c3        1 R96     -0.089400
     15 C36         1.7620    0.9570   -4.8490 c3        1 R96     -0.104400
     16 C37         2.1730    0.7430   -3.3820 c3        1 R96      0.125500
     17 N41         2.6590    2.0490   -2.7980 n4        1 R96     -0.698800
     18 C42         3.5850    1.8990   -1.5870 c         1 R96      0.610700
     19 O43         3.6140    0.7610   -1.1190 o         1 R96     -0.531100
     20 C51         4.3070    3.0800   -1.1770 ca        1 R96     -0.235600
     21 C52         5.3250    2.8940   -0.2150 ca        1 R96     -0.054500
     22 C53         6.0960    3.9750    0.2010 ca        1 R96     -0.092000
     23 C56         4.0530    4.3750   -1.6790 ca        1 R96     -0.054500
     24 C55         4.8230    5.4460   -1.2530 ca        1 R96     -0.092000
     25 C54         5.8620    5.2490   -0.3250 ca        1 R96     -0.011600
     26 C61         6.7510    6.3910    0.0600 c         1 R96      0.589300
     27 O62         7.7350    6.6460   -0.6370 o         1 R96     -0.469100
     28 C71         6.4160    7.1090    1.2990 ca        1 R96     -0.185600
     29 C72         5.1170    7.5480    1.6050 ca        1 R96      0.112100
     30 O92         4.1070    7.2850    0.7000 oh        1 R96     -0.537100
     31 C73         4.8750    8.2420    2.7970 ca        1 R96     -0.175000
     32 C74         5.9130    8.5020    3.6800 ca        1 R96     -0.114000
     33 C76         7.4600    7.3850    2.1900 ca        1 R96     -0.095000
     34 C75         7.2360    8.0740    3.4040 ca        1 R96      0.138600
     35 N91         8.2950    8.2340    4.3210 nh        1 R96     -0.637000
     36 C92         9.5120    8.8390    3.7920 c3        1 R96      0.190800
     37 C93        10.6940    8.7090    4.7500 c3        1 R96     -0.081400
     38 C94        10.3470    9.2290    6.1260 c3        1 R96     -0.075400
     39 C95         9.0820    8.5800    6.6810 c3        1 R96     -0.050000
     40 C97         9.3310    7.1220    7.0290 c3        1 R96     -0.089100
     41 C98         8.6490    9.3210    7.9390 c3        1 R96     -0.089100
     42 C96         7.9360    8.6950    5.6530 c3        1 R96      0.189800
     43 H13        -0.8750   -2.8770    1.0610 ha        1 R96      0.160500
     44 H12        -0.6150   -5.2750    1.8410 h4        1 R96      0.069600
     45 H16         2.8620   -5.7920   -0.3950 h4        1 R96      0.069600
     46 H15         2.7850   -3.4520   -1.2720 ha        1 R96      0.160500
     47 H23         1.5240   -1.9220   -2.5280 hn        1 R96      0.477800
     48 H31         0.8180    0.8140   -1.6220 hx        1 R96      0.117700
     49 H321       -0.5820    0.8330   -3.6940 h1        1 R96      0.083200
     50 H322       -1.0530   -0.3600   -2.4090 h1        1 R96      0.083200
     51 H33        -1.0670   -1.7820   -4.1220 hn        1 R96      0.419800
     52 H341       -0.5440   -0.1860   -5.9540 h1        1 R96      0.076700
     53 H342        0.1300   -1.8750   -6.0810 h1        1 R96      0.076700
     54 H351        1.7810   -0.1660   -6.6840 hc        1 R96      0.081200
     55 H352        2.3410   -1.1050   -5.2470 hc        1 R96      0.081200
     56 H361        2.5810    1.5300   -5.3710 hc        1 R96      0.081700
     57 H362        0.8310    1.5770   -4.9220 hc        1 R96      0.081700
     58 H37         3.0900    0.0710   -3.4050 hx        1 R96      0.113700
     59 H41         3.1820    2.5560   -3.5260 hn        1 R96      0.469300
     60 H52         5.5140    1.8880    0.1970 ha        1 R96      0.146000
     61 H53         6.8990    3.8210    0.9450 ha        1 R96      0.189000
     62 H56         3.2440    4.5740   -2.3960 ha        1 R96      0.146000
     63 H55         4.6160    6.4680   -1.6200 ha        1 R96      0.189000
     64 H92         3.3410    7.8220    0.9550 ho        1 R96      0.434000
     65 H73         3.8590    8.5970    3.0270 ha        1 R96      0.147000
     66 H74         5.6850    9.0620    4.6030 ha        1 R96      0.157000
     67 H76         8.4740    7.0450    1.9180 ha        1 R96      0.160000
     68 H921        9.3410    9.9350    3.5770 h1        1 R96      0.041700
     69 H922        9.7780    8.3370    2.8210 h1        1 R96      0.041700
     70 H931       11.0170    7.6380    4.8150 hc        1 R96      0.056700
     71 H932       11.5490    9.2970    4.3250 hc        1 R96      0.056700
     72 H941       11.2000    9.0350    6.8280 hc        1 R96      0.053200
     73 H942       10.1960   10.3400    6.0780 hc        1 R96      0.053200
     74 H971       10.1570    7.0430    7.7770 hc        1 R96      0.041200
     75 H972        8.4110    6.6680    7.4700 hc        1 R96      0.041200
     76 H973        9.6150    6.5380    6.1220 hc        1 R96      0.041200
     77 H981        9.4490    9.2470    8.7160 hc        1 R96      0.041200
     78 H982        7.7120    8.8770    8.3500 hc        1 R96      0.041200
     79 H983        8.4680   10.4010    7.7210 hc        1 R96      0.041200
     80 H961        7.0760    8.0650    6.0200 h1        1 R96      0.040200
     81 H962        7.5990    9.7740    5.6250 h1        1 R96      0.040200
     82 H232        2.5360   -1.0360   -1.5300 hn        1 R96      0.477800
     83 H412        1.8590    2.6310   -2.5260 hn        1 R96      0.469300
@<TRIPOS>BOND
     1    1    2 2   
     2    2    3 1   
     3    2    9 1   
     4    3    4 ar  
     5    3    8 ar  
     6    4    5 ar  
     7    4   43 1   
     8    5    6 ar  
     9    5   44 1   
    10    6    7 ar  
    11    7    8 ar  
    12    7   45 1   
    13    8   46 1   
    14    9   10 1   
    15    9   47 1   
    16    9   82 1   
    17   10   11 1   
    18   10   16 1   
    19   10   48 1   
    20   11   12 1   
    21   11   49 1   
    22   11   50 1   
    23   12   13 1   
    24   12   51 1   
    25   13   14 1   
    26   13   52 1   
    27   13   53 1   
    28   14   15 1   
    29   14   54 1   
    30   14   55 1   
    31   15   16 1   
    32   15   56 1   
    33   15   57 1   
    34   16   17 1   
    35   16   58 1   
    36   17   18 1   
    37   17   59 1   
    38   17   83 1   
    39   18   19 2   
    40   18   20 1   
    41   20   21 ar  
    42   20   23 ar  
    43   21   22 ar  
    44   21   60 1   
    45   22   25 ar  
    46   22   61 1   
    47   23   24 ar  
    48   23   62 1   
    49   24   25 ar  
    50   24   63 1   
    51   25   26 1   
    52   26   27 2   
    53   26   28 1   
    54   28   29 ar  
    55   28   33 ar  
    56   29   30 1   
    57   29   31 ar  
    58   30   64 1   
    59   31   32 ar  
    60   31   65 1   
    61   32   34 ar  
    62   32   66 1   
    63   33   34 ar  
    64   33   67 1   
    65   34   35 1   
    66   35   36 1   
    67   35   42 1   
    68   36   37 1   
    69   36   68 1   
    70   36   69 1   
    71   37   38 1   
    72   37   70 1   
    73   37   71 1   
    74   38   39 1   
    75   38   72 1   
    76   38   73 1   
    77   39   40 1   
    78   39   41 1   
    79   39   42 1   
    80   40   74 1   
    81   40   75 1   
    82   40   76 1   
    83   41   77 1   
    84   41   78 1   
    85   41   79 1   
    86   42   80 1   
    87   42   81 1   
@<TRIPOS>SUBSTRUCTURE
     1 R96         1 TEMP              0 ****  ****    0 ROOT
