@<TRIPOS>MOLECULE
R96
   83    87     1     0     0
SMALL
bcc


@<TRIPOS>ATOM
      1 O22         0.1420    0.5330   -0.5270 o         1 R96     -0.488100
      2 C21         0.3770   -0.6720   -0.5280 c         1 R96      0.605700
      3 C14         0.0140   -1.6730    0.4710 ca        1 R96     -0.172600
      4 C13        -1.0540   -1.3690    1.3330 ca        1 R96     -0.189800
      5 C12        -1.4060   -2.3240    2.3130 ca        1 R96      0.426700
      6 N11        -0.7680   -3.4960    2.4660 nb        1 R96     -0.572000
      7 C16         0.2640   -3.7660    1.6390 ca        1 R96      0.426700
      8 C15         0.6950   -2.8930    0.6250 ca        1 R96     -0.189800
      9 N23         1.1360   -1.1710   -1.7490 ny        1 R96     -0.692800
     10 C31         0.8670   -0.3740   -3.0020 c3        1 R96      0.111500
     11 C32         0.5890   -1.3410   -4.1990 c3        1 R96      0.155800
     12 N33         1.8010   -1.9180   -4.7070 n7        1 R96     -0.862200
     13 C34         2.3240   -1.2620   -5.8920 c3        1 R96      0.150800
     14 C35         2.8990    0.1280   -5.6380 c3        1 R96     -0.092400
     15 C36         2.0230    1.0370   -4.7980 c3        1 R96     -0.091400
     16 C37         2.0380    0.5990   -3.3200 c3        1 R96      0.126500
     17 N41         2.0410    1.7900   -2.3900 ny        1 R96     -0.706800
     18 C42         3.1110    1.7000   -1.2970 c         1 R96      0.614700
     19 O43         3.2710    0.5600   -0.8600 o         1 R96     -0.528100
     20 C51         3.7940    2.9240   -0.9470 ca        1 R96     -0.230600
     21 C52         5.0330    2.7920   -0.2830 ca        1 R96     -0.058000
     22 C53         5.7690    3.9250    0.0490 ca        1 R96     -0.092000
     23 C56         3.2820    4.2110   -1.2170 ca        1 R96     -0.058000
     24 C55         4.0190    5.3340   -0.8730 ca        1 R96     -0.092000
     25 C54         5.2760    5.1970   -0.2580 ca        1 R96     -0.018600
     26 C61         6.1110    6.4080    0.0240 c         1 R96      0.591300
     27 O62         6.8630    6.8360   -0.8530 o         1 R96     -0.471100
     28 C71         6.0170    6.9800    1.3770 ca        1 R96     -0.184600
     29 C72         4.7940    7.2790    1.9980 ca        1 R96      0.113100
     30 O92         3.6270    7.0170    1.3060 oh        1 R96     -0.535100
     31 C73         4.7800    7.8400    3.2820 ca        1 R96     -0.175000
     32 C74         5.9690    8.1030    3.9450 ca        1 R96     -0.115000
     33 C76         7.2130    7.2590    2.0470 ca        1 R96     -0.095000
     34 C75         7.2220    7.8140    3.3480 ca        1 R96      0.137600
     35 N91         8.4460    7.9770    4.0280 nh        1 R96     -0.637000
     36 C92         9.4710    8.7360    3.3210 c3        1 R96      0.190800
     37 C93        10.8430    8.6230    3.9810 c3        1 R96     -0.081400
     38 C94        10.7790    8.9770    5.4490 c3        1 R96     -0.075400
     39 C95         9.7140    8.1690    6.1870 c3        1 R96     -0.050000
     40 C97        10.1300    6.7130    6.3100 c3        1 R96     -0.089100
     41 C98         9.5250    8.7490    7.5830 c3        1 R96     -0.089100
     42 C96         8.3620    8.2790    5.4480 c3        1 R96      0.189800
     43 H13        -1.6030   -0.4180    1.2560 ha        1 R96      0.163000
     44 H12        -2.2440   -2.1290    3.0140 h4        1 R96      0.072600
     45 H16         0.7710   -4.7390    1.8050 h4        1 R96      0.072600
     46 H15         1.5640   -3.1760    0.0160 ha        1 R96      0.163000
     47 H23         2.1450   -1.1490   -1.5270 hn        1 R96      0.480800
     48 H31        -0.0930    0.2060   -2.8360 hx        1 R96      0.119700
     49 H321       -0.1270   -2.1430   -3.8510 h1        1 R96      0.085200
     50 H322        0.0250   -0.7300   -4.9660 h1        1 R96      0.085200
     51 H33         1.7050   -2.9050   -4.8650 hn        1 R96      0.413800
     52 H341        3.1530   -1.9120   -6.2990 h1        1 R96      0.076200
     53 H342        1.5340   -1.1790   -6.6970 h1        1 R96      0.076200
     54 H351        3.9140    0.0370   -5.1670 hc        1 R96      0.084700
     55 H352        3.0460    0.6150   -6.6430 hc        1 R96      0.084700
     56 H361        2.4330    2.0810   -4.9070 hc        1 R96      0.080700
     57 H362        0.9750    1.0620   -5.1920 hc        1 R96      0.080700
     58 H37         3.0260    0.0590   -3.1510 hx        1 R96      0.137700
     59 H41         2.2150    2.6440   -2.9390 hn        1 R96      0.471300
     60 H52         5.4220    1.7880   -0.0410 ha        1 R96      0.147500
     61 H53         6.7450    3.8150    0.5540 ha        1 R96      0.188500
     62 H56         2.2890    4.3580   -1.6670 ha        1 R96      0.147500
     63 H55         3.6150    6.3470   -1.0530 ha        1 R96      0.188500
     64 H92         2.9040    7.4610    1.7760 ho        1 R96      0.434000
     65 H73         3.8200    8.0870    3.7600 ha        1 R96      0.147000
     66 H74         5.9170    8.5560    4.9490 ha        1 R96      0.157000
     67 H76         8.1610    7.0320    1.5300 ha        1 R96      0.159000
     68 H921        9.1840    9.8280    3.2710 h1        1 R96      0.041200
     69 H922        9.5460    8.3530    2.2660 h1        1 R96      0.041200
     70 H931       11.5410    9.3210    3.4510 hc        1 R96      0.056200
     71 H932       11.2420    7.5820    3.8550 hc        1 R96      0.056200
     72 H941       11.7770    8.7950    5.9250 hc        1 R96      0.052700
     73 H942       10.5480   10.0700    5.5580 hc        1 R96      0.052700
     74 H971       10.2430    6.2440    5.3030 hc        1 R96      0.041033
     75 H972       11.1050    6.6380    6.8490 hc        1 R96      0.041033
     76 H973        9.3620    6.1400    6.8840 hc        1 R96      0.041033
     77 H981        9.2290    9.8240    7.5300 hc        1 R96      0.041033
     78 H982       10.4800    8.6730    8.1560 hc        1 R96      0.041033
     79 H983        8.7340    8.1860    8.1340 hc        1 R96      0.041033
     80 H961        7.9590    9.3220    5.6120 h1        1 R96      0.040200
     81 H962        7.6490    7.5450    5.9200 h1        1 R96      0.040200
     82 H232        0.8770   -2.1540   -1.9150 hn        1 R96      0.480800
     83 H412        1.1250    1.8900   -1.9290 hn        1 R96      0.471300
@<TRIPOS>BOND
     1    1    2 2   
     2    2    3 1   
     3    2    9 1   
     4    3    4 ar  
     5    3    8 ar  
     6    4    5 ar  
     7    4   43 1   
     8    5    6 ar  
     9    5   44 1   
    10    6    7 ar  
    11    7    8 ar  
    12    7   45 1   
    13    8   46 1   
    14    9   10 1   
    15    9   47 1   
    16    9   82 1   
    17   10   11 1   
    18   10   16 1   
    19   10   48 1   
    20   11   12 1   
    21   11   49 1   
    22   11   50 1   
    23   12   13 1   
    24   12   51 1   
    25   13   14 1   
    26   13   52 1   
    27   13   53 1   
    28   14   15 1   
    29   14   54 1   
    30   14   55 1   
    31   15   16 1   
    32   15   56 1   
    33   15   57 1   
    34   16   17 1   
    35   16   58 1   
    36   17   18 1   
    37   17   59 1   
    38   17   83 1   
    39   18   19 2   
    40   18   20 1   
    41   20   21 ar  
    42   20   23 ar  
    43   21   22 ar  
    44   21   60 1   
    45   22   25 ar  
    46   22   61 1   
    47   23   24 ar  
    48   23   62 1   
    49   24   25 ar  
    50   24   63 1   
    51   25   26 1   
    52   26   27 2   
    53   26   28 1   
    54   28   29 ar  
    55   28   33 ar  
    56   29   30 1   
    57   29   31 ar  
    58   30   64 1   
    59   31   32 ar  
    60   31   65 1   
    61   32   34 ar  
    62   32   66 1   
    63   33   34 ar  
    64   33   67 1   
    65   34   35 1   
    66   35   36 1   
    67   35   42 1   
    68   36   37 1   
    69   36   68 1   
    70   36   69 1   
    71   37   38 1   
    72   37   70 1   
    73   37   71 1   
    74   38   39 1   
    75   38   72 1   
    76   38   73 1   
    77   39   40 1   
    78   39   41 1   
    79   39   42 1   
    80   40   74 1   
    81   40   75 1   
    82   40   76 1   
    83   41   77 1   
    84   41   78 1   
    85   41   79 1   
    86   42   80 1   
    87   42   81 1   
@<TRIPOS>SUBSTRUCTURE
     1 R96         1 TEMP              0 ****  ****    0 ROOT
