@<TRIPOS>MOLECULE
R96
   81    85     1     0     0
SMALL
bcc


@<TRIPOS>ATOM
      1 O22        -4.2090    2.6330   -1.1390 o         1 R96     -0.613100
      2 C21        -4.2510    2.3150    0.0690 c         1 R96      0.665700
      3 C14        -3.3910    3.0040    1.0780 ca        1 R96     -0.106600
      4 C13        -3.0740    4.3520    0.8730 ca        1 R96     -0.210300
      5 C12        -2.2570    4.9970    1.8180 ca        1 R96      0.386700
      6 N11        -1.7580    4.3870    2.9100 nb        1 R96     -0.649000
      7 C16        -2.0660    3.0880    3.0870 ca        1 R96      0.386700
      8 C15        -2.8780    2.3510    2.2040 ca        1 R96     -0.210300
      9 N23        -5.1250    1.3570    0.5370 n         1 R96     -0.554900
     10 C31        -5.9500    0.5610   -0.3420 c3        1 R96      0.084700
     11 C32        -7.3880    0.5070    0.2490 c3        1 R96      0.162800
     12 N33        -8.3270   -0.3720   -0.4040 n3        1 R96     -0.839200
     13 C34        -8.1910   -0.5650   -1.8290 c3        1 R96      0.169800
     14 C35        -7.2280   -1.6990   -2.1780 c3        1 R96     -0.076400
     15 C36        -5.7750   -1.3220   -2.0210 c3        1 R96     -0.088400
     16 C37        -5.4120   -0.8970   -0.5850 c3        1 R96      0.094700
     17 N41        -3.9870   -1.0560   -0.3760 n         1 R96     -0.557900
     18 C42        -3.4090   -1.1410    0.8690 c         1 R96      0.668700
     19 O43        -4.0790   -1.0150    1.9190 o         1 R96     -0.626100
     20 C51        -1.9420   -1.4230    0.9230 ca        1 R96     -0.116600
     21 C52        -1.4810   -2.3180    1.8960 ca        1 R96     -0.108500
     22 C53        -0.1210   -2.6030    1.9880 ca        1 R96     -0.088500
     23 C56        -1.0380   -0.8050    0.0540 ca        1 R96     -0.108500
     24 C55         0.3230   -1.0930    0.1480 ca        1 R96     -0.088500
     25 C54         0.7890   -1.9990    1.1090 ca        1 R96     -0.173600
     26 C61         2.2340   -2.2970    1.2530 c         1 R96      0.584300
     27 O62         2.6750   -2.8090    2.2890 o         1 R96     -0.511100
     28 C71         3.1360   -1.9290    0.1370 ca        1 R96     -0.223600
     29 C72         2.9530   -2.3680   -1.1840 ca        1 R96      0.132100
     30 O92         1.9330   -3.1940   -1.5970 oh        1 R96     -0.496100
     31 C73         3.8630   -1.9880   -2.1850 ca        1 R96     -0.145000
     32 C74         4.9490   -1.1860   -1.8710 ca        1 R96     -0.126000
     33 C76         4.2410   -1.1260    0.4430 ca        1 R96     -0.079000
     34 C75         5.1620   -0.7310   -0.5490 ca        1 R96      0.097600
     35 N91         6.2130    0.1590   -0.1980 nh        1 R96     -0.631000
     36 C92         7.1210   -0.3470    0.8250 c3        1 R96      0.185800
     37 C93         8.0690    0.7330    1.3420 c3        1 R96     -0.080400
     38 C94         8.8050    1.4100    0.2080 c3        1 R96     -0.071400
     39 C95         7.8540    1.9290   -0.8680 c3        1 R96     -0.051000
     40 C97         7.0630    3.1220   -0.3580 c3        1 R96     -0.087100
     41 C98         8.6620    2.3560   -2.0860 c3        1 R96     -0.087100
     42 C96         6.8950    0.8010   -1.3080 c3        1 R96      0.189800
     43 H13        -3.4490    4.8830   -0.0140 ha        1 R96      0.163500
     44 H12        -1.9850    6.0610    1.6950 h4        1 R96      0.028100
     45 H16        -1.6390    2.6100    3.9870 h4        1 R96      0.028100
     46 H15        -3.0790    1.2870    2.4070 ha        1 R96      0.163500
     47 H23        -5.0370    1.0290    1.4740 hn        1 R96      0.332500
     48 H31        -5.9880    1.0920   -1.3410 h1        1 R96      0.086700
     49 H321       -7.7690    1.5730    0.2670 h1        1 R96      0.040200
     50 H322       -7.3310    0.1480    1.3190 h1        1 R96      0.040200
     51 H33        -9.2600   -0.0810   -0.1780 hn        1 R96      0.371800
     52 H341       -7.8590    0.3720   -2.3650 h1        1 R96      0.032200
     53 H342       -9.2050   -0.8420   -2.2410 h1        1 R96      0.032200
     54 H351       -7.4070   -1.9790   -3.2510 hc        1 R96      0.052700
     55 H352       -7.4550   -2.6010   -1.5510 hc        1 R96      0.052700
     56 H361       -5.5180   -0.4920   -2.7320 hc        1 R96      0.048700
     57 H362       -5.1610   -2.2160   -2.3200 hc        1 R96      0.048700
     58 H37        -5.9290   -1.5780    0.1570 h1        1 R96      0.091700
     59 H41        -3.4030   -1.0400   -1.1790 hn        1 R96      0.317500
     60 H52        -2.1990   -2.7800    2.5920 ha        1 R96      0.154500
     61 H53         0.2540   -3.2970    2.7590 ha        1 R96      0.160000
     62 H56        -1.3820   -0.0760   -0.6960 ha        1 R96      0.154500
     63 H55         1.0360   -0.6050   -0.5370 ha        1 R96      0.160000
     64 H92         1.3290   -3.3300   -0.8530 ho        1 R96      0.425000
     65 H73         3.7040   -2.3460   -3.2130 ha        1 R96      0.154000
     66 H74         5.6460   -0.9120   -2.6780 ha        1 R96      0.141000
     67 H76         4.3730   -0.8020    1.4900 ha        1 R96      0.154000
     68 H921        7.7380   -1.2050    0.4260 h1        1 R96      0.038200
     69 H922        6.5080   -0.7370    1.6850 h1        1 R96      0.038200
     70 H931        8.8030    0.2490    2.0370 hc        1 R96      0.050700
     71 H932        7.4930    1.4940    1.9310 hc        1 R96      0.050700
     72 H941        9.5170    0.6790   -0.2600 hc        1 R96      0.042700
     73 H942        9.4120    2.2630    0.6080 hc        1 R96      0.042700
     74 H971        6.3910    3.5110   -1.1610 hc        1 R96      0.037700
     75 H972        6.4350    2.8370    0.5200 hc        1 R96      0.037700
     76 H973        7.7580    3.9400   -0.0500 hc        1 R96      0.037700
     77 H981        9.3600    3.1810   -1.8090 hc        1 R96      0.037700
     78 H982        9.2610    1.5020   -2.4830 hc        1 R96      0.037700
     79 H983        7.9820    2.7200   -2.8930 hc        1 R96      0.037700
     80 H961        6.1130    1.2460   -1.9860 h1        1 R96      0.036200
     81 H962        7.4970    0.0530   -1.9070 h1        1 R96      0.036200
@<TRIPOS>BOND
     1    1    2 2   
     2    2    3 1   
     3    2    9 1   
     4    3    4 ar  
     5    3    8 ar  
     6    4    5 ar  
     7    4   43 1   
     8    5    6 ar  
     9    5   44 1   
    10    6    7 ar  
    11    7    8 ar  
    12    7   45 1   
    13    8   46 1   
    14    9   10 1   
    15    9   47 1   
    16   10   11 1   
    17   10   16 1   
    18   10   48 1   
    19   11   12 1   
    20   11   49 1   
    21   11   50 1   
    22   12   13 1   
    23   12   51 1   
    24   13   14 1   
    25   13   52 1   
    26   13   53 1   
    27   14   15 1   
    28   14   54 1   
    29   14   55 1   
    30   15   16 1   
    31   15   56 1   
    32   15   57 1   
    33   16   17 1   
    34   16   58 1   
    35   17   18 1   
    36   17   59 1   
    37   18   19 2   
    38   18   20 1   
    39   20   21 ar  
    40   20   23 ar  
    41   21   22 ar  
    42   21   60 1   
    43   22   25 ar  
    44   22   61 1   
    45   23   24 ar  
    46   23   62 1   
    47   24   25 ar  
    48   24   63 1   
    49   25   26 1   
    50   26   27 2   
    51   26   28 1   
    52   28   29 ar  
    53   28   33 ar  
    54   29   30 1   
    55   29   31 ar  
    56   30   64 1   
    57   31   32 ar  
    58   31   65 1   
    59   32   34 ar  
    60   32   66 1   
    61   33   34 ar  
    62   33   67 1   
    63   34   35 1   
    64   35   36 1   
    65   35   42 1   
    66   36   37 1   
    67   36   68 1   
    68   36   69 1   
    69   37   38 1   
    70   37   70 1   
    71   37   71 1   
    72   38   39 1   
    73   38   72 1   
    74   38   73 1   
    75   39   40 1   
    76   39   41 1   
    77   39   42 1   
    78   40   74 1   
    79   40   75 1   
    80   40   76 1   
    81   41   77 1   
    82   41   78 1   
    83   41   79 1   
    84   42   80 1   
    85   42   81 1   
@<TRIPOS>SUBSTRUCTURE
     1 R96         1 TEMP              0 ****  ****    0 ROOT
