@<TRIPOS>MOLECULE
R96
   83    87     1     0     0
SMALL
bcc


@<TRIPOS>ATOM
      1 O22        -0.1890   -2.9340   -1.9230 o         1 R96     -0.393100
      2 C21         0.5440   -2.1590   -1.3290 c         1 R96      0.573700
      3 C14         0.5550   -1.8440    0.1020 ca        1 R96     -0.164600
      4 C13        -0.6080   -2.1650    0.8230 ca        1 R96     -0.197300
      5 C12        -0.6210   -1.9140    2.2130 ca        1 R96      0.420700
      6 N11         0.4230   -1.3940    2.8780 nb        1 R96     -0.582000
      7 C16         1.5370   -1.1070    2.1740 ca        1 R96      0.420700
      8 C15         1.6570   -1.3090    0.7870 ca        1 R96     -0.197300
      9 N23         1.5620   -1.4500   -2.2230 n4        1 R96     -0.682800
     10 C31         1.0140   -0.1770   -2.8060 c3        1 R96      0.121500
     11 C32        -0.2500   -0.4800   -3.6760 c3        1 R96      0.169800
     12 N33         0.0110   -1.4950   -4.6530 n3        1 R96     -0.876200
     13 C34         0.4330   -1.0250   -5.9540 c3        1 R96      0.156800
     14 C35         1.7870   -0.3230   -5.9250 c3        1 R96     -0.090400
     15 C36         1.8000    0.9160   -5.0530 c3        1 R96     -0.103400
     16 C37         2.1280    0.5990   -3.5820 c3        1 R96      0.124500
     17 N41         2.4950    1.8800   -2.8680 n4        1 R96     -0.698800
     18 C42         3.4260    1.6960   -1.6670 c         1 R96      0.611700
     19 O43         3.4500    0.5480   -1.2250 o         1 R96     -0.538100
     20 C51         4.1620    2.8620   -1.2390 ca        1 R96     -0.237600
     21 C52         5.2520    2.6390   -0.3680 ca        1 R96     -0.056000
     22 C53         6.0360    3.7080    0.0530 ca        1 R96     -0.091000
     23 C56         3.8500    4.1800   -1.6390 ca        1 R96     -0.056000
     24 C55         4.6330    5.2380   -1.2070 ca        1 R96     -0.091000
     25 C54         5.7430    5.0070   -0.3750 ca        1 R96     -0.010600
     26 C61         6.6430    6.1410    0.0110 c         1 R96      0.589300
     27 O62         7.5720    6.4480   -0.7380 o         1 R96     -0.467100
     28 C71         6.3870    6.7820    1.3090 ca        1 R96     -0.184600
     29 C72         5.1100    7.1950    1.7220 ca        1 R96      0.111100
     30 O92         4.0440    6.9800    0.8700 oh        1 R96     -0.538100
     31 C73         4.9430    7.8180    2.9650 ca        1 R96     -0.174000
     32 C74         6.0340    8.0310    3.7950 ca        1 R96     -0.115000
     33 C76         7.4850    7.0100    2.1470 ca        1 R96     -0.096000
     34 C75         7.3380    7.6260    3.4110 ca        1 R96      0.140600
     35 N91         8.4520    7.7370    4.2670 nh        1 R96     -0.638000
     36 C92         9.6350    8.3720    3.6990 c3        1 R96      0.190800
     37 C93        10.8740    8.1900    4.5720 c3        1 R96     -0.081400
     38 C94        10.6150    8.6300    5.9940 c3        1 R96     -0.075400
     39 C95         9.3860    7.9480    6.5890 c3        1 R96     -0.050000
     40 C97         9.6530    6.4730    6.8380 c3        1 R96     -0.089100
     41 C98         9.0340    8.6170    7.9120 c3        1 R96     -0.089100
     42 C96         8.1780    8.1200    5.6430 c3        1 R96      0.189800
     43 H13        -1.4840   -2.6140    0.3290 ha        1 R96      0.166500
     44 H12        -1.5180   -2.1540    2.8210 h4        1 R96      0.067100
     45 H16         2.3840   -0.7010    2.7630 h4        1 R96      0.067100
     46 H15         2.6150   -1.0680    0.3050 ha        1 R96      0.166500
     47 H23         2.4150   -1.2510   -1.6860 hn        1 R96      0.475800
     48 H31         0.6490    0.4340   -1.9240 hx        1 R96      0.098700
     49 H321       -1.0620   -0.8300   -2.9710 h1        1 R96      0.079700
     50 H322       -0.5890    0.5050   -4.1090 h1        1 R96      0.079700
     51 H33        -0.7360   -2.1620   -4.7180 hn        1 R96      0.430800
     52 H341        0.5160   -1.9280   -6.6280 h1        1 R96      0.077200
     53 H342       -0.3260   -0.3240   -6.4140 h1        1 R96      0.077200
     54 H351        2.0210   -0.0100   -6.9810 hc        1 R96      0.082700
     55 H352        2.5930   -1.0360   -5.6090 hc        1 R96      0.082700
     56 H361        0.8260    1.4660   -5.1400 hc        1 R96      0.080700
     57 H362        2.6010    1.5980   -5.4600 hc        1 R96      0.080700
     58 H37         3.0850   -0.0160   -3.5970 hx        1 R96      0.116700
     59 H41         2.9750    2.4990   -3.5380 hn        1 R96      0.468800
     60 H52         5.4880    1.6140   -0.0350 ha        1 R96      0.145500
     61 H53         6.8960    3.5260    0.7220 ha        1 R96      0.190000
     62 H56         2.9790    4.4040   -2.2730 ha        1 R96      0.145500
     63 H55         4.3810    6.2760   -1.4920 ha        1 R96      0.190000
     64 H92         3.2990    7.5080    1.1950 ho        1 R96      0.435000
     65 H73         3.9430    8.1550    3.2790 ha        1 R96      0.147000
     66 H74         5.8650    8.5360    4.7600 ha        1 R96      0.158000
     67 H76         8.4800    6.6920    1.7910 ha        1 R96      0.160000
     68 H921        9.8400    7.9260    2.6860 h1        1 R96      0.041200
     69 H922        9.4540    9.4790    3.5570 h1        1 R96      0.041200
     70 H931       11.7030    8.8020    4.1280 hc        1 R96      0.056700
     71 H932       11.1980    7.1160    4.5560 hc        1 R96      0.056700
     72 H941       11.5100    8.3980    6.6290 hc        1 R96      0.053200
     73 H942       10.4630    9.7420    6.0180 hc        1 R96      0.053200
     74 H971        8.7610    5.9940    7.3090 hc        1 R96      0.041200
     75 H972        9.8780    5.9420    5.8830 hc        1 R96      0.041200
     76 H973       10.5250    6.3540    7.5260 hc        1 R96      0.041200
     77 H981        8.1230    8.1480    8.3550 hc        1 R96      0.041200
     78 H982        9.8800    8.4990    8.6310 hc        1 R96      0.041200
     79 H983        8.8410    9.7070    7.7670 hc        1 R96      0.041200
     80 H961        7.8420    9.1980    5.6970 h1        1 R96      0.040200
     81 H962        7.3420    7.4690    6.0270 h1        1 R96      0.040200
     82 H232        1.7960   -2.0900   -3.0010 hn        1 R96      0.475800
     83 H412        1.6460    2.3630   -2.5530 hn        1 R96      0.468800
@<TRIPOS>BOND
     1    1    2 2   
     2    2    3 1   
     3    2    9 1   
     4    3    4 ar  
     5    3    8 ar  
     6    4    5 ar  
     7    4   43 1   
     8    5    6 ar  
     9    5   44 1   
    10    6    7 ar  
    11    7    8 ar  
    12    7   45 1   
    13    8   46 1   
    14    9   10 1   
    15    9   47 1   
    16    9   82 1   
    17   10   11 1   
    18   10   16 1   
    19   10   48 1   
    20   11   12 1   
    21   11   49 1   
    22   11   50 1   
    23   12   13 1   
    24   12   51 1   
    25   13   14 1   
    26   13   52 1   
    27   13   53 1   
    28   14   15 1   
    29   14   54 1   
    30   14   55 1   
    31   15   16 1   
    32   15   56 1   
    33   15   57 1   
    34   16   17 1   
    35   16   58 1   
    36   17   18 1   
    37   17   59 1   
    38   17   83 1   
    39   18   19 2   
    40   18   20 1   
    41   20   21 ar  
    42   20   23 ar  
    43   21   22 ar  
    44   21   60 1   
    45   22   25 ar  
    46   22   61 1   
    47   23   24 ar  
    48   23   62 1   
    49   24   25 ar  
    50   24   63 1   
    51   25   26 1   
    52   26   27 2   
    53   26   28 1   
    54   28   29 ar  
    55   28   33 ar  
    56   29   30 1   
    57   29   31 ar  
    58   30   64 1   
    59   31   32 ar  
    60   31   65 1   
    61   32   34 ar  
    62   32   66 1   
    63   33   34 ar  
    64   33   67 1   
    65   34   35 1   
    66   35   36 1   
    67   35   42 1   
    68   36   37 1   
    69   36   68 1   
    70   36   69 1   
    71   37   38 1   
    72   37   70 1   
    73   37   71 1   
    74   38   39 1   
    75   38   72 1   
    76   38   73 1   
    77   39   40 1   
    78   39   41 1   
    79   39   42 1   
    80   40   74 1   
    81   40   75 1   
    82   40   76 1   
    83   41   77 1   
    84   41   78 1   
    85   41   79 1   
    86   42   80 1   
    87   42   81 1   
@<TRIPOS>SUBSTRUCTURE
     1 R96         1 TEMP              0 ****  ****    0 ROOT
