@<TRIPOS>MOLECULE
R99
   53    53     1     0     0
SMALL
bcc


@<TRIPOS>ATOM
      1 C4         -0.5700   -1.3930    0.8480 c         1 R99      0.632100
      2 O9          0.2340   -1.6570    1.7760 o         1 R99     -0.684100
      3 C3         -1.9190   -2.1200    0.7640 c3        1 R99      0.093100
      4 O8         -1.8370   -3.3390    1.4800 oh        1 R99     -0.607800
      5 C2         -3.0200   -1.2200    1.3040 c3        1 R99     -0.225400
      6 C1         -3.2820   -0.0130    0.3970 c         1 R99      0.899600
      7 O6         -3.7020    1.0530    0.9290 o         1 R99     -0.844300
      8 O7         -3.0570   -0.1140   -0.8490 o         1 R99     -0.844300
      9 N5         -0.2780   -0.4800   -0.1380 n         1 R99     -0.541900
     10 C10         0.7650    0.5040    0.0260 c3        1 R99      0.041700
     11 C11         2.1290    0.0090   -0.5230 c         1 R99      0.650100
     12 O26         2.7820    0.6720   -1.3560 o         1 R99     -0.641100
     13 C12         0.4150    1.8440   -0.6410 c3        1 R99     -0.076400
     14 C13        -0.6850    2.5650    0.1170 c3        1 R99     -0.055100
     15 C14        -1.3650    3.5790   -0.7360 ca        1 R99     -0.073300
     16 C15        -2.6950    3.3630   -1.1270 ca        1 R99     -0.117000
     17 C19        -0.7050    4.7440   -1.1380 ca        1 R99     -0.117000
     18 C16        -3.3460    4.3110   -1.9140 ca        1 R99     -0.147500
     19 C18        -1.3620    5.6880   -1.9250 ca        1 R99     -0.147500
     20 C17        -2.6840    5.4730   -2.3140 ca        1 R99     -0.148000
     21 C25         7.0210   -1.5260   -0.4660 c3        1 R99     -0.089600
     22 C23         6.1610   -2.5020    0.3090 c3        1 R99     -0.065700
     23 C24         6.9260   -3.0340    1.5040 c3        1 R99     -0.089600
     24 C22         4.8620   -1.8560    0.7650 c3        1 R99     -0.100400
     25 C21         3.8670   -1.7390   -0.3940 c3        1 R99      0.093000
     26 N20         2.5990   -1.1830   -0.0230 n         1 R99     -0.568900
     27 H31        -2.1520   -2.4190   -0.2980 h1        1 R99      0.110700
     28 HO8        -1.4800   -3.1340    2.3550 ho        1 R99      0.408000
     29 H21        -3.9650   -1.8170    1.3700 hc        1 R99      0.050200
     30 H22        -2.7640   -0.8650    2.3330 hc        1 R99      0.050200
     31 HN5        -1.0240   -0.2400   -0.7760 hn        1 R99      0.373500
     32 H101        0.9300    0.6880    1.1350 h1        1 R99      0.071700
     33 H121        1.3420    2.4750   -0.6680 hc        1 R99      0.063200
     34 H122        0.1070    1.6690   -1.7050 hc        1 R99      0.063200
     35 H131       -1.4620    1.8330    0.4870 hc        1 R99      0.069200
     36 H132       -0.2450    3.0680    1.0190 hc        1 R99      0.069200
     37 H151       -3.2150    2.4340   -0.7980 ha        1 R99      0.166000
     38 H191        0.3390    4.9110   -0.8340 ha        1 R99      0.166000
     39 H161       -4.3880    4.1390   -2.2190 ha        1 R99      0.117000
     40 H181       -0.8380    6.6010   -2.2390 ha        1 R99      0.117000
     41 H171       -3.2020    6.2160   -2.9350 ha        1 R99      0.109000
     42 H251        7.2980   -0.6530    0.1740 hc        1 R99      0.031533
     43 H252        7.9600   -2.0240   -0.8090 hc        1 R99      0.031533
     44 H253        6.4730   -1.1450   -1.3620 hc        1 R99      0.031533
     45 H231        5.9130   -3.3710   -0.3660 hc        1 R99      0.044700
     46 H241        7.1530   -2.2090    2.2210 hc        1 R99      0.031533
     47 H242        6.3260   -3.8110    2.0370 hc        1 R99      0.031533
     48 H243        7.8890   -3.4930    1.1760 hc        1 R99      0.031533
     49 H221        4.4090   -2.4740    1.5850 hc        1 R99      0.046700
     50 H222        5.0760   -0.8420    1.1900 hc        1 R99      0.046700
     51 H211        4.3210   -1.1030   -1.2080 h1        1 R99      0.050700
     52 H212        3.6920   -2.7720   -0.8160 h1        1 R99      0.050700
     53 H20         2.0820   -1.6510    0.6900 hn        1 R99      0.341500
@<TRIPOS>BOND
     1    1    2 2   
     2    1    3 1   
     3    1    9 1   
     4    3    4 1   
     5    3    5 1   
     6    3   27 1   
     7    4   28 1   
     8    5    6 1   
     9    5   29 1   
    10    5   30 1   
    11    6    7 1   
    12    6    8 1   
    13    9   10 1   
    14    9   31 1   
    15   10   11 1   
    16   10   13 1   
    17   10   32 1   
    18   11   12 2   
    19   11   26 1   
    20   13   14 1   
    21   13   33 1   
    22   13   34 1   
    23   14   15 1   
    24   14   35 1   
    25   14   36 1   
    26   15   16 ar  
    27   15   17 ar  
    28   16   18 ar  
    29   16   37 1   
    30   17   19 ar  
    31   17   38 1   
    32   18   20 ar  
    33   18   39 1   
    34   19   20 ar  
    35   19   40 1   
    36   20   41 1   
    37   21   22 1   
    38   21   42 1   
    39   21   43 1   
    40   21   44 1   
    41   22   23 1   
    42   22   24 1   
    43   22   45 1   
    44   23   46 1   
    45   23   47 1   
    46   23   48 1   
    47   24   25 1   
    48   24   49 1   
    49   24   50 1   
    50   25   26 1   
    51   25   51 1   
    52   25   52 1   
    53   26   53 1   
@<TRIPOS>SUBSTRUCTURE
     1 R99         1 TEMP              0 ****  ****    0 ROOT
