@<TRIPOS>MOLECULE
R9B
   64    63     1     0     0
SMALL
bcc


@<TRIPOS>ATOM
      1 C27        -0.5030   -0.8650   -0.1690 c2        1 R9B      0.406000
      2 O28        -0.9820   -1.7560   -0.8740 o         1 R9B     -0.286000
      3 C15        -0.7910   -0.3800    1.0700 c1        1 R9B     -0.474000
      4 C16        -4.5080   -1.0170    2.5460 c1        1 R9B     -0.095000
      5 C17        -3.6660   -0.5830    3.2780 c1        1 R9B     -0.259000
      6 C20        -2.6690    0.0380    4.1200 c3        1 R9B      0.240000
      7 C19        -1.4810    0.5310    3.3700 c2        1 R9B     -0.303000
      8 C18        -1.1220    0.0330    2.1780 c1        1 R9B      0.194000
      9 C24        -0.7090    1.6010    4.0000 c2        1 R9B     -0.179000
     10 C23        -0.5160    2.7400    3.3180 c1        1 R9B      0.159000
     11 C22        -2.7980   -1.9900    5.5480 c2        1 R9B      0.216000
     12 O26        -2.4530   -2.8320    6.5410 os        1 R9B     -0.124000
     13 N21        -2.2150   -0.8610    5.2260 n3        1 R9B     -0.213000
     14 O25        -0.2520    1.2840    5.2760 oh        1 R9B     -0.280000
     15 N29         0.6790   -0.1470   -0.8410 n4        1 R9B     -0.139000
     16 C30         1.9470   -1.6180   -4.4890 c2        1 R9B     -0.243000
     17 C31         1.6460   -0.1680   -4.5200 c2        1 R9B      0.369000
     18 O32         1.3570    0.4560   -3.4680 o         1 R9B     -0.455000
     19 C33         1.4680   -2.5090   -5.3620 c2        1 R9B     -0.065000
     20 C34         1.7360   -3.9700   -5.3050 c3        1 R9B     -0.038000
     21 C35         0.9400   -1.5670    6.6800 c2        1 R9B     -0.056000
     22 C39         2.7120   -4.3700   -4.3360 c1        1 R9B     -0.203000
     23 C36        -0.2100   -2.0900    6.9780 c1        1 R9B     -0.254000
     24 C38         3.5260   -4.7490   -3.5450 c1        1 R9B     -0.166000
     25 C37        -1.3370   -2.6160    7.3680 c2        1 R9B     -0.007000
     26 C1          0.7680    4.4310   -9.8960 c3        1 R9B     -0.053000
     27 C2          1.6170    5.1500   -8.8570 c2        1 R9B      0.073000
     28 C3          2.2730    6.2600   -9.0930 c1        1 R9B     -0.083000
     29 C4          1.5410    4.4210   -7.6150 c2        1 R9B     -0.239000
     30 CL5         3.0230    7.5650   -9.3710 cl        1 R9B      0.481000
     31 C6          0.7270    3.3080   -7.7700 c2        1 R9B      0.134000
     32 C7          0.2090    3.2580   -9.1200 c2        1 R9B     -0.279000
     33 N8         -0.5770    2.3100   -9.6710 n3        1 R9B      0.001000
     34 C9         -0.2720    1.6930  -10.8790 c1        1 R9B      0.210000
     35 C10        -0.8340    1.9380   -6.4750 c2        1 R9B     -0.146000
     36 C11         0.4170    2.3490   -6.7260 c2        1 R9B     -0.147000
     37 C13         1.5850    1.9070   -5.8700 c3        1 R9B      0.007000
     38 N14         1.7130    0.4840   -5.7330 n         1 R9B     -0.369000
     39 H16        -5.2570   -1.4060    1.8980 ha        1 R9B      0.246000
     40 H18         1.7680   -2.1680    6.2680 ha        1 R9B      0.159500
     41 H17        -3.1480    0.9180    4.6670 h1        1 R9B      0.149000
     42 H21        -1.3740   -0.5340    5.6870 hn        1 R9B      0.292000
     43 H23        -3.7080   -2.3700    5.0160 h5        1 R9B      0.249000
     44 H25         0.0710    2.1030    5.6780 ho        1 R9B      0.226000
     45 H29         0.3960    0.7900   -1.1310 hn        1 R9B      0.247667
     46 H30         1.4620   -0.0690   -0.1950 hn        1 R9B      0.247667
     47 H331        2.5990   -1.9140   -3.6490 ha        1 R9B      0.169000
     48 H332        0.8010   -2.2100   -6.1900 ha        1 R9B      0.126000
     49 H35         1.1490   -0.4900    6.8120 ha        1 R9B      0.159500
     50 H39         2.0740   -4.3110   -6.3290 hc        1 R9B      0.131000
     51 H36         0.7600   -4.4990   -5.0910 hc        1 R9B      0.131000
     52 H38        -1.5710   -3.0540    8.3570 h4        1 R9B      0.221000
     53 H37         4.2500   -5.0980   -2.8510 ha        1 R9B      0.235000
     54 H1          1.3960    4.1020  -10.7650 hc        1 R9B      0.147000
     55 H2         -0.0500    5.1070  -10.2610 hc        1 R9B      0.147000
     56 H4          2.0420    4.7330   -6.6970 ha        1 R9B      0.182000
     57 H8         -0.9190    1.6280   -8.9950 hn        1 R9B      0.252000
     58 H10        -1.7120    2.3060   -7.0250 ha        1 R9B      0.140500
     59 H131       -1.0580    1.2330   -5.6600 ha        1 R9B      0.140500
     60 H132        2.5400    2.3140   -6.3150 h1        1 R9B      0.118500
     61 H14         1.4550    2.3640   -4.8440 h1        1 R9B      0.118500
     62 H292        0.9690   -0.6590   -1.6850 hn        1 R9B      0.247667
     63 H142        2.0000   -0.0310   -6.5330 hn        1 R9B      0.237000
     64 O12        -0.5320    1.6070  -12.0300 o         1 R9B     -0.056000
@<TRIPOS>BOND
     1    1    2 1   
     2    1    3 1   
     3    1   15 1   
     4    3    8 1   
     5    4    5 1   
     6    4   39 1   
     7    5    6 1   
     8    6    7 1   
     9    6   13 1   
    10    6   41 1   
    11    7    8 1   
    12    7    9 1   
    13    9   10 1   
    14    9   14 1   
    15   11   12 1   
    16   11   13 1   
    17   11   43 1   
    18   12   25 1   
    19   13   42 1   
    20   14   44 1   
    21   15   45 1   
    22   15   46 1   
    23   15   62 1   
    24   16   17 1   
    25   16   19 1   
    26   16   47 1   
    27   17   18 1   
    28   17   38 1   
    29   19   20 1   
    30   19   48 1   
    31   20   22 1   
    32   20   50 1   
    33   20   51 1   
    34   21   23 1   
    35   21   40 1   
    36   21   49 1   
    37   22   24 1   
    38   23   25 1   
    39   24   53 1   
    40   25   52 1   
    41   26   27 1   
    42   26   32 1   
    43   26   54 1   
    44   26   55 1   
    45   27   28 1   
    46   27   29 1   
    47   28   30 1   
    48   29   31 1   
    49   29   56 1   
    50   31   32 1   
    51   31   36 1   
    52   32   33 1   
    53   33   34 1   
    54   33   57 1   
    55   34   64 1   
    56   35   36 1   
    57   35   58 1   
    58   35   59 1   
    59   36   37 1   
    60   37   38 1   
    61   37   60 1   
    62   37   61 1   
    63   38   63 1   
@<TRIPOS>SUBSTRUCTURE
     1 R9B         1 TEMP              0 ****  ****    0 ROOT
