@<TRIPOS>MOLECULE
R9P
   50    54     1     0     0
SMALL
bcc


@<TRIPOS>ATOM
      1 C13         0.0010    0.6090   -0.5010 c3        1 R9P     -0.076900
      2 C14         1.4940    0.2870   -0.4660 c3        1 R9P      0.164300
      3 N3          1.9100   -0.3430    0.7710 n7        1 R9P     -0.820200
      4 C15         1.5100    0.3830    1.9590 c3        1 R9P      0.164300
      5 C16         0.0170    0.7100    1.9880 c3        1 R9P     -0.076900
      6 C12        -0.4050    1.4280    0.7160 c3        1 R9P     -0.077700
      7 C11        -1.9220    1.6530    0.6750 c3        1 R9P      0.198800
      8 N2         -2.3860    2.6380    1.6200 nu        1 R9P     -0.745600
      9 C10        -3.7430    2.7490    1.8990 ca        1 R9P      0.203600
     10 C17        -4.1650    3.4540    3.0560 ca        1 R9P     -0.212000
     11 C18        -5.5200    3.6560    3.3050 ca        1 R9P      0.106400
     12 Cl1        -5.9670    4.4950    4.7110 cl        1 R9P     -0.065400
     13 C9         -4.7350    2.2410    1.0230 ca        1 R9P     -0.204000
     14 C8         -6.0800    2.4500    1.2890 ca        1 R9P     -0.054000
     15 C7         -6.4900    3.1550    2.4250 ca        1 R9P     -0.210900
     16 C6         -7.9410    3.3730    2.6570 cc        1 R9P      0.545500
     17 N4         -8.4230    4.6190    2.6680 nd        1 R9P     -0.564300
     18 C19        -9.7800    4.7210    2.8850 cd        1 R9P      0.175400
     19 C20       -10.6540    5.8830    2.9710 ca        1 R9P     -0.101800
     20 C21       -10.4750    7.2580    2.8770 ca        1 R9P     -0.026000
     21 C22       -11.5990    8.0760    3.0220 ca        1 R9P     -0.057900
     22 Br1       -11.4040    9.9360    2.9030 br        1 R9P     -0.081100
     23 C1        -12.8770    7.5360    3.2560 ca        1 R9P     -0.072000
     24 C2        -13.0820    6.1620    3.3540 ca        1 R9P     -0.130000
     25 C3        -11.9610    5.3500    3.2090 ca        1 R9P      0.093100
     26 O1        -11.9520    3.9510    3.2740 os        1 R9P     -0.142200
     27 C4        -10.6130    3.6010    3.0720 cc        1 R9P     -0.107100
     28 C5        -10.1020    2.2440    3.0580 c         1 R9P      0.728700
     29 O2        -10.7290    1.1850    3.2080 o         1 R9P     -0.601500
     30 N1         -8.7050    2.2110    2.8340 ns        1 R9P     -0.475400
     31 H131       -0.2190    1.1810   -1.4390 hc        1 R9P      0.049200
     32 H132       -0.5920   -0.3420   -0.5290 hc        1 R9P      0.049200
     33 H141        2.0620    1.2430   -0.6670 h1        1 R9P      0.030450
     34 H142        1.7300   -0.4310   -1.3020 h1        1 R9P      0.030450
     35 H12         0.1230    2.4220    0.6680 hc        1 R9P      0.060700
     36 H3          2.9040   -0.4780    0.7700 hn        1 R9P      0.366800
     37 H151        1.7570   -0.2670    2.8460 h1        1 R9P      0.030450
     38 H152        2.0820    1.3510    2.0770 h1        1 R9P      0.030450
     39 H161       -0.5750   -0.2350    2.1010 hc        1 R9P      0.049200
     40 H162       -0.1820    1.3490    2.8860 hc        1 R9P      0.049200
     41 H111       -2.4380    0.6600    0.8410 h1        1 R9P      0.045200
     42 H112       -2.2040    2.0130   -0.3580 h1        1 R9P      0.045200
     43 H2         -1.7760    2.8200    2.3860 hn        1 R9P      0.416800
     44 H17        -3.4210    3.8560    3.7610 ha        1 R9P      0.152000
     45 H9         -4.4480    1.6880    0.1160 ha        1 R9P      0.145000
     46 H8         -6.8360    2.0610    0.5870 ha        1 R9P      0.144000
     47 H1         -8.2500    1.3250    2.8240 hn        1 R9P      0.343500
     48 H21        -9.4720    7.6750    2.6950 ha        1 R9P      0.169000
     49 HA        -13.7420    8.2100    3.3650 ha        1 R9P      0.153000
     50 HB        -14.0770    5.7360    3.5360 ha        1 R9P      0.162000
@<TRIPOS>BOND
     1    1    2 1   
     2    1    6 1   
     3    1   31 1   
     4    1   32 1   
     5    2    3 1   
     6    2   33 1   
     7    2   34 1   
     8    3    4 1   
     9    3   36 1   
    10    4    5 1   
    11    4   37 1   
    12    4   38 1   
    13    5    6 1   
    14    5   39 1   
    15    5   40 1   
    16    6    7 1   
    17    6   35 1   
    18    7    8 1   
    19    7   41 1   
    20    7   42 1   
    21    8    9 1   
    22    8   43 1   
    23    9   10 ar  
    24    9   13 ar  
    25   10   11 ar  
    26   10   44 1   
    27   11   12 1   
    28   11   15 ar  
    29   13   14 ar  
    30   13   45 1   
    31   14   15 ar  
    32   14   46 1   
    33   15   16 1   
    34   16   17 2   
    35   16   30 1   
    36   17   18 1   
    37   18   19 1   
    38   18   27 2   
    39   19   20 ar  
    40   19   25 ar  
    41   20   21 ar  
    42   20   48 1   
    43   21   22 1   
    44   21   23 ar  
    45   23   24 ar  
    46   23   49 1   
    47   24   25 ar  
    48   24   50 1   
    49   25   26 1   
    50   26   27 1   
    51   27   28 1   
    52   28   29 2   
    53   28   30 1   
    54   30   47 1   
@<TRIPOS>SUBSTRUCTURE
     1 R9P         1 TEMP              0 ****  ****    0 ROOT
