@<TRIPOS>MOLECULE
R9P
   50    54     1     0     0
SMALL
bcc


@<TRIPOS>ATOM
      1 C13        -8.4900   -0.1470    1.1590 c3        1 R9P     -0.114900
      2 C14        -9.8870    0.4590    1.0120 c3        1 R9P      0.151300
      3 N3        -10.2670    0.8170   -0.3410 n3        1 R9P     -0.796200
      4 C15        -9.2540    1.6090   -1.0090 c3        1 R9P      0.151300
      5 C16        -7.8310    1.0490   -0.9360 c3        1 R9P     -0.114900
      6 C12        -7.4460    0.7460    0.5030 c3        1 R9P     -0.075700
      7 C11        -6.0820    0.0460    0.5840 c3        1 R9P      0.198800
      8 N2         -4.9710    0.9050    0.2530 nh        1 R9P     -0.745600
      9 C10        -3.7200    0.3570    0.0010 ca        1 R9P      0.203600
     10 C17        -2.7330    1.1370   -0.6560 ca        1 R9P     -0.212000
     11 C18        -1.4450    0.6390   -0.8370 ca        1 R9P      0.106400
     12 CL1        -0.3080    1.6120   -1.6390 cl        1 R9P     -0.064400
     13 C9         -3.3650   -0.9430    0.4430 ca        1 R9P     -0.205000
     14 C8         -2.0780   -1.4220    0.2520 ca        1 R9P     -0.054000
     15 C7         -1.1050   -0.6440   -0.3860 ca        1 R9P     -0.209900
     16 C6          0.2660   -1.1910   -0.5500 cc        1 R9P      0.544500
     17 N4          1.2910   -0.5810    0.0510 nd        1 R9P     -0.563300
     18 C19         2.5230   -1.1650   -0.1540 cd        1 R9P      0.175400
     19 C20         3.8500   -0.7960    0.3180 ca        1 R9P     -0.101800
     20 C21         4.3650    0.2240    1.1100 ca        1 R9P     -0.026000
     21 C22         5.7430    0.2380    1.3450 ca        1 R9P     -0.057900
     22 BR1         6.4800    1.5950    2.4060 br        1 R9P     -0.080100
     23 C1          6.5920   -0.7430    0.8020 ca        1 R9P     -0.072000
     24 C2          6.1010   -1.7750    0.0060 ca        1 R9P     -0.130000
     25 C3          4.7290   -1.7870   -0.2260 ca        1 R9P      0.093100
     26 O1          4.0380   -2.7320   -0.9940 os        1 R9P     -0.142200
     27 C4          2.7020   -2.3260   -0.9300 cc        1 R9P     -0.107100
     28 C5          1.5960   -3.0000   -1.5830 c         1 R9P      0.728700
     29 O2          1.6240   -4.0220   -2.2850 o         1 R9P     -0.601500
     30 N1          0.3640   -2.3490   -1.3340 n         1 R9P     -0.475400
     31 H131       -8.2580   -0.2670    2.2480 hc        1 R9P      0.045950
     32 H132       -8.4640   -1.1660    0.6920 hc        1 R9P      0.045950
     33 H141      -10.6480   -0.2670    1.4130 h1        1 R9P      0.055450
     34 H142       -9.9410    1.3970    1.6350 h1        1 R9P      0.055450
     35 H12        -7.4040    1.7150    1.0750 hc        1 R9P      0.065700
     36 H3        -10.4530   -0.0150   -0.8730 hn        1 R9P      0.351800
     37 H151       -9.5480    1.7250   -2.0880 h1        1 R9P      0.055450
     38 H152       -9.2620    2.6320   -0.5360 h1        1 R9P      0.055450
     39 H161       -7.7570    0.1150   -1.5520 hc        1 R9P      0.045950
     40 H162       -7.1290    1.8020   -1.3770 hc        1 R9P      0.045950
     41 H111       -5.9270   -0.3170    1.6420 h1        1 R9P      0.043700
     42 H112       -6.1030   -0.8630   -0.0870 h1        1 R9P      0.043700
     43 H2         -5.1990    1.7180   -0.2770 hn        1 R9P      0.417800
     44 H17        -2.9770    2.1480   -1.0170 ha        1 R9P      0.152000
     45 H9         -4.1020   -1.5770    0.9570 ha        1 R9P      0.144000
     46 H8         -1.8160   -2.4280    0.6170 ha        1 R9P      0.144000
     47 H1         -0.4590   -2.7220   -1.7540 hn        1 R9P      0.342500
     48 H21         3.6960    0.9900    1.5320 ha        1 R9P      0.169000
     49 HA          7.6740   -0.7020    1.0070 ha        1 R9P      0.153000
     50 HB          6.7590   -2.5430   -0.4200 ha        1 R9P      0.162000
@<TRIPOS>BOND
     1    1    2 1   
     2    1    6 1   
     3    1   31 1   
     4    1   32 1   
     5    2    3 1   
     6    2   33 1   
     7    2   34 1   
     8    3    4 1   
     9    3   36 1   
    10    4    5 1   
    11    4   37 1   
    12    4   38 1   
    13    5    6 1   
    14    5   39 1   
    15    5   40 1   
    16    6    7 1   
    17    6   35 1   
    18    7    8 1   
    19    7   41 1   
    20    7   42 1   
    21    8    9 1   
    22    8   43 1   
    23    9   10 ar  
    24    9   13 ar  
    25   10   11 ar  
    26   10   44 1   
    27   11   12 1   
    28   11   15 ar  
    29   13   14 ar  
    30   13   45 1   
    31   14   15 ar  
    32   14   46 1   
    33   15   16 1   
    34   16   17 2   
    35   16   30 1   
    36   17   18 1   
    37   18   19 1   
    38   18   27 2   
    39   19   20 ar  
    40   19   25 ar  
    41   20   21 ar  
    42   20   48 1   
    43   21   22 1   
    44   21   23 ar  
    45   23   24 ar  
    46   23   49 1   
    47   24   25 ar  
    48   24   50 1   
    49   25   26 1   
    50   26   27 1   
    51   27   28 1   
    52   28   29 2   
    53   28   30 1   
    54   30   47 1   
@<TRIPOS>SUBSTRUCTURE
     1 R9P         1 TEMP              0 ****  ****    0 ROOT
