@<TRIPOS>MOLECULE
R9P
   51    55     1     0     0
SMALL
bcc


@<TRIPOS>ATOM
      1 C13        -0.2100   -0.0640    0.1210 c3        1 R9P     -0.083400
      2 C14         1.2730   -0.4400    0.1340 c3        1 R9P      0.168300
      3 N3          1.8160   -0.4860    1.4750 n3        1 R9P     -0.826200
      4 C15         1.6280    0.7440    2.2120 c3        1 R9P      0.168300
      5 C16         0.1570    1.1670    2.2720 c3        1 R9P     -0.083400
      6 C12        -0.4390    1.2420    0.8750 c3        1 R9P     -0.092700
      7 C11        -1.9490    1.4900    0.9160 c3        1 R9P      0.105800
      8 N2         -2.3010    2.8140    1.5260 n4        1 R9P     -0.631400
      9 C10        -3.7470    3.0530    1.5320 ca        1 R9P     -0.035400
     10 C17        -4.3450    3.6900    0.4340 ca        1 R9P     -0.112000
     11 C18        -5.7240    3.9340    0.4500 ca        1 R9P      0.042400
     12 CL1        -6.4070    4.7290   -0.8730 cl        1 R9P     -0.000400
     13 C9         -4.5130    2.6530    2.6400 ca        1 R9P     -0.111000
     14 C8         -5.8830    2.9020    2.6410 ca        1 R9P     -0.053000
     15 C7         -6.4970    3.5360    1.5530 ca        1 R9P     -0.072900
     16 C6         -7.9620    3.8080    1.6250 cc        1 R9P      0.482500
     17 N4         -8.4010    4.5160    2.6680 nd        1 R9P     -0.547300
     18 C19        -9.7620    4.7440    2.6910 cd        1 R9P      0.150400
     19 C20       -10.6010    5.4680    3.6320 ca        1 R9P     -0.100800
     20 C21       -10.3830    6.1770    4.8090 ca        1 R9P     -0.034000
     21 C22       -11.4880    6.7500    5.4430 ca        1 R9P     -0.048900
     22 BR1       -11.2380    7.7110    7.0300 br        1 R9P     -0.059100
     23 C1        -12.7870    6.6220    4.9160 ca        1 R9P     -0.064000
     24 C2        -13.0330    5.9190    3.7390 ca        1 R9P     -0.117000
     25 C3        -11.9290    5.3500    3.1120 ca        1 R9P      0.089100
     26 O1        -11.9590    4.6060    1.9220 os        1 R9P     -0.128200
     27 C4        -10.6310    4.2540    1.6960 cc        1 R9P     -0.067100
     28 C5        -10.1620    3.4750    0.5630 c         1 R9P      0.729700
     29 O2        -10.8150    2.9920   -0.3680 o         1 R9P     -0.563500
     30 N1         -8.7550    3.2810    0.6030 n         1 R9P     -0.476400
     31 H131       -0.5430    0.0440   -0.9430 hc        1 R9P      0.054200
     32 H132       -0.8100   -0.8850    0.5940 hc        1 R9P      0.054200
     33 H141        1.3860   -1.4680   -0.3140 h1        1 R9P      0.047200
     34 H142        1.8270    0.2880   -0.5310 h1        1 R9P      0.047200
     35 H12         0.0670    2.0720    0.3050 hc        1 R9P      0.067700
     36 H3          2.7830   -0.7500    1.4610 hn        1 R9P      0.392800
     37 H151        1.9960    0.5720    3.2630 h1        1 R9P      0.047200
     38 H152        2.2200    1.6040    1.7770 h1        1 R9P      0.047200
     39 H161       -0.4180    0.4310    2.8920 hc        1 R9P      0.054200
     40 H162        0.1110    2.1660    2.7780 hc        1 R9P      0.054200
     41 H111       -2.3720    1.4740   -0.1290 hx        1 R9P      0.109700
     42 H112       -2.4580    0.6890    1.5250 hx        1 R9P      0.109700
     43 H2         -1.8360    3.5630    0.9980 hn        1 R9P      0.457800
     44 H17        -3.7500    4.0130   -0.4380 ha        1 R9P      0.171000
     45 H9         -4.0560    2.1540    3.5110 ha        1 R9P      0.165000
     46 H8         -6.4900    2.6060    3.5160 ha        1 R9P      0.192000
     47 H1         -8.3340    2.7730   -0.1440 hn        1 R9P      0.342500
     48 H21        -9.3660    6.2770    5.2180 ha        1 R9P      0.164000
     49 HA        -13.6380    7.0880    5.4430 ha        1 R9P      0.165000
     50 HB        -14.0450    5.8170    3.3240 ha        1 R9P      0.172000
     51 H22        -1.9510    2.8380    2.4940 hn        1 R9P      0.457800
@<TRIPOS>BOND
     1    1    2 1   
     2    1    6 1   
     3    1   31 1   
     4    1   32 1   
     5    2    3 1   
     6    2   33 1   
     7    2   34 1   
     8    3    4 1   
     9    3   36 1   
    10    4    5 1   
    11    4   37 1   
    12    4   38 1   
    13    5    6 1   
    14    5   39 1   
    15    5   40 1   
    16    6    7 1   
    17    6   35 1   
    18    7    8 1   
    19    7   41 1   
    20    7   42 1   
    21    8    9 1   
    22    8   43 1   
    23    8   51 1   
    24    9   10 ar  
    25    9   13 ar  
    26   10   11 ar  
    27   10   44 1   
    28   11   12 1   
    29   11   15 ar  
    30   13   14 ar  
    31   13   45 1   
    32   14   15 ar  
    33   14   46 1   
    34   15   16 1   
    35   16   17 2   
    36   16   30 1   
    37   17   18 1   
    38   18   19 1   
    39   18   27 2   
    40   19   20 ar  
    41   19   25 ar  
    42   20   21 ar  
    43   20   48 1   
    44   21   22 1   
    45   21   23 ar  
    46   23   24 ar  
    47   23   49 1   
    48   24   25 ar  
    49   24   50 1   
    50   25   26 1   
    51   26   27 1   
    52   27   28 1   
    53   28   29 2   
    54   28   30 1   
    55   30   47 1   
@<TRIPOS>SUBSTRUCTURE
     1 R9P         1 TEMP              0 ****  ****    0 ROOT
