@<TRIPOS>MOLECULE
RA2
   50    51     1     0     0
SMALL
bcc


@<TRIPOS>ATOM
      1 C1          0.0100   -0.3080   -0.0110 ca        1 RA2     -0.153000
      2 C2          1.4110   -0.1370   -0.0400 ca        1 RA2     -0.030400
      3 C3          2.1150    0.0430    1.1950 ca        1 RA2      0.107600
      4 C4          1.3750   -0.0240    2.3930 ca        1 RA2     -0.154000
      5 C5          0.0020   -0.2500    2.4010 ca        1 RA2     -0.096600
      6 C6         -0.6800   -0.3800    1.1890 ca        1 RA2     -0.125000
      7 C10        -0.7490   -0.3340    3.7270 c         1 RA2      0.908200
      8 N11         2.0710   -0.1050   -1.2960 n         1 RA2     -0.375000
      9 N12         3.5170    0.2440    1.1460 nu        1 RA2     -0.740600
     10 C13         4.2960    0.2530    2.3750 c3        1 RA2      0.184500
     11 C14         5.6400   -0.4760    2.1560 c3        1 RA2     -0.088900
     12 C15         5.4660   -1.9710    2.1040 c3        1 RA2     -0.099100
     13 C21         4.6070    1.6590    2.9220 c3        1 RA2     -0.088900
     14 C23         3.3800    2.3850    3.4030 c3        1 RA2     -0.099100
     15 C29         2.3420   -1.3220   -2.0740 c3        1 RA2      0.046400
     16 C30         3.1090   -0.8390   -3.3450 c3        1 RA2     -0.086400
     17 C31         3.4140    0.6360   -3.1270 c3        1 RA2     -0.160400
     18 C32         2.7570    0.9970   -1.7990 c         1 RA2      0.698500
     19 O37         2.8330    2.1150   -1.2620 o         1 RA2     -0.641500
     20 C38         3.2070   -2.3550   -1.3040 c3        1 RA2      0.131900
     21 O39         4.5620   -1.9750   -1.2190 oh        1 RA2     -0.614800
     22 C42         1.0580   -2.0580   -2.5330 c3        1 RA2      0.131900
     23 O43         0.5770   -2.9840   -1.5870 oh        1 RA2     -0.614800
     24 O49        -1.9870   -0.5730    3.6840 o         1 RA2     -0.823800
     25 O50        -0.0870   -0.1620    4.7880 o         1 RA2     -0.823800
     26 H1         -0.5470   -0.3870   -0.9590 ha        1 RA2      0.116000
     27 H4          1.8530    0.1170    3.3790 ha        1 RA2      0.164000
     28 H6         -1.7720   -0.5310    1.2150 ha        1 RA2      0.159000
     29 H12         3.7380    1.0450    0.5790 hn        1 RA2      0.392800
     30 H13         3.7440   -0.3190    3.1780 h1        1 RA2      0.078700
     31 H141        6.1290   -0.1160    1.2140 hc        1 RA2      0.032200
     32 H142        6.3240   -0.2150    3.0060 hc        1 RA2      0.032200
     33 H151        5.0140   -2.3480    3.0530 hc        1 RA2      0.039700
     34 H152        6.4550   -2.4700    1.9620 hc        1 RA2      0.039700
     35 H153        4.7980   -2.2690    1.2590 hc        1 RA2      0.039700
     36 H211        5.1220    2.2630    2.1290 hc        1 RA2      0.032200
     37 H212        5.3270    1.5520    3.7760 hc        1 RA2      0.032200
     38 H231        3.6500    3.4170    3.7330 hc        1 RA2      0.039700
     39 H232        2.6140    2.4630    2.5920 hc        1 RA2      0.039700
     40 H233        2.9130    1.8490    4.2660 hc        1 RA2      0.039700
     41 H301        4.0480   -1.4330   -3.4660 hc        1 RA2      0.057700
     42 H302        2.4810   -0.9800   -4.2580 hc        1 RA2      0.057700
     43 H311        2.9920    1.2800   -3.9360 hc        1 RA2      0.071200
     44 H312        4.5120    0.8290   -3.0550 hc        1 RA2      0.071200
     45 H381        2.7750   -2.5280   -0.2820 h1        1 RA2      0.054450
     46 H282        3.2110   -3.3180   -1.8810 h1        1 RA2      0.054450
     47 H39         4.6200   -1.2350   -0.6010 ho        1 RA2      0.425500
     48 H421        1.3060   -2.6890   -3.4310 h1        1 RA2      0.054450
     49 H422        0.2560   -1.3220   -2.8070 h1        1 RA2      0.054450
     50 H43         0.3790   -2.5000   -0.7710 ho        1 RA2      0.425500
@<TRIPOS>BOND
     1    1    2 ar  
     2    1    6 ar  
     3    1   26 1   
     4    2    3 ar  
     5    2    8 1   
     6    3    4 ar  
     7    3    9 1   
     8    4    5 ar  
     9    4   27 1   
    10    5    6 ar  
    11    5    7 1   
    12    6   28 1   
    13    7   24 1   
    14    7   25 1   
    15    8   15 1   
    16    8   18 1   
    17    9   10 1   
    18    9   29 1   
    19   10   11 1   
    20   10   13 1   
    21   10   30 1   
    22   11   12 1   
    23   11   31 1   
    24   11   32 1   
    25   12   33 1   
    26   12   34 1   
    27   12   35 1   
    28   13   14 1   
    29   13   36 1   
    30   13   37 1   
    31   14   38 1   
    32   14   39 1   
    33   14   40 1   
    34   15   16 1   
    35   15   20 1   
    36   15   22 1   
    37   16   17 1   
    38   16   41 1   
    39   16   42 1   
    40   17   18 1   
    41   17   43 1   
    42   17   44 1   
    43   18   19 2   
    44   20   21 1   
    45   20   45 1   
    46   20   46 1   
    47   21   47 1   
    48   22   23 1   
    49   22   48 1   
    50   22   49 1   
    51   23   50 1   
@<TRIPOS>SUBSTRUCTURE
     1 RA2         1 TEMP              0 ****  ****    0 ROOT
