@<TRIPOS>MOLECULE
RA2
   50    51     1     0     0
SMALL
bcc


@<TRIPOS>ATOM
      1 C1          0.0090   -0.3170   -0.0070 ca        1 RA2     -0.153000
      2 C2          1.4090   -0.1400   -0.0370 ca        1 RA2     -0.030400
      3 C3          2.1140    0.0390    1.1970 ca        1 RA2      0.107600
      4 C4          1.3770   -0.0330    2.3960 ca        1 RA2     -0.154000
      5 C5          0.0050   -0.2640    2.4060 ca        1 RA2     -0.096600
      6 C6         -0.6790   -0.3930    1.1940 ca        1 RA2     -0.125000
      7 C10        -0.7440   -0.3530    3.7320 c         1 RA2      0.908200
      8 N11         2.0670   -0.1020   -1.2940 n         1 RA2     -0.375000
      9 N12         3.5160    0.2450    1.1460 nh        1 RA2     -0.740600
     10 C13         4.2970    0.2540    2.3740 c3        1 RA2      0.184500
     11 C14         5.6430   -0.4710    2.1510 c3        1 RA2     -0.088900
     12 C15         5.4730   -1.9660    2.0960 c3        1 RA2     -0.099100
     13 C21         4.6040    1.6600    2.9240 c3        1 RA2     -0.088900
     14 C23         3.3750    2.3800    3.4080 c3        1 RA2     -0.099100
     15 C29         2.3420   -1.3170   -2.0760 c3        1 RA2      0.046400
     16 C30         3.1050   -0.8280   -3.3470 c3        1 RA2     -0.086400
     17 C31         3.4050    0.6470   -3.1260 c3        1 RA2     -0.160400
     18 C32         2.7490    1.0020   -1.7960 c         1 RA2      0.698500
     19 O37         2.8220    2.1190   -1.2560 o         1 RA2     -0.641500
     20 C38         3.2110   -2.3490   -1.3090 c3        1 RA2      0.131900
     21 O39         4.5650   -1.9650   -1.2250 oh        1 RA2     -0.614800
     22 C42         1.0590   -2.0560   -2.5350 c3        1 RA2      0.131900
     23 O43         0.5830   -2.9860   -1.5900 oh        1 RA2     -0.614800
     24 O49        -1.9820   -0.5960    3.6910 o         1 RA2     -0.823800
     25 O50        -0.0800   -0.1810    4.7930 o         1 RA2     -0.823800
     26 H1         -0.5490   -0.3950   -0.9540 ha        1 RA2      0.116000
     27 H4          1.8560    0.1070    3.3810 ha        1 RA2      0.164000
     28 H6         -1.7700   -0.5480    1.2220 ha        1 RA2      0.159000
     29 H12         3.7340    1.0480    0.5810 hn        1 RA2      0.392800
     30 H13         3.7480   -0.3220    3.1760 h1        1 RA2      0.078700
     31 H141        6.1290   -0.1070    1.2090 hc        1 RA2      0.032200
     32 H142        6.3270   -0.2100    3.0010 hc        1 RA2      0.032200
     33 H151        5.0230   -2.3470    3.0450 hc        1 RA2      0.039700
     34 H152        4.8050   -2.2650    1.2510 hc        1 RA2      0.039700
     35 H153        6.4640   -2.4620    1.9510 hc        1 RA2      0.039700
     36 H211        5.3250    1.5530    3.7770 hc        1 RA2      0.032200
     37 H212        5.1170    2.2670    2.1310 hc        1 RA2      0.032200
     38 H231        3.6430    3.4130    3.7410 hc        1 RA2      0.039700
     39 H232        2.9120    1.8410    4.2710 hc        1 RA2      0.039700
     40 H233        2.6080    2.4580    2.5990 hc        1 RA2      0.039700
     41 H301        2.4770   -0.9700   -4.2600 hc        1 RA2      0.057700
     42 H302        4.0460   -1.4180   -3.4700 hc        1 RA2      0.057700
     43 H311        2.9800    1.2920   -3.9320 hc        1 RA2      0.071200
     44 H312        4.5030    0.8430   -3.0540 hc        1 RA2      0.071200
     45 H381        3.2170   -3.3110   -1.8880 h1        1 RA2      0.054450
     46 H282        2.7810   -2.5250   -0.2870 h1        1 RA2      0.054450
     47 H39         4.6210   -1.2260   -0.6060 ho        1 RA2      0.425500
     48 H421        1.3080   -2.6840   -3.4350 h1        1 RA2      0.054450
     49 H422        0.2540   -1.3230   -2.8060 h1        1 RA2      0.054450
     50 H43         0.3840   -2.5050   -0.7730 ho        1 RA2      0.425500
@<TRIPOS>BOND
     1    1    2 ar  
     2    1    6 ar  
     3    1   26 1   
     4    2    3 ar  
     5    2    8 1   
     6    3    4 ar  
     7    3    9 1   
     8    4    5 ar  
     9    4   27 1   
    10    5    6 ar  
    11    5    7 1   
    12    6   28 1   
    13    7   24 1   
    14    7   25 1   
    15    8   15 1   
    16    8   18 1   
    17    9   10 1   
    18    9   29 1   
    19   10   11 1   
    20   10   13 1   
    21   10   30 1   
    22   11   12 1   
    23   11   31 1   
    24   11   32 1   
    25   12   33 1   
    26   12   34 1   
    27   12   35 1   
    28   13   14 1   
    29   13   36 1   
    30   13   37 1   
    31   14   38 1   
    32   14   39 1   
    33   14   40 1   
    34   15   16 1   
    35   15   20 1   
    36   15   22 1   
    37   16   17 1   
    38   16   41 1   
    39   16   42 1   
    40   17   18 1   
    41   17   43 1   
    42   17   44 1   
    43   18   19 2   
    44   20   21 1   
    45   20   45 1   
    46   20   46 1   
    47   21   47 1   
    48   22   23 1   
    49   22   48 1   
    50   22   49 1   
    51   23   50 1   
@<TRIPOS>SUBSTRUCTURE
     1 RA2         1 TEMP              0 ****  ****    0 ROOT
