@<TRIPOS>MOLECULE
RA2
   50    51     1     0     0
SMALL
bcc


@<TRIPOS>ATOM
      1 C1         -2.1740   -0.0290   -0.5850 ca        1 RA2     -0.153000
      2 C2         -0.9720   -0.1900    0.1370 ca        1 RA2     -0.030400
      3 C3          0.2730   -0.1570   -0.5710 ca        1 RA2      0.107600
      4 C4          0.2400    0.1010   -1.9560 ca        1 RA2     -0.154000
      5 C5         -0.9540    0.3120   -2.6390 ca        1 RA2     -0.096600
      6 C6         -2.1650    0.2340   -1.9460 ca        1 RA2     -0.125000
      7 C10        -0.9350    0.6070   -4.1360 c         1 RA2      0.908200
      8 N11        -1.0380   -0.4230    1.5350 n         1 RA2     -0.375000
      9 N12         1.4700   -0.3500    0.1650 nh        1 RA2     -0.740600
     10 C13         2.7610   -0.1490   -0.4760 c3        1 RA2      0.184500
     11 C14         3.7340    0.5470    0.5010 c3        1 RA2     -0.088900
     12 C15         3.4200    2.0110    0.6600 c3        1 RA2     -0.099100
     13 C21         3.4350   -1.4420   -0.9720 c3        1 RA2     -0.088900
     14 C23         2.6930   -2.0900   -2.1100 c3        1 RA2     -0.099100
     15 C29        -1.3120    0.6520    2.5010 c3        1 RA2      0.046400
     16 C30        -1.2540   -0.0290    3.9050 c3        1 RA2     -0.086400
     17 C31        -0.7450   -1.4440    3.6750 c3        1 RA2     -0.160400
     18 C32        -0.6030   -1.5860    2.1630 c         1 RA2      0.698500
     19 O37        -0.1620   -2.5990    1.5950 o         1 RA2     -0.641500
     20 C38        -0.2770    1.8050    2.4350 c3        1 RA2      0.131900
     21 O39         0.9630    1.4570    3.0080 oh        1 RA2     -0.614800
     22 C42        -2.7150    1.2900    2.3290 c3        1 RA2      0.131900
     23 O43        -2.7330    2.3550    1.4070 oh        1 RA2     -0.614800
     24 O49        -2.0410    0.8250   -4.7040 o         1 RA2     -0.823800
     25 O50         0.1860    0.6190   -4.7170 o         1 RA2     -0.823800
     26 H1         -3.1390   -0.1130   -0.0580 ha        1 RA2      0.116000
     27 H4          1.1610    0.1290   -2.5640 ha        1 RA2      0.164000
     28 H6         -3.1020    0.3770   -2.5090 ha        1 RA2      0.159000
     29 H12         1.4470   -1.2320    0.6490 hn        1 RA2      0.392800
     30 H13         2.6400    0.5430   -1.3620 h1        1 RA2      0.078700
     31 H141        4.7750    0.4360    0.0970 hc        1 RA2      0.032200
     32 H142        3.7100    0.0400    1.5000 hc        1 RA2      0.032200
     33 H151        4.1500    2.4880    1.3580 hc        1 RA2      0.039700
     34 H152        3.4780    2.5350   -0.3250 hc        1 RA2      0.039700
     35 H153        2.3920    2.1590    1.0730 hc        1 RA2      0.039700
     36 H211        4.4740   -1.1890   -1.3100 hc        1 RA2      0.032200
     37 H212        3.5310   -2.1640   -0.1180 hc        1 RA2      0.032200
     38 H231        3.1880   -3.0510   -2.3920 hc        1 RA2      0.039700
     39 H232        1.6330   -2.3080   -1.8290 hc        1 RA2      0.039700
     40 H233        2.6800   -1.4230   -3.0070 hc        1 RA2      0.039700
     41 H301       -2.2680   -0.0450    4.3740 hc        1 RA2      0.057700
     42 H302       -0.5650    0.5460    4.5720 hc        1 RA2      0.057700
     43 H311       -1.4570   -2.2170    4.0530 hc        1 RA2      0.071200
     44 H312        0.2510   -1.6120    4.1520 hc        1 RA2      0.071200
     45 H381       -0.1460    2.1400    1.3710 h1        1 RA2      0.054450
     46 H282       -0.6550    2.6600    3.0580 h1        1 RA2      0.054450
     47 H39         1.3940    0.8290    2.4130 ho        1 RA2      0.425500
     48 H421       -3.4730    0.5120    2.0470 h1        1 RA2      0.054450
     49 H422       -3.0150    1.7660    3.3030 h1        1 RA2      0.054450
     50 H43        -2.4460    2.0110    0.5490 ho        1 RA2      0.425500
@<TRIPOS>BOND
     1    1    2 ar  
     2    1    6 ar  
     3    1   26 1   
     4    2    3 ar  
     5    2    8 1   
     6    3    4 ar  
     7    3    9 1   
     8    4    5 ar  
     9    4   27 1   
    10    5    6 ar  
    11    5    7 1   
    12    6   28 1   
    13    7   24 1   
    14    7   25 1   
    15    8   15 1   
    16    8   18 1   
    17    9   10 1   
    18    9   29 1   
    19   10   11 1   
    20   10   13 1   
    21   10   30 1   
    22   11   12 1   
    23   11   31 1   
    24   11   32 1   
    25   12   33 1   
    26   12   34 1   
    27   12   35 1   
    28   13   14 1   
    29   13   36 1   
    30   13   37 1   
    31   14   38 1   
    32   14   39 1   
    33   14   40 1   
    34   15   16 1   
    35   15   20 1   
    36   15   22 1   
    37   16   17 1   
    38   16   41 1   
    39   16   42 1   
    40   17   18 1   
    41   17   43 1   
    42   17   44 1   
    43   18   19 2   
    44   20   21 1   
    45   20   45 1   
    46   20   46 1   
    47   21   47 1   
    48   22   23 1   
    49   22   48 1   
    50   22   49 1   
    51   23   50 1   
@<TRIPOS>SUBSTRUCTURE
     1 RA2         1 TEMP              0 ****  ****    0 ROOT
