@<TRIPOS>MOLECULE
RA2
   51    52     1     0     0
SMALL
bcc


@<TRIPOS>ATOM
      1 C1          0.0380   -0.3300   -0.0360 ca        1 RA2     -0.152000
      2 C2          1.4360   -0.1740   -0.0460 ca        1 RA2      0.025600
      3 C3          2.1020    0.0180    1.2080 ca        1 RA2     -0.057400
      4 C4          1.3630    0.0210    2.3930 ca        1 RA2     -0.085000
      5 C5         -0.0180   -0.1800    2.3760 ca        1 RA2     -0.112600
      6 C6         -0.6770   -0.3460    1.1610 ca        1 RA2     -0.066000
      7 C10        -0.7730   -0.1930    3.7180 c         1 RA2      0.918200
      8 N11         2.1460   -0.1660   -1.2700 n         1 RA2     -0.411000
      9 N12         3.5470    0.2750    1.1920 n4        1 RA2     -0.637400
     10 C13         4.2710    0.2730    2.5150 c3        1 RA2      0.123500
     11 C14         5.6190   -0.4550    2.3980 c3        1 RA2     -0.101400
     12 C15         5.4660   -1.9380    2.1880 c3        1 RA2     -0.120600
     13 C21         4.5150    1.6980    3.0300 c3        1 RA2     -0.101400
     14 C23         3.2570    2.4310    3.4080 c3        1 RA2     -0.120600
     15 C29         2.3650   -1.3590   -2.1010 c3        1 RA2      0.044400
     16 C30         2.9810   -0.8160   -3.4300 c3        1 RA2     -0.096400
     17 C31         3.3280    0.6460   -3.1800 c3        1 RA2     -0.158400
     18 C32         2.8290    0.9430   -1.7760 c         1 RA2      0.702500
     19 O37         3.0470    1.9840   -1.1330 o         1 RA2     -0.640500
     20 C38         3.3550   -2.3450   -1.4270 c3        1 RA2      0.120900
     21 O39         4.5460   -1.7140   -0.9990 oh        1 RA2     -0.609800
     22 C42         1.0890   -2.1630   -2.4520 c3        1 RA2      0.120900
     23 O43         0.7290   -3.0750   -1.4440 oh        1 RA2     -0.609800
     24 O49        -2.0050   -0.4200    3.6700 o         1 RA2     -0.788300
     25 O50        -0.0720    0.0230    4.7410 o         1 RA2     -0.788300
     26 H1         -0.5070   -0.4260   -0.9890 ha        1 RA2      0.141000
     27 H4          1.8020    0.1970    3.3950 ha        1 RA2      0.189000
     28 H6         -1.7750   -0.4790    1.1720 ha        1 RA2      0.187000
     29 H12         3.9860   -0.4400    0.5880 hn        1 RA2      0.461300
     30 H13         3.6400   -0.2950    3.2630 hx        1 RA2      0.125700
     31 H141        6.2380   -0.0050    1.5780 hc        1 RA2      0.064700
     32 H142        6.1690   -0.2770    3.3620 hc        1 RA2      0.064700
     33 H151        4.7750   -2.3800    2.9470 hc        1 RA2      0.058033
     34 H152        5.0740   -2.1780    1.1690 hc        1 RA2      0.058033
     35 H153        6.4620   -2.4360    2.2940 hc        1 RA2      0.058033
     36 H211        5.0910    2.2840    2.2640 hc        1 RA2      0.064700
     37 H212        5.1710    1.6090    3.9380 hc        1 RA2      0.064700
     38 H231        2.7340    1.9240    4.2580 hc        1 RA2      0.058033
     39 H232        2.5440    2.5010    2.5510 hc        1 RA2      0.058033
     40 H233        3.5140    3.4700    3.7320 hc        1 RA2      0.058033
     41 H301        2.2390   -0.9050   -4.2630 hc        1 RA2      0.065700
     42 H302        3.8830   -1.4110   -3.7110 hc        1 RA2      0.065700
     43 H311        4.4280    0.8360   -3.2340 hc        1 RA2      0.090700
     44 H312        2.8180    1.3310   -3.9040 hc        1 RA2      0.090700
     45 H381        2.9030   -2.7720   -0.4890 h1        1 RA2      0.071450
     46 H282        3.5790   -3.1760   -2.1450 h1        1 RA2      0.071450
     47 H39         5.0260   -1.4260   -1.7850 ho        1 RA2      0.414000
     48 H421        1.3200   -2.8130   -3.3430 h1        1 RA2      0.071450
     49 H422        0.2440   -1.4710   -2.7050 h1        1 RA2      0.071450
     50 H43         0.3380   -2.5780   -0.7120 ho        1 RA2      0.414000
     51 H122        3.6770    1.2020    0.7490 hn        1 RA2      0.461300
@<TRIPOS>BOND
     1    1    2 ar  
     2    1    6 ar  
     3    1   26 1   
     4    2    3 ar  
     5    2    8 1   
     6    3    4 ar  
     7    3    9 1   
     8    4    5 ar  
     9    4   27 1   
    10    5    6 ar  
    11    5    7 1   
    12    6   28 1   
    13    7   24 1   
    14    7   25 1   
    15    8   15 1   
    16    8   18 1   
    17    9   10 1   
    18    9   29 1   
    19    9   51 1   
    20   10   11 1   
    21   10   13 1   
    22   10   30 1   
    23   11   12 1   
    24   11   31 1   
    25   11   32 1   
    26   12   33 1   
    27   12   34 1   
    28   12   35 1   
    29   13   14 1   
    30   13   36 1   
    31   13   37 1   
    32   14   38 1   
    33   14   39 1   
    34   14   40 1   
    35   15   16 1   
    36   15   20 1   
    37   15   22 1   
    38   16   17 1   
    39   16   41 1   
    40   16   42 1   
    41   17   18 1   
    42   17   43 1   
    43   17   44 1   
    44   18   19 2   
    45   20   21 1   
    46   20   45 1   
    47   20   46 1   
    48   21   47 1   
    49   22   23 1   
    50   22   48 1   
    51   22   49 1   
    52   23   50 1   
@<TRIPOS>SUBSTRUCTURE
     1 RA2         1 TEMP              0 ****  ****    0 ROOT
