@<TRIPOS>MOLECULE
RA4
   70    71     1     0     0
SMALL
bcc


@<TRIPOS>ATOM
      1 C26         3.6580    0.8130    0.2960 c         1 RA4      0.665700
      2 O25         4.1600    1.8890    0.6750 o         1 RA4     -0.590100
      3 C27         4.3330   -0.4950    0.5540 ca        1 RA4     -0.100600
      4 C28         5.7190   -0.5720    0.3810 ca        1 RA4     -0.102500
      5 C29         6.3900   -1.7670    0.6280 ca        1 RA4     -0.076000
      6 C30         5.6580   -2.8850    1.0570 ca        1 RA4     -0.157200
      7 C34         4.2690   -2.8110    1.2470 ca        1 RA4     -0.076000
      8 C35         3.6110   -1.6090    0.9910 ca        1 RA4     -0.102500
      9 N31         6.3650   -4.1680    1.3200 no        1 RA4      0.311200
     10 O32         7.5540   -4.2200    1.1530 o         1 RA4     -0.202000
     11 O33         5.7280   -5.1170    1.6900 o         1 RA4     -0.202000
     12 N24         2.4890    0.7770   -0.4480 n         1 RA4     -0.536900
     13 C23         1.6370    1.9340   -0.5650 c3        1 RA4      0.040700
     14 C18         0.4030    1.8170    0.3690 c         1 RA4      0.641100
     15 O17        -0.0140    0.6980    0.7470 o         1 RA4     -0.644100
     16 C22         1.1710    2.2200   -2.0040 c3        1 RA4     -0.077400
     17 C21         0.8130    1.0270   -2.8770 c3        1 RA4     -0.065700
     18 C19         0.5760    1.5120   -4.2960 c3        1 RA4     -0.100100
     19 C20        -0.4070    0.2840   -2.3790 c3        1 RA4     -0.100100
     20 N16        -0.2640    2.9660    0.7390 n         1 RA4     -0.453800
     21 C12        -1.4000    2.9300    1.6570 c3        1 RA4      0.030700
     22 C11        -2.7460    2.6550    0.9420 c         1 RA4      0.650100
     23 O10        -3.7140    3.4290    1.0790 o         1 RA4     -0.615100
     24 C13        -1.4320    4.2950    2.3790 c3        1 RA4     -0.087400
     25 C14        -0.4720    5.2040    1.6210 c3        1 RA4     -0.089400
     26 C15         0.3070    4.2990    0.6540 c3        1 RA4      0.085000
     27 N9         -2.8210    1.5270    0.1590 n         1 RA4     -0.559900
     28 C8         -4.0450    1.1020   -0.4620 c3        1 RA4      0.084000
     29 C7         -4.6450   -0.1750    0.1320 c3        1 RA4     -0.103400
     30 C6         -5.9010   -0.5500   -0.6240 c3        1 RA4     -0.087400
     31 C5         -6.4790   -1.8440   -0.0470 c3        1 RA4      0.183800
     32 N4         -7.7210   -2.2230   -0.6930 nh        1 RA4     -0.795200
     33 C2         -8.3110   -3.4750   -0.2950 c2        1 RA4      0.744100
     34 N1         -7.8020   -4.1740    0.6900 n2        1 RA4     -0.872100
     35 N3         -9.4590   -3.8660   -1.0680 nh        1 RA4     -0.933800
     36 H28         6.2780    0.3230    0.0610 ha        1 RA4      0.165000
     37 H29         7.4840   -1.8340    0.4900 ha        1 RA4      0.177000
     38 H34         3.7040   -3.6940    1.5950 ha        1 RA4      0.177000
     39 H35         2.5220   -1.5480    1.1550 ha        1 RA4      0.165000
     40 H24         2.0420   -0.1020   -0.5930 hn        1 RA4      0.323500
     41 H23         2.2480    2.8320   -0.2310 h1        1 RA4      0.102700
     42 H221        0.2890    2.9120   -1.9530 hc        1 RA4      0.058200
     43 H222        2.0060    2.7760   -2.5110 hc        1 RA4      0.058200
     44 H21         1.6830    0.3110   -2.9040 hc        1 RA4      0.051700
     45 H191        1.4880    2.0180   -4.6960 hc        1 RA4      0.039700
     46 H192        0.3290    0.6490   -4.9600 hc        1 RA4      0.039700
     47 H193       -0.2740    2.2360   -4.3270 hc        1 RA4      0.039700
     48 H201       -0.6600   -0.5480   -3.0790 hc        1 RA4      0.039700
     49 H202       -0.2230   -0.1480   -1.3650 hc        1 RA4      0.039700
     50 H203       -1.2880    0.9690   -2.3140 hc        1 RA4      0.039700
     51 H12        -1.2560    2.0910    2.4020 h1        1 RA4      0.087700
     52 H131       -1.1000    4.1590    3.4380 hc        1 RA4      0.077200
     53 H132       -2.4690    4.7170    2.3890 hc        1 RA4      0.077200
     54 H141        0.2290    5.7230    2.3190 hc        1 RA4      0.060200
     55 H142       -1.0330    5.9840    1.0500 hc        1 RA4      0.060200
     56 H151        1.3970    4.2830    0.9350 h1        1 RA4      0.051700
     57 H152        0.2200    4.6710   -0.4040 h1        1 RA4      0.051700
     58 HN9        -2.0760    0.8660    0.1860 hn        1 RA4      0.331500
     59 H81        -4.8040    1.9330   -0.3880 h1        1 RA4      0.059700
     60 H82        -3.8280    0.9220   -1.5560 h1        1 RA4      0.059700
     61 H71        -3.9020   -1.0140    0.0750 hc        1 RA4      0.050700
     62 H72        -4.8890   -0.0160    1.2150 hc        1 RA4      0.050700
     63 H61        -6.6520    0.2790   -0.5430 hc        1 RA4      0.046200
     64 H62        -5.6630   -0.6840   -1.7120 hc        1 RA4      0.046200
     65 H51        -5.6960   -2.6530   -0.1280 h1        1 RA4      0.055700
     66 H52        -6.6970   -1.6940    1.0490 h1        1 RA4      0.055700
     67 HN4        -7.6570   -2.1470   -1.6910 hn        1 RA4      0.387800
     68 HN1        -8.3240   -4.9790    0.9610 hn        1 RA4      0.390400
     69 HN31       -9.8950   -3.1300   -1.5800 hn        1 RA4      0.388800
     70 HN32      -10.1230   -4.3930   -0.5430 hn        1 RA4      0.388800
@<TRIPOS>BOND
     1    1    2 2   
     2    1    3 1   
     3    1   12 1   
     4    3    4 ar  
     5    3    8 ar  
     6    4    5 ar  
     7    4   36 1   
     8    5    6 ar  
     9    5   37 1   
    10    6    7 ar  
    11    6    9 1   
    12    7    8 ar  
    13    7   38 1   
    14    8   39 1   
    15    9   10 1   
    16    9   11 1   
    17   12   13 1   
    18   12   40 1   
    19   13   14 1   
    20   13   16 1   
    21   13   41 1   
    22   14   15 2   
    23   14   20 1   
    24   16   17 1   
    25   16   42 1   
    26   16   43 1   
    27   17   18 1   
    28   17   19 1   
    29   17   44 1   
    30   18   45 1   
    31   18   46 1   
    32   18   47 1   
    33   19   48 1   
    34   19   49 1   
    35   19   50 1   
    36   20   21 1   
    37   20   26 1   
    38   21   22 1   
    39   21   24 1   
    40   21   51 1   
    41   22   23 2   
    42   22   27 1   
    43   24   25 1   
    44   24   52 1   
    45   24   53 1   
    46   25   26 1   
    47   25   54 1   
    48   25   55 1   
    49   26   56 1   
    50   26   57 1   
    51   27   28 1   
    52   27   58 1   
    53   28   29 1   
    54   28   59 1   
    55   28   60 1   
    56   29   30 1   
    57   29   61 1   
    58   29   62 1   
    59   30   31 1   
    60   30   63 1   
    61   30   64 1   
    62   31   32 1   
    63   31   65 1   
    64   31   66 1   
    65   32   33 1   
    66   32   67 1   
    67   33   34 2   
    68   33   35 1   
    69   34   68 1   
    70   35   69 1   
    71   35   70 1   
@<TRIPOS>SUBSTRUCTURE
     1 RA4         1 TEMP              0 ****  ****    0 ROOT
