@<TRIPOS>MOLECULE
RA4
   70    67     1     0     0
SMALL
bcc


@<TRIPOS>ATOM
      1 C26        -1.0730   -0.7210    2.2440 c1        1 RA4      0.351000
      2 O25        -0.0710   -0.7630    1.5640 o         1 RA4     -0.371000
      3 C27        -1.1190   -1.4860    3.6270 c1        1 RA4     -0.077000
      4 C28        -2.2940   -1.4900    4.3880 c2        1 RA4     -0.114000
      5 C29        -2.3630   -2.2500    5.5590 c1        1 RA4     -0.075000
      6 C30        -1.2660   -3.0010    5.9660 c1        1 RA4     -0.114000
      7 C34        -0.0950   -2.9970    5.2060 c1        1 RA4     -0.075000
      8 C35        -0.0230   -2.2390    4.0380 c1        1 RA4     -0.091000
      9 N31        -1.3210   -3.7500    7.2030 no        1 RA4      0.566000
     10 O32        -0.2400   -4.5040    7.5970 o         1 RA4     -0.353000
     11 O33        -2.3460   -3.7560    7.8690 o         1 RA4     -0.353000
     12 N24        -2.2380   -0.0280    1.7650 n3        1 RA4     -0.357000
     13 C23        -2.1920    0.6680    0.5290 c3        1 RA4      0.020000
     14 C18        -2.5310    2.1190    0.7540 c2        1 RA4      0.298000
     15 O17        -3.3720    2.4260    1.5990 o         1 RA4     -0.365000
     16 C22        -3.2170    0.0450   -0.4570 c3        1 RA4     -0.167000
     17 C21        -3.6020   -1.3500    0.0200 c3        1 RA4     -0.111000
     18 C19        -5.1100   -1.3870    0.3410 c3        1 RA4     -0.206000
     19 C20        -3.2940   -2.3540   -1.0620 c3        1 RA4     -0.206000
     20 N16        -2.0240    3.1390   -0.1780 n         1 RA4     -0.313000
     21 C12        -1.1330    2.9680   -1.1290 c3        1 RA4      0.013000
     22 C11        -0.1180    1.8710   -0.8350 c2        1 RA4      0.267000
     23 O10         0.0710    1.5020    0.3270 o         1 RA4     -0.346000
     24 C13        -0.4490    4.5140   -1.2940 c3        1 RA4     -0.158000
     25 C14        -1.4120    5.3680   -1.1430 c3        1 RA4     -0.169000
     26 C15        -2.4440    4.6720   -0.2410 c3        1 RA4     -0.024000
     27 N9          0.6570    1.2850   -1.9220 n         1 RA4     -0.366000
     28 C8          2.1330    1.4840   -1.9780 c3        1 RA4     -0.033000
     29 C7          2.8330    0.1100   -2.1990 c3        1 RA4     -0.199000
     30 C6          4.0400    0.2910   -3.1430 c3        1 RA4     -0.166000
     31 C5          5.1640   -0.6650   -2.7230 c3        1 RA4     -0.055000
     32 N4          5.7760   -1.2160   -3.8830 n3        1 RA4     -0.333000
     33 C2          7.0860   -1.7760   -3.8000 c2        1 RA4      0.160000
     34 N1          8.1800   -0.9710   -3.9180 n1        1 RA4     -0.353000
     35 N3          7.2520   -3.1880   -3.5900 n3        1 RA4     -0.319000
     36 H28        -3.0770   -0.9540    4.0970 ha        1 RA4      0.155000
     37 H29        -3.1960   -2.2550    6.1010 ha        1 RA4      0.176000
     38 H34         0.6870   -3.5330    5.4980 ha        1 RA4      0.177000
     39 H35         0.8030   -2.2370    3.5030 ha        1 RA4      0.168000
     40 H24        -3.0130   -0.0200    2.2740 hn        1 RA4      0.250000
     41 H23        -1.2930    0.6000    0.1510 h1        1 RA4      0.129000
     42 H221       -2.8180   -0.0140   -1.3480 hc        1 RA4      0.097000
     43 H222       -4.0130    0.6070   -0.4940 hc        1 RA4      0.097000
     44 H21        -3.0940   -1.5690    0.8210 hc        1 RA4      0.105000
     45 H191       -5.6270   -1.1650   -0.4720 hc        1 RA4      0.073667
     46 H192       -5.3590   -2.2970    0.6540 hc        1 RA4      0.073667
     47 H193       -5.3110   -0.7300    1.0460 hc        1 RA4      0.073667
     48 H201       -3.4200   -3.2590   -0.7130 hc        1 RA4      0.073667
     49 H202       -3.9030   -2.2080   -1.8310 hc        1 RA4      0.073667
     50 H203       -2.3610   -2.2430   -1.3560 hc        1 RA4      0.073667
     51 H12        -1.5420    2.6460   -1.9740 h1        1 RA4      0.102000
     52 H131       -0.0460    4.6120   -2.1960 hc        1 RA4      0.101500
     53 H132        0.2350    4.6550   -0.6010 hc        1 RA4      0.101500
     54 H141       -1.0740    6.1950   -0.7050 hc        1 RA4      0.098500
     55 H142       -1.8150    5.5860   -2.0200 hc        1 RA4      0.098500
     56 H151       -2.4240    5.0640    0.6580 h1        1 RA4      0.102500
     57 H152       -3.3420    4.7610   -0.6280 h1        1 RA4      0.102500
     58 HN9         0.2450    0.7550   -2.5410 hn        1 RA4      0.214000
     59 H81         2.4460    1.8810   -1.1250 h1        1 RA4      0.104500
     60 H82         2.3530    2.0850   -2.7160 h1        1 RA4      0.104500
     61 H71         3.1430   -0.2430   -1.3370 hc        1 RA4      0.110000
     62 H72         2.2040   -0.5130   -2.5950 hc        1 RA4      0.110000
     63 H61         4.3570    1.2070   -3.0920 hc        1 RA4      0.078500
     64 H62         3.7720    0.0940   -4.0460 hc        1 RA4      0.078500
     65 H51         4.7910   -1.3900   -2.1760 h1        1 RA4      0.088000
     66 H52         5.8430   -0.1660   -2.1930 h1        1 RA4      0.088000
     67 HN4         5.3360   -1.1960   -4.6860 hn        1 RA4      0.186000
     68 HN1         8.0730   -0.0540   -4.0540 DU        1 RA4      0.144000
     69 HN31        8.0790   -3.5550   -3.6170 hn        1 RA4      0.191000
     70 HN32        6.5160   -3.7160   -3.3860 hn        1 RA4      0.191000
@<TRIPOS>BOND
     1    1    2 1   
     2    1   12 1   
     3    3    4 1   
     4    3    8 1   
     5    4    5 1   
     6    4   36 1   
     7    5   37 1   
     8    6    7 1   
     9    6    9 1   
    10    7   38 1   
    11    8   39 1   
    12    9   10 1   
    13    9   11 1   
    14   12   13 1   
    15   12   40 1   
    16   13   14 1   
    17   13   16 1   
    18   13   41 1   
    19   14   15 1   
    20   14   20 1   
    21   16   17 1   
    22   16   42 1   
    23   16   43 1   
    24   17   18 1   
    25   17   19 1   
    26   17   44 1   
    27   18   45 1   
    28   18   46 1   
    29   18   47 1   
    30   19   48 1   
    31   19   49 1   
    32   19   50 1   
    33   20   21 1   
    34   20   26 1   
    35   21   22 1   
    36   21   24 1   
    37   21   51 1   
    38   22   23 1   
    39   22   27 1   
    40   24   25 1   
    41   24   52 1   
    42   24   53 1   
    43   25   26 1   
    44   25   54 1   
    45   25   55 1   
    46   26   56 1   
    47   26   57 1   
    48   27   28 1   
    49   27   58 1   
    50   28   29 1   
    51   28   59 1   
    52   28   60 1   
    53   29   30 1   
    54   29   61 1   
    55   29   62 1   
    56   30   31 1   
    57   30   63 1   
    58   30   64 1   
    59   31   32 1   
    60   31   65 1   
    61   31   66 1   
    62   32   33 1   
    63   32   67 1   
    64   33   34 1   
    65   33   35 1   
    66   35   69 1   
    67   35   70 1   
@<TRIPOS>SUBSTRUCTURE
     1 RA4         1 TEMP              0 ****  ****    0 ROOT
