@<TRIPOS>MOLECULE
RA8
   72    73     1     0     0
SMALL
bcc


@<TRIPOS>ATOM
      1 C27         3.9140    1.5100   -0.1860 c3        1 RA8     -0.253300
      2 S26         4.0250    0.0890    0.8010 s6        1 RA8      1.449900
      3 C30         5.2380    2.0980   -0.5040 ca        1 RA8     -0.074300
      4 C31         6.1300    1.4120   -1.3390 ca        1 RA8     -0.114500
      5 C32         7.3620    1.9780   -1.6620 ca        1 RA8     -0.126500
      6 C33         7.7110    3.2320   -1.1590 ca        1 RA8     -0.121000
      7 C34         6.8260    3.9180   -0.3280 ca        1 RA8     -0.126500
      8 C35         5.5920    3.3560   -0.0020 ca        1 RA8     -0.114500
      9 O15         4.5670    0.4400    2.0480 o         1 RA8     -0.645300
     10 O29         4.6700   -0.9260    0.0590 o         1 RA8     -0.645300
     11 N25         2.4620   -0.3000    0.9930 n3        1 RA8     -0.909100
     12 C19         1.7980   -1.3970    0.3520 c3        1 RA8      0.190500
     13 C18         0.6640   -0.8990   -0.5830 c         1 RA8      0.642100
     14 O24         0.0990    0.2010   -0.3920 o         1 RA8     -0.633100
     15 C20         1.2330   -2.4620    1.3120 c3        1 RA8     -0.085400
     16 C21         0.6070   -1.9730    2.6090 c3        1 RA8     -0.065700
     17 C22         0.2990   -3.1720    3.4880 c3        1 RA8     -0.100100
     18 C23        -0.6530   -1.1680    2.3810 c3        1 RA8     -0.100100
     19 N16         0.2460   -1.7160   -1.6130 n         1 RA8     -0.460800
     20 C11        -0.7840   -1.2950   -2.5580 c3        1 RA8      0.032700
     21 C5         -2.2230   -1.5690   -2.0540 c         1 RA8      0.650100
     22 O12        -3.0380   -2.2010   -2.7560 o         1 RA8     -0.615100
     23 C13        -0.5150   -2.0530   -3.8760 c3        1 RA8     -0.087400
     24 C14         0.4950   -3.1450   -3.5440 c3        1 RA8     -0.090400
     25 C17         1.0130   -2.8370   -2.1290 c3        1 RA8      0.086000
     26 N10        -2.5600   -1.0830   -0.8120 n         1 RA8     -0.559900
     27 C9         -3.8930   -1.1800   -0.2850 c3        1 RA8      0.086000
     28 C8         -4.6690    0.1400   -0.2760 c3        1 RA8     -0.105400
     29 C7         -6.0350   -0.0750    0.3370 c3        1 RA8     -0.085400
     30 C6         -6.8070    1.2450    0.3560 c3        1 RA8      0.177800
     31 N4         -8.1090    1.1280    0.9760 nh        1 RA8     -0.841200
     32 C2         -9.0180    2.2260    0.7760 c2        1 RA8      0.742100
     33 N1         -8.6900    3.4720    0.5450 n2        1 RA8     -0.876100
     34 N3        -10.4100    1.8750    0.8740 nh        1 RA8     -0.881800
     35 H271        3.3980    1.2810   -1.1590 h1        1 RA8      0.115700
     36 H272        3.2770    2.2930    0.3080 h1        1 RA8      0.115700
     37 H31         5.8620    0.4140   -1.7230 ha        1 RA8      0.142000
     38 H32         8.0590    1.4320   -2.3130 ha        1 RA8      0.135500
     39 H33         8.6840    3.6770   -1.4150 ha        1 RA8      0.134000
     40 H34         7.1000    4.9040    0.0740 ha        1 RA8      0.135500
     41 H35         4.8990    3.9020    0.6560 ha        1 RA8      0.142000
     42 H25         1.8530    0.2330    1.5710 hn        1 RA8      0.460800
     43 H19         2.5750   -1.9240   -0.2910 h1        1 RA8      0.091700
     44 H201        0.4780   -3.0750    0.7530 hc        1 RA8      0.058700
     45 H202        2.0860   -3.1440    1.5810 hc        1 RA8      0.058700
     46 H21         1.3490   -1.3300    3.1630 hc        1 RA8      0.054700
     47 H221        1.2310   -3.7460    3.7100 hc        1 RA8      0.039700
     48 H222       -0.1470   -2.8340    4.4550 hc        1 RA8      0.039700
     49 H223       -0.4270   -3.8530    2.9830 hc        1 RA8      0.039700
     50 H231       -1.4120   -1.7700    1.8230 hc        1 RA8      0.039700
     51 H232       -1.0960   -0.8650    3.3610 hc        1 RA8      0.039700
     52 H233       -0.4340   -0.2440    1.7900 hc        1 RA8      0.039700
     53 H11        -0.7130   -0.1780   -2.7200 h1        1 RA8      0.086700
     54 H131       -1.4610   -2.4860   -4.2900 hc        1 RA8      0.077200
     55 H132       -0.0980   -1.3420   -4.6310 hc        1 RA8      0.077200
     56 H141        1.3390   -3.1520   -4.2750 hc        1 RA8      0.060700
     57 H142        0.0100   -4.1520   -3.5640 hc        1 RA8      0.060700
     58 H171        2.1090   -2.5850   -2.1670 h1        1 RA8      0.051700
     59 H172        0.8780   -3.7230   -1.4490 h1        1 RA8      0.051700
     60 H10        -1.9350   -0.4630   -0.3450 hn        1 RA8      0.332500
     61 H91        -3.8130   -1.5570    0.7770 h1        1 RA8      0.060700
     62 H92        -4.4700   -1.9400   -0.8860 h1        1 RA8      0.060700
     63 H81        -4.7790    0.5250   -1.3230 hc        1 RA8      0.050700
     64 H82        -4.1080    0.9140    0.3100 hc        1 RA8      0.050700
     65 H71        -5.9260   -0.4710    1.3800 hc        1 RA8      0.051200
     66 H72        -6.5980   -0.8420   -0.2580 hc        1 RA8      0.051200
     67 H61        -6.8800    1.6290   -0.7050 h1        1 RA8      0.041200
     68 H62        -6.2140    2.0000    0.9490 h1        1 RA8      0.041200
     69 HN4        -8.5220    0.2280    0.8330 hn        1 RA8      0.398800
     70 HN1        -7.7240    3.6480    0.3820 hn        1 RA8      0.393400
     71 HN31      -11.0060    2.6770    0.8190 hn        1 RA8      0.391300
     72 HN32      -10.6070    1.3370    1.6930 hn        1 RA8      0.391300
@<TRIPOS>BOND
     1    1    2 1   
     2    1    3 1   
     3    1   35 1   
     4    1   36 1   
     5    2    9 2   
     6    2   10 2   
     7    2   11 1   
     8    3    4 ar  
     9    3    8 ar  
    10    4    5 ar  
    11    4   37 1   
    12    5    6 ar  
    13    5   38 1   
    14    6    7 ar  
    15    6   39 1   
    16    7    8 ar  
    17    7   40 1   
    18    8   41 1   
    19   11   12 1   
    20   11   42 1   
    21   12   13 1   
    22   12   15 1   
    23   12   43 1   
    24   13   14 2   
    25   13   19 1   
    26   15   16 1   
    27   15   44 1   
    28   15   45 1   
    29   16   17 1   
    30   16   18 1   
    31   16   46 1   
    32   17   47 1   
    33   17   48 1   
    34   17   49 1   
    35   18   50 1   
    36   18   51 1   
    37   18   52 1   
    38   19   20 1   
    39   19   25 1   
    40   20   21 1   
    41   20   23 1   
    42   20   53 1   
    43   21   22 2   
    44   21   26 1   
    45   23   24 1   
    46   23   54 1   
    47   23   55 1   
    48   24   25 1   
    49   24   56 1   
    50   24   57 1   
    51   25   58 1   
    52   25   59 1   
    53   26   27 1   
    54   26   60 1   
    55   27   28 1   
    56   27   61 1   
    57   27   62 1   
    58   28   29 1   
    59   28   63 1   
    60   28   64 1   
    61   29   30 1   
    62   29   65 1   
    63   29   66 1   
    64   30   31 1   
    65   30   67 1   
    66   30   68 1   
    67   31   32 1   
    68   31   69 1   
    69   32   33 2   
    70   32   34 1   
    71   33   70 1   
    72   34   71 1   
    73   34   72 1   
@<TRIPOS>SUBSTRUCTURE
     1 RA8         1 TEMP              0 ****  ****    0 ROOT
