@<TRIPOS>MOLECULE
RAA
   23    23     1     0     0
SMALL
bcc


@<TRIPOS>ATOM
      1 C1         -0.9450    0.6680   -1.3980 c3        1 RAA      0.301900
      2 C2          0.5680    0.6680   -1.3980 c3        1 RAA      0.095100
      3 O2          1.0340   -0.5060   -2.0940 oh        1 RAA     -0.592800
      4 C3          1.1310    0.6680   -0.0250 c3        1 RAA      0.073100
      5 O3          2.5700    0.4850   -0.1090 oh        1 RAA     -0.594800
      6 C4          0.5540   -0.4190    0.8230 c3        1 RAA      0.086100
      7 O4          1.0070   -0.2450    2.1730 oh        1 RAA     -0.591800
      8 C5         -0.9650   -0.4160    0.8120 c3        1 RAA      0.145100
      9 O5         -1.5160   -0.4120   -0.5430 os        1 RAA     -0.456600
     10 C6         -1.4600   -1.6390    1.5350 c3        1 RAA     -0.089100
     11 O1         -1.3910    1.8890   -0.9320 oh        1 RAA     -0.617800
     12 HC1        -1.2600    0.5450   -2.3130 h2        1 RAA      0.084700
     13 HC2         0.8840    1.4620   -1.8690 h1        1 RAA      0.111700
     14 HO2         1.3400   -0.2740   -2.8940 ho        1 RAA      0.412000
     15 HC3         0.9450    1.5300    0.3940 h1        1 RAA      0.107700
     16 HO3         2.9780    1.2380    0.1250 ho        1 RAA      0.416000
     17 HC4         0.8710   -1.2810    0.4920 h1        1 RAA      0.039700
     18 HO4         1.6470   -0.8350    2.3490 ho        1 RAA      0.422000
     19 HC5        -1.2820    0.3780    1.2830 h1        1 RAA      0.066700
     20 HC61       -1.1720   -1.6050    2.4670 hc        1 RAA      0.052033
     21 HC62       -2.4350   -1.6680    1.4960 hc        1 RAA      0.052033
     22 HC63       -1.0940   -2.4390    1.1100 hc        1 RAA      0.052033
     23 HO1        -2.0110    2.2070   -1.4820 ho        1 RAA      0.425000
@<TRIPOS>BOND
     1    1    2 1   
     2    1    9 1   
     3    1   11 1   
     4    1   12 1   
     5    2    3 1   
     6    2    4 1   
     7    2   13 1   
     8    3   14 1   
     9    4    5 1   
    10    4    6 1   
    11    4   15 1   
    12    5   16 1   
    13    6    7 1   
    14    6    8 1   
    15    6   17 1   
    16    7   18 1   
    17    8    9 1   
    18    8   10 1   
    19    8   19 1   
    20   10   20 1   
    21   10   21 1   
    22   10   22 1   
    23   11   23 1   
@<TRIPOS>SUBSTRUCTURE
     1 RAA         1 TEMP              0 ****  ****    0 ROOT
