@<TRIPOS>MOLECULE
RAA
   23    23     1     0     0
SMALL
bcc


@<TRIPOS>ATOM
      1 C1         -0.8910    1.4760   -0.0270 c3        1 RAA      0.307900
      2 C2         -1.5120    0.0670   -0.0480 c3        1 RAA      0.095100
      3 O2         -1.8770   -0.3300    1.2650 oh        1 RAA     -0.600800
      4 C3         -0.5150   -0.9790   -0.5620 c3        1 RAA      0.115100
      5 O3         -0.9930   -2.2960   -0.3800 oh        1 RAA     -0.596800
      6 C4          0.8460   -0.8070    0.1330 c3        1 RAA      0.086100
      7 O4          1.8040   -1.6950   -0.4160 oh        1 RAA     -0.595800
      8 C5          1.3580    0.6230   -0.0940 c3        1 RAA      0.150100
      9 O5          0.4290    1.5640    0.4590 os        1 RAA     -0.443600
     10 C6          2.6760    0.8640    0.6130 c3        1 RAA     -0.088100
     11 O1         -0.8590    1.9480   -1.3550 oh        1 RAA     -0.627800
     12 HC1        -1.4800    2.1670    0.6450 h2        1 RAA      0.067700
     13 HC2        -2.4200    0.0810   -0.7140 h1        1 RAA      0.072700
     14 HO2        -2.5730    0.2690    1.5600 ho        1 RAA      0.414000
     15 HC3        -0.3990   -0.8640   -1.6770 h1        1 RAA      0.102700
     16 HO3        -1.2520   -2.3860    0.5480 ho        1 RAA      0.421000
     17 HC4         0.7340   -1.0090    1.2350 h1        1 RAA      0.061700
     18 HO4         1.3620   -2.5500   -0.5120 ho        1 RAA      0.419000
     19 HC5         1.4520    0.8140   -1.1990 h1        1 RAA      0.058700
     20 HC61        3.4100    0.0960    0.2690 hc        1 RAA      0.052367
     21 HC62        3.0580    1.8840    0.3760 hc        1 RAA      0.052367
     22 HC63        2.5460    0.7800    1.7180 hc        1 RAA      0.052367
     23 HO1        -0.3420    2.7640   -1.3590 ho        1 RAA      0.426000
@<TRIPOS>BOND
     1    1    2 1   
     2    1    9 1   
     3    1   11 1   
     4    1   12 1   
     5    2    3 1   
     6    2    4 1   
     7    2   13 1   
     8    3   14 1   
     9    4    5 1   
    10    4    6 1   
    11    4   15 1   
    12    5   16 1   
    13    6    7 1   
    14    6    8 1   
    15    6   17 1   
    16    7   18 1   
    17    8    9 1   
    18    8   10 1   
    19    8   19 1   
    20   10   20 1   
    21   10   21 1   
    22   10   22 1   
    23   11   23 1   
@<TRIPOS>SUBSTRUCTURE
     1 RAA         1 TEMP              0 ****  ****    0 ROOT
