@<TRIPOS>MOLECULE
RAB
   32    34     1     0     0
SMALL
bcc


@<TRIPOS>ATOM
      1 O5'         0.3200   -1.2050    0.0360 oh        1 RAB     -0.590800
      2 C5'         1.7130   -1.0100    0.1430 c3        1 RAB      0.114400
      3 C4'         2.0590   -0.0240    1.2570 c3        1 RAB      0.091100
      4 O4'         1.5050   -0.5010    2.4950 os        1 RAB     -0.419600
      5 C1'         2.5270   -0.8810    3.4230 c3        1 RAB      0.233800
      6 N9          2.5200   -2.3120    3.6160 na        1 RAB     -0.286000
      7 C4          3.0790   -2.9780    4.7180 ca        1 RAB      0.453800
      8 N3          3.8240   -2.5060    5.7640 nb        1 RAB     -0.762000
      9 C2          4.1770   -3.4850    6.6310 ca        1 RAB      0.692900
     10 N1          3.9120   -4.8160    6.6070 nb        1 RAB     -0.796000
     11 C6          3.1700   -5.3000    5.5520 ca        1 RAB      0.768200
     12 N6          2.8730   -6.6310    5.4510 nh        1 RAB     -0.958500
     13 C5          2.7130   -4.3780    4.5490 ca        1 RAB     -0.228200
     14 N7          1.9470   -4.5360    3.3850 nc        1 RAB     -0.543100
     15 C8          1.8450   -3.3060    2.8630 cd        1 RAB      0.423700
     16 C2'         3.8650   -0.2620    2.8990 c3        1 RAB      0.082100
     17 O2'         4.9770   -1.1230    2.8800 oh        1 RAB     -0.584800
     18 C3'         3.5760    0.1380    1.4330 c3        1 RAB      0.121100
     19 O3'         3.8890    1.4970    1.2060 oh        1 RAB     -0.586800
     20 H5'        -0.0190   -1.3780    0.9250 ho        1 RAB      0.412000
     21 H5'1        2.2260   -1.9940    0.3170 h1        1 RAB      0.056700
     22 H5'2        2.0280   -0.5900   -0.8500 h1        1 RAB      0.056700
     23 H4'         1.5580    0.9680    1.0750 h1        1 RAB      0.110700
     24 H1'         2.2330   -0.4020    4.4070 h2        1 RAB      0.104700
     25 H2          4.7800   -3.1500    7.5040 h5        1 RAB      0.052100
     26 HN61        2.3200   -6.9430    4.6920 hn        1 RAB      0.451800
     27 HN62        3.1690   -7.2710    6.1440 hn        1 RAB      0.451800
     28 H8          1.2950   -3.0410    1.9500 h5        1 RAB      0.078800
     29 H2'         4.0860    0.6500    3.5190 h1        1 RAB      0.072700
     30 H1          5.1700   -1.3700    3.7950 ho        1 RAB      0.431000
     31 H3'         4.1520   -0.5230    0.7290 h1        1 RAB      0.078700
     32 H3          4.8520    1.5680    1.2320 ho        1 RAB      0.417000
@<TRIPOS>BOND
     1    1    2 1   
     2    1   20 1   
     3    2    3 1   
     4    2   21 1   
     5    2   22 1   
     6    3    4 1   
     7    3   18 1   
     8    3   23 1   
     9    4    5 1   
    10    5    6 1   
    11    5   16 1   
    12    5   24 1   
    13    6    7 1   
    14    6   15 1   
    15    7    8 ar  
    16    7   13 ar  
    17    8    9 ar  
    18    9   10 ar  
    19    9   25 1   
    20   10   11 ar  
    21   11   12 1   
    22   11   13 ar  
    23   12   26 1   
    24   12   27 1   
    25   13   14 1   
    26   14   15 2   
    27   15   28 1   
    28   16   17 1   
    29   16   18 1   
    30   16   29 1   
    31   17   30 1   
    32   18   19 1   
    33   18   31 1   
    34   19   32 1   
@<TRIPOS>SUBSTRUCTURE
     1 RAB         1 TEMP              0 ****  ****    0 ROOT
