@<TRIPOS>MOLECULE
RAB
   32    34     1     0     0
SMALL
bcc


@<TRIPOS>ATOM
      1 O5'         0.3170   -1.1700    0.0460 oh        1 RAB     -0.590800
      2 C5'         1.7120   -0.9820    0.1520 c3        1 RAB      0.114400
      3 C4'         2.0650   -0.0050    1.2720 c3        1 RAB      0.091100
      4 O4'         1.5110   -0.4870    2.5080 os        1 RAB     -0.419600
      5 C1'         2.5330   -0.8780    3.4320 c3        1 RAB      0.233800
      6 N9          2.5200   -2.3110    3.6150 na        1 RAB     -0.286000
      7 C4          3.0780   -2.9850    4.7120 ca        1 RAB      0.453800
      8 N3          3.8270   -2.5230    5.7600 nb        1 RAB     -0.762000
      9 C2          4.1780   -3.5090    6.6200 ca        1 RAB      0.692900
     10 N1          3.9070   -4.8390    6.5870 nb        1 RAB     -0.796000
     11 C6          3.1610   -5.3130    5.5310 ca        1 RAB      0.768200
     12 N6          2.8590   -6.6420    5.4210 nv        1 RAB     -0.958500
     13 C5          2.7060   -4.3830    4.5350 ca        1 RAB     -0.228200
     14 N7          1.9370   -4.5300    3.3710 nc        1 RAB     -0.543100
     15 C8          1.8390   -3.2970    2.8570 cd        1 RAB      0.423700
     16 C2'         3.8720   -0.2620    2.9090 c3        1 RAB      0.082100
     17 O2'         4.9800   -1.1270    2.8820 oh        1 RAB     -0.584800
     18 C3'         3.5820    0.1480    1.4460 c3        1 RAB      0.121100
     19 O3'         3.9020    1.5080    1.2270 oh        1 RAB     -0.586800
     20 H5'        -0.0200   -1.3480    0.9350 ho        1 RAB      0.412000
     21 H5'1        2.2200   -1.9700    0.3180 h1        1 RAB      0.056700
     22 H5'2        2.0270   -0.5570   -0.8390 h1        1 RAB      0.056700
     23 H4'         1.5680    0.9910    1.0970 h1        1 RAB      0.110700
     24 H1'         2.2430   -0.4040    4.4190 h2        1 RAB      0.104700
     25 H2          4.7830   -3.1820    7.4940 h5        1 RAB      0.052100
     26 HN61        3.1530   -7.2880    6.1100 hn        1 RAB      0.451800
     27 HN62        2.3030   -6.9470    4.6620 hn        1 RAB      0.451800
     28 H8          1.2890   -3.0230    1.9470 h5        1 RAB      0.078800
     29 H2'         4.0990    0.6460    3.5340 h1        1 RAB      0.072700
     30 H1          5.1740   -1.3810    3.7940 ho        1 RAB      0.431000
     31 H3'         4.1540   -0.5100    0.7360 h1        1 RAB      0.078700
     32 H3          4.8650    1.5740    1.2510 ho        1 RAB      0.417000
@<TRIPOS>BOND
     1    1    2 1   
     2    1   20 1   
     3    2    3 1   
     4    2   21 1   
     5    2   22 1   
     6    3    4 1   
     7    3   18 1   
     8    3   23 1   
     9    4    5 1   
    10    5    6 1   
    11    5   16 1   
    12    5   24 1   
    13    6    7 1   
    14    6   15 1   
    15    7    8 ar  
    16    7   13 ar  
    17    8    9 ar  
    18    9   10 ar  
    19    9   25 1   
    20   10   11 ar  
    21   11   12 1   
    22   11   13 ar  
    23   12   26 1   
    24   12   27 1   
    25   13   14 1   
    26   14   15 2   
    27   15   28 1   
    28   16   17 1   
    29   16   18 1   
    30   16   29 1   
    31   17   30 1   
    32   18   19 1   
    33   18   31 1   
    34   19   32 1   
@<TRIPOS>SUBSTRUCTURE
     1 RAB         1 TEMP              0 ****  ****    0 ROOT
