@<TRIPOS>MOLECULE
RAB
   33    35     1     0     0
SMALL
bcc


@<TRIPOS>ATOM
      1 O5'         0.6130   -1.7460    0.4880 oh        1 RAB     -0.600800
      2 C5'         1.8240   -1.0770    0.2080 c3        1 RAB      0.108400
      3 C4'         2.1700   -0.0530    1.2910 c3        1 RAB      0.053100
      4 O4'         1.5740   -0.4570    2.5370 os        1 RAB     -0.396600
      5 C1'         2.5560   -0.8450    3.4930 c3        1 RAB      0.258800
      6 N9          2.4320   -2.2720    3.7600 na        1 RAB     -0.259000
      7 C4          3.0340   -2.9380    4.8380 ca        1 RAB      0.469800
      8 N3          3.7900   -2.5050    5.8740 nb        1 RAB     -0.619000
      9 C2          4.1770   -3.4920    6.7260 ca        1 RAB      0.666900
     10 N1          3.9050   -4.8260    6.6680 nb        1 RAB     -0.682000
     11 C6          3.1410   -5.2470    5.6270 ca        1 RAB      0.506200
     12 N6          2.8050   -6.6770    5.5030 n4        1 RAB     -0.813300
     13 C5          2.6550   -4.3620    4.6510 ca        1 RAB     -0.126200
     14 N7          1.8670   -4.5030    3.5080 nc        1 RAB     -0.601100
     15 C8          1.7600   -3.2550    3.0050 cd        1 RAB      0.524700
     16 C2'         3.9420   -0.3490    2.9690 c3        1 RAB      0.115100
     17 O2'         4.9050   -1.3770    3.0110 oh        1 RAB     -0.591800
     18 C3'         3.6840    0.1000    1.5090 c3        1 RAB      0.089100
     19 O3'         4.0890    1.4510    1.4340 oh        1 RAB     -0.582800
     20 H5'        -0.0680   -1.0770    0.6340 ho        1 RAB      0.423000
     21 H5'1        1.7640   -0.5560   -0.7850 h1        1 RAB      0.064700
     22 H5'2        2.5890   -1.8980    0.1530 h1        1 RAB      0.064700
     23 H4'         1.6900    0.9410    1.0650 h1        1 RAB      0.102700
     24 H1'         2.2840   -0.3100    4.4560 h2        1 RAB      0.121700
     25 H2          4.8030   -3.1720    7.5920 h5        1 RAB      0.096100
     26 HN61        1.7820   -6.7670    5.4620 hn        1 RAB      0.476467
     27 HN62        3.2100   -7.0310    4.6280 hn        1 RAB      0.476467
     28 H8          1.1870   -2.9780    2.0930 h5        1 RAB      0.140800
     29 H2'         4.2570    0.5330    3.5930 h1        1 RAB      0.102700
     30 H1          5.7710   -0.9460    3.0020 ho        1 RAB      0.436000
     31 H3'         4.2720   -0.5320    0.7900 h1        1 RAB      0.077700
     32 H3          4.0540    1.7140    0.5050 ho        1 RAB      0.424000
     33 H63         3.1700   -7.2160    6.2980 hn        1 RAB      0.476467
@<TRIPOS>BOND
     1    1    2 1   
     2    1   20 1   
     3    2    3 1   
     4    2   21 1   
     5    2   22 1   
     6    3    4 1   
     7    3   18 1   
     8    3   23 1   
     9    4    5 1   
    10    5    6 1   
    11    5   16 1   
    12    5   24 1   
    13    6    7 1   
    14    6   15 1   
    15    7    8 ar  
    16    7   13 ar  
    17    8    9 ar  
    18    9   10 ar  
    19    9   25 1   
    20   10   11 ar  
    21   11   12 1   
    22   11   13 ar  
    23   12   26 1   
    24   12   27 1   
    25   12   33 1   
    26   13   14 1   
    27   14   15 2   
    28   15   28 1   
    29   16   17 1   
    30   16   18 1   
    31   16   29 1   
    32   17   30 1   
    33   18   19 1   
    34   18   31 1   
    35   19   32 1   
@<TRIPOS>SUBSTRUCTURE
     1 RAB         1 TEMP              0 ****  ****    0 ROOT
