@<TRIPOS>MOLECULE
RAB
   32    34     1     0     0
SMALL
bcc


@<TRIPOS>ATOM
      1 O5'        -3.5980    2.4810   -0.1730 oh        1 RAB     -0.591800
      2 C5'        -3.3700    1.3240    0.6020 c3        1 RAB      0.110400
      3 C4'        -3.2460    0.0790   -0.2740 c3        1 RAB      0.057100
      4 O4'        -2.1430    0.2510   -1.1770 os        1 RAB     -0.416600
      5 C1'        -1.0500   -0.6130   -0.8430 c3        1 RAB      0.230800
      6 N9          0.0770    0.1700   -0.3920 na        1 RAB     -0.283000
      7 C4          1.4010   -0.2920   -0.3210 ca        1 RAB      0.453800
      8 N3          1.9300   -1.5320   -0.5510 nb        1 RAB     -0.760000
      9 C2          3.2720   -1.5640   -0.3750 ca        1 RAB      0.691900
     10 N1          4.1330   -0.5780   -0.0110 nb        1 RAB     -0.796000
     11 C6          3.6060    0.6720    0.2310 ca        1 RAB      0.767200
     12 N6          4.4080    1.7130    0.6110 nh        1 RAB     -0.959500
     13 C5          2.1910    0.8660    0.0790 ca        1 RAB     -0.228200
     14 N7          1.3580    1.9840    0.2360 nc        1 RAB     -0.543100
     15 C8          0.1250    1.5440   -0.0510 cd        1 RAB      0.423700
     16 C2'        -1.5940   -1.6850    0.1600 c3        1 RAB      0.121100
     17 O2'        -0.8620   -1.8130    1.3550 oh        1 RAB     -0.580800
     18 C3'        -3.0060   -1.1940    0.5510 c3        1 RAB      0.119100
     19 O3'        -3.9110   -2.2190    0.1850 oh        1 RAB     -0.584800
     20 H5'        -2.9370    2.4910   -0.8790 ho        1 RAB      0.412000
     21 H5'1       -4.2680    1.2390    1.2710 h1        1 RAB      0.056200
     22 H5'2       -2.4460    1.4550    1.2270 h1        1 RAB      0.056200
     23 H4'        -4.1470   -0.0230   -0.9410 h1        1 RAB      0.097700
     24 H1'        -0.7520   -1.1100   -1.8180 h2        1 RAB      0.103700
     25 H2          3.7510   -2.5510   -0.5560 h5        1 RAB      0.052100
     26 HN61        5.3850    1.5920    0.7090 hn        1 RAB      0.451300
     27 HN62        4.0000    2.6010    0.7650 hn        1 RAB      0.451300
     28 H8         -0.7900    2.1520   -0.0470 h5        1 RAB      0.077800
     29 H2'        -1.6560   -2.6710   -0.3780 h1        1 RAB      0.086700
     30 H1         -0.0240   -2.2410    1.1350 ho        1 RAB      0.430000
     31 H3'        -3.0590   -0.9900    1.6550 h1        1 RAB      0.081700
     32 H3         -4.7550   -2.0120    0.6050 ho        1 RAB      0.411000
@<TRIPOS>BOND
     1    1    2 1   
     2    1   20 1   
     3    2    3 1   
     4    2   21 1   
     5    2   22 1   
     6    3    4 1   
     7    3   18 1   
     8    3   23 1   
     9    4    5 1   
    10    5    6 1   
    11    5   16 1   
    12    5   24 1   
    13    6    7 1   
    14    6   15 1   
    15    7    8 ar  
    16    7   13 ar  
    17    8    9 ar  
    18    9   10 ar  
    19    9   25 1   
    20   10   11 ar  
    21   11   12 1   
    22   11   13 ar  
    23   12   26 1   
    24   12   27 1   
    25   13   14 1   
    26   14   15 2   
    27   15   28 1   
    28   16   17 1   
    29   16   18 1   
    30   16   29 1   
    31   17   30 1   
    32   18   19 1   
    33   18   31 1   
    34   19   32 1   
@<TRIPOS>SUBSTRUCTURE
     1 RAB         1 TEMP              0 ****  ****    0 ROOT
