@<TRIPOS>MOLECULE
RAC
   43    44     1     0     0
SMALL
bcc


@<TRIPOS>ATOM
      1 C1          0.8950   -0.6590    0.4040 ca        1 RAC     -0.159000
      2 C2          2.1380   -0.4520    0.9730 ca        1 RAC     -0.077000
      3 C3          2.2700    0.2300    2.1960 ca        1 RAC     -0.257600
      4 C4          1.1170    0.7410    2.8600 ca        1 RAC      0.177600
      5 C5         -0.1490    0.5020    2.2550 ca        1 RAC     -0.172000
      6 C6         -0.2490   -0.1820    1.0580 ca        1 RAC     -0.051000
      7 C7          3.6120    0.4530    2.7490 c         1 RAC      0.566700
      8 N1          4.5230   -0.7600    2.7900 n4        1 RAC     -0.561200
      9 C8          5.8660   -0.4420    3.3480 c3        1 RAC      0.073100
     10 C9          3.8590   -1.8660    3.5320 c3        1 RAC      0.073100
     11 O1          4.0630    1.5110    3.1720 o         1 RAC     -0.439100
     12 N2          1.2350    1.4350    4.0580 n         1 RAC     -0.465100
     13 C10         0.1770    1.7690    4.9090 c         1 RAC      0.760100
     14 O2         -1.0100    1.4460    4.8180 o         1 RAC     -0.511000
     15 O3          0.5330    2.6290    5.9360 os        1 RAC     -0.437900
     16 C11         0.8230    1.9780    7.1930 c3        1 RAC      0.196700
     17 C12         2.0840    1.1920    7.1080 ca        1 RAC     -0.179300
     18 C13         3.3020    1.8540    6.9090 ca        1 RAC     -0.130500
     19 C14         4.4700    1.1230    6.7150 ca        1 RAC     -0.123000
     20 C15         4.4290   -0.2760    6.7030 ca        1 RAC     -0.135600
     21 C16         3.2300   -0.9340    6.9930 ca        1 RAC     -0.123000
     22 C17         2.0610   -0.2040    7.1980 ca        1 RAC     -0.130500
     23 C18         5.6460   -1.0490    6.2370 c         1 RAC      0.893200
     24 O4          5.4420   -2.1760    5.6840 o         1 RAC     -0.831800
     25 O5          6.7760   -0.4960    6.2710 o         1 RAC     -0.831800
     26 HC1         0.8020   -1.1880   -0.5560 ha        1 RAC      0.153000
     27 HC2         3.0340   -0.8070    0.4410 ha        1 RAC      0.126000
     28 HC5        -1.0700    0.8690    2.7450 ha        1 RAC      0.192000
     29 HC6        -1.2420   -0.3490    0.6090 ha        1 RAC      0.155000
     30 HC81        6.3420   -1.3810    3.7650 hx        1 RAC      0.121700
     31 HC82        5.7720    0.2720    4.2180 hx        1 RAC      0.121700
     32 HC83        6.4910    0.0210    2.5440 hx        1 RAC      0.121700
     33 HC91        4.5640   -2.7420    3.6020 hx        1 RAC      0.121700
     34 HC92        2.9120   -2.1450    3.0030 hx        1 RAC      0.121700
     35 HC93        3.6540   -1.5410    4.5950 hx        1 RAC      0.121700
     36 HN2         2.1410    1.7480    4.3520 hn        1 RAC      0.357500
     37 H111        0.9220    2.8550    7.8900 h1        1 RAC      0.075700
     38 H112       -0.0550    1.3440    7.4850 h1        1 RAC      0.075700
     39 H13C        3.3240    2.9540    6.8940 ha        1 RAC      0.131500
     40 H14C        5.4390    1.6240    6.5580 ha        1 RAC      0.159500
     41 H16C        3.2270   -2.0350    7.0370 ha        1 RAC      0.159500
     42 H17C        1.1170   -0.7260    7.4170 ha        1 RAC      0.131500
     43 H11         4.6500   -1.0700    1.8200 hn        1 RAC      0.427800
@<TRIPOS>BOND
     1    1    2 ar  
     2    1    6 ar  
     3    1   26 1   
     4    2    3 ar  
     5    2   27 1   
     6    3    4 ar  
     7    3    7 1   
     8    4    5 ar  
     9    4   12 1   
    10    5    6 ar  
    11    5   28 1   
    12    6   29 1   
    13    7    8 1   
    14    7   11 2   
    15    8    9 1   
    16    8   10 1   
    17    8   43 1   
    18    9   30 1   
    19    9   31 1   
    20    9   32 1   
    21   10   33 1   
    22   10   34 1   
    23   10   35 1   
    24   12   13 1   
    25   12   36 1   
    26   13   14 2   
    27   13   15 1   
    28   15   16 1   
    29   16   17 1   
    30   16   37 1   
    31   16   38 1   
    32   17   18 ar  
    33   17   22 ar  
    34   18   19 ar  
    35   18   39 1   
    36   19   20 ar  
    37   19   40 1   
    38   20   21 ar  
    39   20   23 1   
    40   21   22 ar  
    41   21   41 1   
    42   22   42 1   
    43   23   24 1   
    44   23   25 1   
@<TRIPOS>SUBSTRUCTURE
     1 RAC         1 TEMP              0 ****  ****    0 ROOT
