@<TRIPOS>MOLECULE
RAC
   42    43     1     0     0
SMALL
bcc


@<TRIPOS>ATOM
      1 C1         -0.9530    1.5650    4.7090 ca        1 RAC     -0.174000
      2 C2          0.1550    0.9740    4.1080 ca        1 RAC     -0.078000
      3 C3          0.0010    0.0690    3.0570 ca        1 RAC     -0.165600
      4 C4         -1.2990   -0.2610    2.5860 ca        1 RAC      0.123600
      5 C5         -2.4130    0.3570    3.2010 ca        1 RAC     -0.173000
      6 C6         -2.2310    1.2530    4.2470 ca        1 RAC     -0.098000
      7 C7          1.2080   -0.6000    2.4790 c         1 RAC      0.657700
      8 N1          2.2190    0.1670    1.9470 n         1 RAC     -0.435800
      9 C8          3.3730   -0.4650    1.3560 c3        1 RAC      0.049300
     10 C9          2.0830    1.5800    1.7110 c3        1 RAC      0.049300
     11 O1          1.2920   -1.8530    2.5120 o         1 RAC     -0.651100
     12 N2         -1.4390   -1.1840    1.5430 n         1 RAC     -0.446100
     13 C10        -2.5690   -1.3470    0.7670 c         1 RAC      0.759100
     14 O2         -3.6950   -0.8460    0.8880 o         1 RAC     -0.559000
     15 O3         -2.4060   -2.2930   -0.2460 os        1 RAC     -0.456900
     16 C11        -2.3570   -1.7250   -1.5670 c3        1 RAC      0.203700
     17 C12        -1.1440   -0.8860   -1.7710 ca        1 RAC     -0.178300
     18 C13         0.1160   -1.3770   -1.4080 ca        1 RAC     -0.136500
     19 C14         1.2450   -0.5730   -1.5440 ca        1 RAC     -0.114000
     20 C15         1.1350    0.7260   -2.0500 ca        1 RAC     -0.112600
     21 C16        -0.1180    1.1950   -2.4570 ca        1 RAC     -0.114000
     22 C17        -1.2530    0.3990   -2.3120 ca        1 RAC     -0.136500
     23 C18         2.3530    1.6320   -2.1140 c         1 RAC      0.908200
     24 O4          2.3560    2.5750   -2.9490 o         1 RAC     -0.830800
     25 O5          3.2980    1.4020   -1.3010 o         1 RAC     -0.830800
     26 HC1        -0.8180    2.2740    5.5360 ha        1 RAC      0.127000
     27 HC2         1.1710    1.2220    4.4560 ha        1 RAC      0.139000
     28 HC5        -3.4330    0.1340    2.8460 ha        1 RAC      0.169000
     29 HC6        -3.1110    1.7220    4.7120 ha        1 RAC      0.126000
     30 HC81        4.2560   -0.3190    2.0350 h1        1 RAC      0.060200
     31 HC82        3.1960   -1.5640    1.2250 h1        1 RAC      0.060200
     32 HC83        3.5950    0.0020    0.3510 h1        1 RAC      0.060200
     33 HC91        1.0120    1.9020    1.7820 h1        1 RAC      0.060200
     34 HC92        2.6790    2.1420    2.4810 h1        1 RAC      0.060200
     35 HC93        2.4730    1.8350    0.6800 h1        1 RAC      0.060200
     36 HN2        -0.6180   -1.6860    1.2560 hn        1 RAC      0.364500
     37 H111       -2.3360   -2.6410   -2.2190 h1        1 RAC      0.059200
     38 H112       -3.3000   -1.1430   -1.7450 h1        1 RAC      0.059200
     39 H13C        0.2010   -2.3940   -0.9980 ha        1 RAC      0.117500
     40 H14C        2.2370   -0.9350   -1.2290 ha        1 RAC      0.149000
     41 H16C       -0.1850    2.2070   -2.8880 ha        1 RAC      0.149000
     42 H17C       -2.2370    0.7850   -2.6130 ha        1 RAC      0.117500
@<TRIPOS>BOND
     1    1    2 ar  
     2    1    6 ar  
     3    1   26 1   
     4    2    3 ar  
     5    2   27 1   
     6    3    4 ar  
     7    3    7 1   
     8    4    5 ar  
     9    4   12 1   
    10    5    6 ar  
    11    5   28 1   
    12    6   29 1   
    13    7    8 1   
    14    7   11 2   
    15    8    9 1   
    16    8   10 1   
    17    9   30 1   
    18    9   31 1   
    19    9   32 1   
    20   10   33 1   
    21   10   34 1   
    22   10   35 1   
    23   12   13 1   
    24   12   36 1   
    25   13   14 2   
    26   13   15 1   
    27   15   16 1   
    28   16   17 1   
    29   16   37 1   
    30   16   38 1   
    31   17   18 ar  
    32   17   22 ar  
    33   18   19 ar  
    34   18   39 1   
    35   19   20 ar  
    36   19   40 1   
    37   20   21 ar  
    38   20   23 1   
    39   21   22 ar  
    40   21   41 1   
    41   22   42 1   
    42   23   24 1   
    43   23   25 1   
@<TRIPOS>SUBSTRUCTURE
     1 RAC         1 TEMP              0 ****  ****    0 ROOT
