@<TRIPOS>MOLECULE
RAC
   43    44     1     0     0
SMALL
bcc


@<TRIPOS>ATOM
      1 C1          0.9610   -0.8550    0.4230 ca        1 RAC     -0.157000
      2 C2          2.1970   -0.5230    0.9400 ca        1 RAC     -0.080000
      3 C3          2.3120    0.2170    2.1340 ca        1 RAC     -0.265600
      4 C4          1.1410    0.6760    2.8040 ca        1 RAC      0.187600
      5 C5         -0.1210    0.2990    2.2580 ca        1 RAC     -0.171000
      6 C6         -0.2000   -0.4490    1.1000 ca        1 RAC     -0.046000
      7 C7          3.6450    0.5330    2.6510 c         1 RAC      0.578700
      8 N1          4.6440   -0.6120    2.6400 nx        1 RAC     -0.585200
      9 C8          5.9090   -0.2040    1.9870 c3        1 RAC      0.079100
     10 C9          4.8960   -1.0740    4.0390 c3        1 RAC      0.079100
     11 O1          4.0460    1.6020    3.0990 o         1 RAC     -0.451100
     12 N2          1.2330    1.4580    3.9460 ns        1 RAC     -0.461100
     13 C10         0.1970    1.6770    4.8620 c         1 RAC      0.763100
     14 O2         -0.9490    1.2180    4.8430 o         1 RAC     -0.520000
     15 O3          0.5380    2.5790    5.8530 os        1 RAC     -0.440900
     16 C11         0.6170    1.9990    7.1800 c3        1 RAC      0.200700
     17 C12         1.8000    1.1020    7.2710 ca        1 RAC     -0.180300
     18 C13         3.0790    1.6460    7.4380 ca        1 RAC     -0.130500
     19 C14         4.2020    0.8250    7.3570 ca        1 RAC     -0.121000
     20 C15         4.0560   -0.5410    7.0970 ca        1 RAC     -0.132600
     21 C16         2.7740   -1.0980    7.0320 ca        1 RAC     -0.121000
     22 C17         1.6500   -0.2820    7.1220 ca        1 RAC     -0.130500
     23 C18         5.2710   -1.3810    6.7530 c         1 RAC      0.890200
     24 O4          5.0650   -2.4920    6.1710 o         1 RAC     -0.825800
     25 O5          6.4190   -0.8910    6.9260 o         1 RAC     -0.825800
     26 HC1         0.8810   -1.4290   -0.5120 ha        1 RAC      0.154000
     27 HC2         3.1030   -0.8170    0.3850 ha        1 RAC      0.125000
     28 HC5        -1.0510    0.6110    2.7670 ha        1 RAC      0.193000
     29 HC6        -1.1890   -0.7240    0.6970 ha        1 RAC      0.156000
     30 HC81        5.7130    0.0450    0.9120 hx        1 RAC      0.117367
     31 HC82        6.3230    0.6970    2.5170 hx        1 RAC      0.117367
     32 HC83        6.6490   -1.0460    2.0620 hx        1 RAC      0.117367
     33 HC91        3.9220   -1.3630    4.5260 hx        1 RAC      0.117367
     34 HC92        5.3860   -0.2490    4.6280 hx        1 RAC      0.117367
     35 HC93        5.5740   -1.9740    4.0420 hx        1 RAC      0.117367
     36 HN2         2.1100    1.8840    4.1730 hn        1 RAC      0.358500
     37 H111       -0.3440    1.4650    7.4000 h1        1 RAC      0.076700
     38 H112        0.7210    2.9130    7.8250 h1        1 RAC      0.076700
     39 H13C        3.1940    2.7260    7.6130 ha        1 RAC      0.127500
     40 H14C        5.2190    1.2330    7.4770 ha        1 RAC      0.161000
     41 H16C        2.6800   -2.1870    6.8870 ha        1 RAC      0.161000
     42 H17C        0.6420   -0.7200    7.0580 ha        1 RAC      0.127500
     43 H11         4.2340   -1.3950    2.1190 hn        1 RAC      0.444800
@<TRIPOS>BOND
     1    1    2 ar  
     2    1    6 ar  
     3    1   26 1   
     4    2    3 ar  
     5    2   27 1   
     6    3    4 ar  
     7    3    7 1   
     8    4    5 ar  
     9    4   12 1   
    10    5    6 ar  
    11    5   28 1   
    12    6   29 1   
    13    7    8 1   
    14    7   11 2   
    15    8    9 1   
    16    8   10 1   
    17    8   43 1   
    18    9   30 1   
    19    9   31 1   
    20    9   32 1   
    21   10   33 1   
    22   10   34 1   
    23   10   35 1   
    24   12   13 1   
    25   12   36 1   
    26   13   14 2   
    27   13   15 1   
    28   15   16 1   
    29   16   17 1   
    30   16   37 1   
    31   16   38 1   
    32   17   18 ar  
    33   17   22 ar  
    34   18   19 ar  
    35   18   39 1   
    36   19   20 ar  
    37   19   40 1   
    38   20   21 ar  
    39   20   23 1   
    40   21   22 ar  
    41   21   41 1   
    42   22   42 1   
    43   23   24 1   
    44   23   25 1   
@<TRIPOS>SUBSTRUCTURE
     1 RAC         1 TEMP              0 ****  ****    0 ROOT
