@<TRIPOS>MOLECULE
RAC
   42    43     1     0     0
SMALL
bcc


@<TRIPOS>ATOM
      1 C1          0.6560   -1.5220    1.0120 ca        1 RAC     -0.173000
      2 C2          1.9480   -1.1280    1.3500 ca        1 RAC     -0.079000
      3 C3          2.1660   -0.1040    2.2730 ca        1 RAC     -0.163600
      4 C4          1.0620    0.5570    2.8750 ca        1 RAC      0.121600
      5 C5         -0.2440    0.1350    2.5300 ca        1 RAC     -0.172000
      6 C6         -0.4320   -0.8890    1.6100 ca        1 RAC     -0.099000
      7 C7          3.5660    0.3370    2.5650 c         1 RAC      0.660700
      8 N1          4.4860   -0.5810    3.0170 n         1 RAC     -0.439800
      9 C8          5.8340   -0.1710    3.3290 c3        1 RAC      0.049800
     10 C9          4.1220   -1.9040    3.4510 c3        1 RAC      0.049800
     11 O1          3.8870    1.5340    2.3580 o         1 RAC     -0.650100
     12 N2          1.2890    1.6060    3.7750 n         1 RAC     -0.447100
     13 C10         0.3860    2.0440    4.7240 c         1 RAC      0.758100
     14 O2         -0.8040    1.7390    4.8820 o         1 RAC     -0.562000
     15 O3          0.8940    3.0410    5.5570 os        1 RAC     -0.456900
     16 C11         1.1370    2.5990    6.9070 c3        1 RAC      0.203700
     17 C12         2.2470    1.6080    6.9670 ca        1 RAC     -0.182300
     18 C13         3.5580    2.0100    6.6860 ca        1 RAC     -0.133500
     19 C14         4.5850    1.0710    6.6510 ca        1 RAC     -0.114500
     20 C15         4.3160   -0.2810    6.8890 ca        1 RAC     -0.117600
     21 C16         3.0160   -0.6710    7.2260 ca        1 RAC     -0.114500
     22 C17         1.9870    0.2660    7.2670 ca        1 RAC     -0.133500
     23 C18         5.4100   -1.3190    6.7020 c         1 RAC      0.899200
     24 O4          5.0710   -2.5370    6.6610 o         1 RAC     -0.828300
     25 O5          6.5960   -0.9120    6.5400 o         1 RAC     -0.828300
     26 HC1         0.4990   -2.3290    0.2840 ha        1 RAC      0.126000
     27 HC2         2.8150   -1.6310    0.8940 ha        1 RAC      0.140000
     28 HC5        -1.1190    0.6150    2.9980 ha        1 RAC      0.168000
     29 HC6        -1.4560   -1.2000    1.3550 ha        1 RAC      0.125000
     30 HC81        6.5470   -0.8000    2.7320 h1        1 RAC      0.060700
     31 HC82        5.9870    0.9080    3.0650 h1        1 RAC      0.060700
     32 HC83        6.0480   -0.3210    4.4290 h1        1 RAC      0.060700
     33 HC91        3.0110   -2.0070    3.5580 h1        1 RAC      0.060700
     34 HC92        4.6000   -2.1330    4.4510 h1        1 RAC      0.060700
     35 HC93        4.4840   -2.6520    2.6950 h1        1 RAC      0.060700
     36 HN2         2.2210    1.9740    3.8280 hn        1 RAC      0.366500
     37 H111        1.4080    3.5590    7.4250 h1        1 RAC      0.058200
     38 H112        0.1830    2.1840    7.3270 h1        1 RAC      0.058200
     39 H13C        3.7660    3.0680    6.4710 ha        1 RAC      0.117500
     40 H14C        5.6210    1.3650    6.4170 ha        1 RAC      0.153500
     41 H16C        2.8250   -1.7370    7.4300 ha        1 RAC      0.153500
     42 H17C        0.9630   -0.0500    7.5140 ha        1 RAC      0.117500
@<TRIPOS>BOND
     1    1    2 ar  
     2    1    6 ar  
     3    1   26 1   
     4    2    3 ar  
     5    2   27 1   
     6    3    4 ar  
     7    3    7 1   
     8    4    5 ar  
     9    4   12 1   
    10    5    6 ar  
    11    5   28 1   
    12    6   29 1   
    13    7    8 1   
    14    7   11 2   
    15    8    9 1   
    16    8   10 1   
    17    9   30 1   
    18    9   31 1   
    19    9   32 1   
    20   10   33 1   
    21   10   34 1   
    22   10   35 1   
    23   12   13 1   
    24   12   36 1   
    25   13   14 2   
    26   13   15 1   
    27   15   16 1   
    28   16   17 1   
    29   16   37 1   
    30   16   38 1   
    31   17   18 ar  
    32   17   22 ar  
    33   18   19 ar  
    34   18   39 1   
    35   19   20 ar  
    36   19   40 1   
    37   20   21 ar  
    38   20   23 1   
    39   21   22 ar  
    40   21   41 1   
    41   22   42 1   
    42   23   24 1   
    43   23   25 1   
@<TRIPOS>SUBSTRUCTURE
     1 RAC         1 TEMP              0 ****  ****    0 ROOT
