@<TRIPOS>MOLECULE
RAE
   22    22     1     0     0
SMALL
bcc


@<TRIPOS>ATOM
      1 C1          1.5650   -0.8470   -0.3270 c3        1 RAE      0.337900
      2 C2          0.2730   -1.6200   -0.5590 c3        1 RAE     -0.129400
      3 C3         -0.8960   -0.9610    0.1560 c3        1 RAE      0.102100
      4 O3         -2.1370   -1.5060   -0.2690 oh        1 RAE     -0.608800
      5 C4         -0.9520    0.5380   -0.1890 c3        1 RAE      0.122100
      6 O4         -1.9560    1.1870    0.5720 oh        1 RAE     -0.596800
      7 C5          0.3910    1.1900    0.1800 c3        1 RAE      0.148100
      8 O5          1.4610    0.5490   -0.5230 os        1 RAE     -0.451600
      9 C6          0.4280    2.6490   -0.2260 c3        1 RAE     -0.089100
     10 OXT         1.9660   -1.0290    1.0130 oh        1 RAE     -0.629800
     11 H1          2.3740   -1.1680   -1.0460 h2        1 RAE      0.070700
     12 H2          0.0710   -1.6530   -1.6610 hc        1 RAE      0.068700
     13 H2A         0.4050   -2.6690   -0.1890 hc        1 RAE      0.068700
     14 H3         -0.7870   -1.0850    1.2710 h1        1 RAE      0.064700
     15 HO3        -2.1290   -2.4400   -0.0280 ho        1 RAE      0.409000
     16 H4         -1.1640    0.6650   -1.2860 h1        1 RAE      0.058700
     17 HO4        -2.7750    0.6990    0.4100 ho        1 RAE      0.421000
     18 H5          0.5640    1.0750    1.2870 h1        1 RAE      0.060700
     19 H6         -0.4380    3.1730    0.2450 hc        1 RAE      0.051033
     20 H6A         1.3810    3.1180    0.1140 hc        1 RAE      0.051033
     21 H6B         0.3590    2.7470   -1.3360 hc        1 RAE      0.051033
     22 HXT         2.7260   -0.4530    1.1670 ho        1 RAE      0.420000
@<TRIPOS>BOND
     1    1    2 1   
     2    1    8 1   
     3    1   10 1   
     4    1   11 1   
     5    2    3 1   
     6    2   12 1   
     7    2   13 1   
     8    3    4 1   
     9    3    5 1   
    10    3   14 1   
    11    4   15 1   
    12    5    6 1   
    13    5    7 1   
    14    5   16 1   
    15    6   17 1   
    16    7    8 1   
    17    7    9 1   
    18    7   18 1   
    19    9   19 1   
    20    9   20 1   
    21    9   21 1   
    22   10   22 1   
@<TRIPOS>SUBSTRUCTURE
     1 RAE         1 TEMP              0 ****  ****    0 ROOT
