@<TRIPOS>MOLECULE
RAI
   41    42     1     0     0
SMALL
bcc


@<TRIPOS>ATOM
      1 C1          0.2040    0.3740   -0.0760 ca        1 RAI     -0.143000
      2 C2          1.6170    0.3140   -0.0450 ca        1 RAI     -0.007400
      3 C3          2.2600    0.3680    1.2240 ca        1 RAI      0.072600
      4 C4          1.4720    0.5100    2.3800 ca        1 RAI     -0.147000
      5 C5          0.1120    0.2060    2.3260 ca        1 RAI     -0.115600
      6 C6         -0.5410    0.2420    1.0930 ca        1 RAI     -0.106000
      7 C10        -0.4010   -0.5190    3.5610 c         1 RAI      0.923200
      8 O11        -1.5150   -0.3060    4.0640 o         1 RAI     -0.786300
      9 N12         3.6390    0.1270    1.4410 nh        1 RAI     -0.696600
     10 C13         3.9610   -0.9940    2.2700 c2        1 RAI      0.714100
     11 N14         2.8440   -1.9390    2.6530 n4        1 RAI     -0.870600
     12 N15         2.3750    0.1800   -1.2360 n         1 RAI     -0.388000
     13 C16         2.7060   -1.1490   -1.7730 c3        1 RAI      0.033400
     14 C17         2.8770   -0.9610   -3.3150 c3        1 RAI     -0.096400
     15 C18         2.7040    0.5240   -3.5920 c3        1 RAI     -0.169400
     16 C19         2.2900    1.1450   -2.2670 c         1 RAI      0.690500
     17 C24         4.0240   -1.7260   -1.1950 c3        1 RAI      0.128900
     18 O25         5.0630   -0.7860   -1.0310 oh        1 RAI     -0.617300
     19 C28         1.6260   -2.2360   -1.5320 c3        1 RAI      0.128900
     20 O29         1.4970   -2.5610   -0.1620 oh        1 RAI     -0.617300
     21 O32         0.4370   -1.4100    3.9690 o         1 RAI     -0.786300
     22 N33         5.1120   -1.2740    2.7940 n2        1 RAI     -0.798100
     23 O34         1.9700    2.3250   -2.1010 o         1 RAI     -0.567500
     24 H1         -0.3140    0.4650   -1.0440 ha        1 RAI      0.142000
     25 H4          1.9360    0.7000    3.3650 ha        1 RAI      0.165000
     26 H6         -1.6370    0.1410    1.0550 ha        1 RAI      0.167000
     27 H12         4.2440    0.2340    0.6450 hn        1 RAI      0.464800
     28 H141        2.0380   -1.4670    3.2090 hn        1 RAI      0.485133
     29 H142        3.2110   -2.6940    3.2370 hn        1 RAI      0.485133
     30 H171        2.1100   -1.5610   -3.8640 hc        1 RAI      0.063200
     31 H172        3.8850   -1.3150   -3.6420 hc        1 RAI      0.063200
     32 H181        3.6530    1.0000   -3.9450 hc        1 RAI      0.088700
     33 H182        1.9110    0.7220   -4.3550 hc        1 RAI      0.088700
     34 H241        3.8460   -2.1410   -0.1660 h1        1 RAI      0.057200
     35 H242        4.3680   -2.5590   -1.8670 h1        1 RAI      0.057200
     36 H25         5.1250   -0.2690   -1.8440 ho        1 RAI      0.421500
     37 H281        1.9630   -3.1860   -2.0300 h1        1 RAI      0.057200
     38 H282        0.6440   -1.9090   -1.9640 h1        1 RAI      0.057200
     39 H29         0.7820   -2.0150    0.1990 ho        1 RAI      0.421500
     40 H33         5.8720   -0.6620    2.5880 hn        1 RAI      0.450400
     41 H143        2.4450   -2.3340    1.7970 hn        1 RAI      0.485133
@<TRIPOS>BOND
     1    1    2 ar  
     2    1    6 ar  
     3    1   24 1   
     4    2    3 ar  
     5    2   12 1   
     6    3    4 ar  
     7    3    9 1   
     8    4    5 ar  
     9    4   25 1   
    10    5    6 ar  
    11    5    7 1   
    12    6   26 1   
    13    7    8 1   
    14    7   21 1   
    15    9   10 1   
    16    9   27 1   
    17   10   11 1   
    18   10   22 2   
    19   11   28 1   
    20   11   29 1   
    21   11   41 1   
    22   12   13 1   
    23   12   16 1   
    24   13   14 1   
    25   13   17 1   
    26   13   19 1   
    27   14   15 1   
    28   14   30 1   
    29   14   31 1   
    30   15   16 1   
    31   15   32 1   
    32   15   33 1   
    33   16   23 2   
    34   17   18 1   
    35   17   34 1   
    36   17   35 1   
    37   18   36 1   
    38   19   20 1   
    39   19   37 1   
    40   19   38 1   
    41   20   39 1   
    42   22   40 1   
@<TRIPOS>SUBSTRUCTURE
     1 RAI         1 TEMP              0 ****  ****    0 ROOT
