@<TRIPOS>MOLECULE
RAI
   42    43     1     0     0
SMALL
bcc


@<TRIPOS>ATOM
      1 C1          0.2450   -0.7130    0.1350 ca        1 RAI     -0.105000
      2 C2          1.5610   -0.2190    0.0200 ca        1 RAI      0.120600
      3 C3          2.2110    0.2220    1.2140 ca        1 RAI     -0.067400
      4 C4          1.5270    0.2160    2.4430 ca        1 RAI     -0.078000
      5 C5          0.2280   -0.2780    2.5200 ca        1 RAI     -0.155600
      6 C6         -0.4080   -0.7450    1.3610 ca        1 RAI     -0.028000
      7 C10        -0.5510   -0.2900    3.7810 c         1 RAI      0.631700
      8 O11        -1.7780   -0.3500    3.8470 o         1 RAI     -0.445000
      9 N12         3.5660    0.7630    1.1730 n4        1 RAI     -0.575200
     10 C13         4.4390    0.2790    2.3520 c2        1 RAI      0.046000
     11 N14         4.7170   -1.2290    2.1060 n4        1 RAI     -0.796400
     12 N15         2.1870   -0.1150   -1.2360 n         1 RAI     -0.430000
     13 C16         2.5910   -1.2600   -2.0640 c3        1 RAI      0.088400
     14 C17         3.2250   -0.6330   -3.3500 c3        1 RAI     -0.096400
     15 C18         3.1840    0.8790   -3.1710 c3        1 RAI     -0.154400
     16 C19         2.6520    1.1060   -1.7710 c         1 RAI      0.702500
     17 C24         3.6270   -2.1550   -1.3340 c3        1 RAI      0.118400
     18 O25         4.6790   -1.4050   -0.7490 oh        1 RAI     -0.643800
     19 C28         1.4320   -2.1790   -2.5160 c3        1 RAI      0.118400
     20 O29         1.0130   -2.9500   -1.4040 oh        1 RAI     -0.643800
     21 O32         0.0660   -0.2530    4.9950 oh        1 RAI     -0.548100
     22 N33         4.8500    0.9380    3.2910 n1        1 RAI     -0.173000
     23 O34         2.6600    2.1630   -1.1290 o         1 RAI     -0.608500
     24 H1         -0.2780   -1.0830   -0.7650 ha        1 RAI      0.176000
     25 H4          2.0160    0.6330    3.3420 ha        1 RAI      0.169000
     26 H6         -1.4490   -1.1150    1.4290 ha        1 RAI      0.192000
     27 H12         4.0190    0.5320    0.2820 hn        1 RAI      0.463800
     28 H141        5.1540   -1.5950    2.9550 hn        1 RAI      0.445133
     29 H142        3.8640   -1.7510    1.9120 hn        1 RAI      0.445133
     30 H171        4.2740   -0.9960   -3.4750 hc        1 RAI      0.075200
     31 H172        2.6490   -0.9380   -4.2590 hc        1 RAI      0.075200
     32 H181        4.1930    1.3510   -3.2730 hc        1 RAI      0.107700
     33 H182        2.4970    1.3720   -3.9070 hc        1 RAI      0.107700
     34 H241        4.0290   -2.9100   -2.0580 h1        1 RAI      0.068450
     35 H242        3.1350   -2.6830   -0.4710 h1        1 RAI      0.068450
     36 H25         5.2800   -1.1360   -1.4550 ho        1 RAI      0.430500
     37 H281        0.5750   -1.5710   -2.9100 h1        1 RAI      0.068450
     38 H282        1.8170   -2.8540   -3.3280 h1        1 RAI      0.068450
     39 H29         0.3890   -3.6080   -1.7370 ho        1 RAI      0.430500
     40 H33         1.0260   -0.2370    4.8990 ho        1 RAI      0.423000
     41 H122        3.5050    1.7920    1.2360 hn        1 RAI      0.463800
     42 H143        5.3600   -1.3500    1.3200 hn        1 RAI      0.445133
@<TRIPOS>BOND
     1    1    2 ar  
     2    1    6 ar  
     3    1   24 1   
     4    2    3 ar  
     5    2   12 1   
     6    3    4 ar  
     7    3    9 1   
     8    4    5 ar  
     9    4   25 1   
    10    5    6 ar  
    11    5    7 1   
    12    6   26 1   
    13    7    8 2   
    14    7   21 1   
    15    9   10 1   
    16    9   27 1   
    17    9   41 1   
    18   10   11 1   
    19   10   22 2   
    20   11   28 1   
    21   11   29 1   
    22   11   42 1   
    23   12   13 1   
    24   12   16 1   
    25   13   14 1   
    26   13   17 1   
    27   13   19 1   
    28   14   15 1   
    29   14   30 1   
    30   14   31 1   
    31   15   16 1   
    32   15   32 1   
    33   15   33 1   
    34   16   23 2   
    35   17   18 1   
    36   17   34 1   
    37   17   35 1   
    38   18   36 1   
    39   19   20 1   
    40   19   37 1   
    41   19   38 1   
    42   20   39 1   
    43   21   40 1   
@<TRIPOS>SUBSTRUCTURE
     1 RAI         1 TEMP              0 ****  ****    0 ROOT
