@<TRIPOS>MOLECULE
RAI
   41    42     1     0     0
SMALL
bcc


@<TRIPOS>ATOM
      1 C1          0.2050    0.3770   -0.0710 ca        1 RAI     -0.143000
      2 C2          1.6190    0.3150   -0.0420 ca        1 RAI     -0.007400
      3 C3          2.2640    0.3660    1.2260 ca        1 RAI      0.072600
      4 C4          1.4770    0.5070    2.3840 ca        1 RAI     -0.147000
      5 C5          0.1170    0.2050    2.3310 ca        1 RAI     -0.115600
      6 C6         -0.5380    0.2440    1.0990 ca        1 RAI     -0.106000
      7 C10        -0.3940   -0.5210    3.5660 c         1 RAI      0.923200
      8 O11        -1.5080   -0.3080    4.0710 o         1 RAI     -0.786300
      9 N12         3.6430    0.1230    1.4400 nu        1 RAI     -0.696600
     10 C13         3.9640   -1.0000    2.2660 c2        1 RAI      0.714100
     11 N14         2.8460   -1.9450    2.6500 nz        1 RAI     -0.870600
     12 N15         2.3740    0.1820   -1.2340 n         1 RAI     -0.388000
     13 C16         2.7020   -1.1460   -1.7750 c3        1 RAI      0.033400
     14 C17         2.8710   -0.9560   -3.3160 c3        1 RAI     -0.096400
     15 C18         2.7010    0.5300   -3.5910 c3        1 RAI     -0.169400
     16 C19         2.2890    1.1490   -2.2640 c         1 RAI      0.690500
     17 C24         4.0200   -1.7260   -1.2000 c3        1 RAI      0.128900
     18 O25         5.0610   -0.7890   -1.0360 oh        1 RAI     -0.617300
     19 C28         1.6210   -2.2320   -1.5340 c3        1 RAI      0.128900
     20 O29         1.4940   -2.5590   -0.1640 oh        1 RAI     -0.617300
     21 O32         0.4420   -1.4150    3.9710 o         1 RAI     -0.786300
     22 N33         5.1160   -1.2830    2.7890 n2        1 RAI     -0.798100
     23 O34         1.9710    2.3290   -2.0950 o         1 RAI     -0.567500
     24 H1         -0.3140    0.4700   -1.0380 ha        1 RAI      0.142000
     25 H4          1.9430    0.6940    3.3680 ha        1 RAI      0.165000
     26 H6         -1.6340    0.1440    1.0630 ha        1 RAI      0.167000
     27 H12         4.2460    0.2300    0.6430 hn        1 RAI      0.464800
     28 H141        3.2140   -2.7010    3.2320 hn        1 RAI      0.485133
     29 H142        2.4460   -2.3370    1.7940 hn        1 RAI      0.485133
     30 H171        3.8770   -1.3120   -3.6460 hc        1 RAI      0.063200
     31 H172        2.1020   -1.5530   -3.8650 hc        1 RAI      0.063200
     32 H181        3.6500    1.0040   -3.9430 hc        1 RAI      0.088700
     33 H182        1.9060    0.7310   -4.3520 hc        1 RAI      0.088700
     34 H241        4.3610   -2.5590   -1.8740 h1        1 RAI      0.057200
     35 H242        3.8440   -2.1430   -0.1710 h1        1 RAI      0.057200
     36 H25         5.1230   -0.2700   -1.8480 ho        1 RAI      0.421500
     37 H281        0.6380   -1.9030   -1.9630 h1        1 RAI      0.057200
     38 H282        1.9560   -3.1810   -2.0350 h1        1 RAI      0.057200
     39 H29         0.7800   -2.0130    0.1990 ho        1 RAI      0.421500
     40 H33         5.8760   -0.6710    2.5820 hn        1 RAI      0.450400
     41 H143        2.0420   -1.4720    3.2080 hn        1 RAI      0.485133
@<TRIPOS>BOND
     1    1    2 ar  
     2    1    6 ar  
     3    1   24 1   
     4    2    3 ar  
     5    2   12 1   
     6    3    4 ar  
     7    3    9 1   
     8    4    5 ar  
     9    4   25 1   
    10    5    6 ar  
    11    5    7 1   
    12    6   26 1   
    13    7    8 1   
    14    7   21 1   
    15    9   10 1   
    16    9   27 1   
    17   10   11 1   
    18   10   22 2   
    19   11   28 1   
    20   11   29 1   
    21   11   41 1   
    22   12   13 1   
    23   12   16 1   
    24   13   14 1   
    25   13   17 1   
    26   13   19 1   
    27   14   15 1   
    28   14   30 1   
    29   14   31 1   
    30   15   16 1   
    31   15   32 1   
    32   15   33 1   
    33   16   23 2   
    34   17   18 1   
    35   17   34 1   
    36   17   35 1   
    37   18   36 1   
    38   19   20 1   
    39   19   37 1   
    40   19   38 1   
    41   20   39 1   
    42   22   40 1   
@<TRIPOS>SUBSTRUCTURE
     1 RAI         1 TEMP              0 ****  ****    0 ROOT
