@<TRIPOS>MOLECULE
RAI
   40    37     1     0     0
SMALL
bcc


@<TRIPOS>ATOM
      1 C1         -2.1590    0.4520    0.3150 c1        1 RAI     -0.070500
      2 C2         -0.7610    0.4800    0.2760 c1        1 RAI     -0.010800
      3 C3         -0.0330    0.5170    1.4580 c1        1 RAI      0.055800
      4 C4         -0.6990    0.5250    2.6880 c1        1 RAI     -0.103500
      5 C5         -2.0990    0.4960    2.7260 cg        1 RAI     -0.043200
      6 C6         -2.8240    0.4600    1.5440 c1        1 RAI     -0.070500
      7 C10        -2.8270    0.4310    4.0690 c         1 RAI      0.856800
      8 O11        -3.2530   -0.6790    4.5000 o         1 RAI     -0.821300
      9 N12         1.4110    0.5170    1.4180 nh        1 RAI     -0.625600
     10 C13         2.1590    0.3180    2.6170 c2        1 RAI      0.316000
     11 N14         3.4480    0.8790    2.7450 nh        1 RAI     -0.829600
     12 N15        -0.0790    0.5880   -0.9940 n         1 RAI     -0.380600
     13 C16         0.0450   -0.5150   -2.0490 c3        1 RAI      0.083400
     14 C17         0.0770    0.1100   -3.2520 c3        1 RAI     -0.088400
     15 C18         0.7100    1.5170   -2.9710 c3        1 RAI     -0.161400
     16 C19         0.6990    1.5690   -1.3690 c         1 RAI      0.699500
     17 C24         1.3560   -1.3190   -1.8290 c3        1 RAI      0.120900
     18 O25         1.4950   -2.3060   -2.8770 oh        1 RAI     -0.619300
     19 C28        -1.1660   -1.4520   -1.9740 c3        1 RAI      0.120900
     20 O29        -1.1510   -2.3090   -3.0500 oh        1 RAI     -0.619300
     21 O32        -3.0960    1.4980    4.6940 o         1 RAI     -0.821300
     22 N33         1.6470   -0.3890    3.6040 n1        1 RAI     -0.310000
     23 O34         1.0430    2.5150   -0.6790 o         1 RAI     -0.636500
     24 H1         -2.6730    0.5040   -0.5180 ha        1 RAI      0.082500
     25 H4         -0.1780    0.4850    3.5340 ha        1 RAI      0.105500
     26 H6         -3.8150    0.4400    1.5710 ha        1 RAI      0.082500
     27 H12         1.8540    0.6830    0.6150 hn        1 RAI      0.407800
     28 H141        3.8890    0.8340    3.5430 hn        1 RAI      0.401800
     29 H142        3.8530    1.2720    2.0170 hn        1 RAI      0.401800
     30 H171        0.6420   -0.4000   -3.8880 hc        1 RAI      0.068200
     31 H172       -0.8390    0.2110   -3.6110 hc        1 RAI      0.068200
     32 H181        0.2670    2.2690   -3.4030 hc        1 RAI      0.072200
     33 H182        1.6160    1.5820   -3.3340 hc        1 RAI      0.072200
     34 H241        2.1320   -0.6990   -1.8520 h1        1 RAI      0.055700
     35 H242        1.3220   -1.7680   -0.9580 h1        1 RAI      0.055700
     36 H25         2.1700   -2.8640   -2.6760 ho        1 RAI      0.412500
     37 H281       -1.1270   -1.9750   -1.1380 h1        1 RAI      0.055700
     38 H282       -1.9920   -0.9220   -1.9900 h1        1 RAI      0.055700
     39 H29        -1.8730   -2.7990   -3.0420 ho        1 RAI      0.412500
     40 H33         0.8090   -0.7540    3.5210 DU        1 RAI      0.151000
@<TRIPOS>BOND
     1    1    6 3   
     2    1   24 1   
     3    2    3 3   
     4    2   12 1   
     5    3    9 1   
     6    4    5 3   
     7    4   25 1   
     8    5    7 1   
     9    6   26 1   
    10    7    8 1   
    11    7   21 1   
    12    9   10 1   
    13    9   27 1   
    14   10   11 1   
    15   10   22 2   
    16   11   28 1   
    17   11   29 1   
    18   12   13 1   
    19   12   16 1   
    20   13   14 1   
    21   13   17 1   
    22   13   19 1   
    23   14   15 1   
    24   14   30 1   
    25   14   31 1   
    26   15   16 1   
    27   15   32 1   
    28   15   33 1   
    29   16   23 2   
    30   17   18 1   
    31   17   34 1   
    32   17   35 1   
    33   18   36 1   
    34   19   20 1   
    35   19   37 1   
    36   19   38 1   
    37   20   39 1   
@<TRIPOS>SUBSTRUCTURE
     1 RAI         1 TEMP              0 ****  ****    0 ROOT
