@<TRIPOS>MOLECULE
RAI
   40    41     1     0     0
SMALL
bcc


@<TRIPOS>ATOM
      1 C1         -1.7620   -0.2130    0.7540 ca        1 RAI     -0.170000
      2 C2         -0.6540    0.2340    0.0030 ca        1 RAI     -0.009400
      3 C3          0.5050    0.6870    0.7060 ca        1 RAI      0.102600
      4 C4          0.5530    0.5420    2.1070 ca        1 RAI     -0.113000
      5 C5         -0.5180    0.0050    2.8170 ca        1 RAI     -0.110600
      6 C6         -1.6870   -0.3390    2.1350 ca        1 RAI     -0.104000
      7 C10        -0.4100   -0.2040    4.3260 c         1 RAI      0.910200
      8 O11        -1.4580   -0.5340    4.9450 o         1 RAI     -0.818800
      9 N12         1.5710    1.3390    0.0440 nh        1 RAI     -0.766600
     10 C13         2.8380    0.7160   -0.1540 c2        1 RAI      0.776100
     11 N14         3.0310   -0.5750    0.4290 nh        1 RAI     -0.893800
     12 N15        -0.7150    0.2600   -1.4130 n         1 RAI     -0.391000
     13 C16        -0.7860   -0.9550   -2.2390 c3        1 RAI      0.050400
     14 C17        -0.8810   -0.4500   -3.7150 c3        1 RAI     -0.087400
     15 C18        -0.8320    1.0680   -3.6590 c3        1 RAI     -0.159400
     16 C19        -0.6940    1.4190   -2.1840 c         1 RAI      0.698500
     17 C24         0.4600   -1.8680   -2.0790 c3        1 RAI      0.129400
     18 O25         1.6020   -1.3390   -2.7110 oh        1 RAI     -0.607800
     19 C28        -2.0270   -1.8430   -1.9600 c3        1 RAI      0.129400
     20 O29        -1.8120   -2.8120   -0.9590 oh        1 RAI     -0.607800
     21 O32         0.7250   -0.0480    4.8540 o         1 RAI     -0.818800
     22 N33         3.8210    1.2520   -0.8500 n2        1 RAI     -0.919100
     23 O34        -0.5560    2.5750   -1.7480 o         1 RAI     -0.639500
     24 H1         -2.7050   -0.4670    0.2440 ha        1 RAI      0.120000
     25 H4          1.4400    0.8620    2.6820 ha        1 RAI      0.167000
     26 H6         -2.5460   -0.7060    2.7220 ha        1 RAI      0.163000
     27 H12         1.2920    2.0050   -0.6460 hn        1 RAI      0.440800
     28 H141        3.9970   -0.8100    0.5340 hn        1 RAI      0.405300
     29 H142        2.5170   -0.7170    1.2760 hn        1 RAI      0.405300
     30 H171       -1.8310   -0.7970   -4.1900 hc        1 RAI      0.062200
     31 H172       -0.0230   -0.8590   -4.3050 hc        1 RAI      0.062200
     32 H181       -1.7620    1.5380   -4.0630 hc        1 RAI      0.074200
     33 H182        0.0440    1.4800   -4.2180 hc        1 RAI      0.074200
     34 H241        0.6510   -2.0720   -0.9930 h1        1 RAI      0.055700
     35 H242        0.2520   -2.8350   -2.6120 h1        1 RAI      0.055700
     36 H25         2.0070   -0.7060   -2.1040 ho        1 RAI      0.422500
     37 H281       -2.9220   -1.2130   -1.7160 h1        1 RAI      0.055700
     38 H282       -2.2470   -2.4550   -2.8790 h1        1 RAI      0.055700
     39 H29        -1.5770   -2.3530   -0.1400 ho        1 RAI      0.422500
     40 H33         3.5980    2.1080   -1.3070 hn        1 RAI      0.381400
@<TRIPOS>BOND
     1    1    2 ar  
     2    1    6 ar  
     3    1   24 1   
     4    2    3 ar  
     5    2   12 1   
     6    3    4 ar  
     7    3    9 1   
     8    4    5 ar  
     9    4   25 1   
    10    5    6 ar  
    11    5    7 1   
    12    6   26 1   
    13    7    8 1   
    14    7   21 1   
    15    9   10 1   
    16    9   27 1   
    17   10   11 1   
    18   10   22 2   
    19   11   28 1   
    20   11   29 1   
    21   12   13 1   
    22   12   16 1   
    23   13   14 1   
    24   13   17 1   
    25   13   19 1   
    26   14   15 1   
    27   14   30 1   
    28   14   31 1   
    29   15   16 1   
    30   15   32 1   
    31   15   33 1   
    32   16   23 2   
    33   17   18 1   
    34   17   34 1   
    35   17   35 1   
    36   18   36 1   
    37   19   20 1   
    38   19   37 1   
    39   19   38 1   
    40   20   39 1   
    41   22   40 1   
@<TRIPOS>SUBSTRUCTURE
     1 RAI         1 TEMP              0 ****  ****    0 ROOT
