@<TRIPOS>MOLECULE
RAJ
   69    72     1     0     0
SMALL
bcc


@<TRIPOS>ATOM
      1 C28         1.1600    1.0160    0.8340 c3        1 RAJ      0.081600
      2 N6          2.3340    0.3260    0.2400 nx        1 RAJ     -0.682400
      3 C29         3.3530    0.0390    1.2830 c3        1 RAJ      0.081600
      4 C27         2.9340    1.1280   -0.8820 c3        1 RAJ      0.106800
      5 C26         2.1260    1.0860   -2.1690 c3        1 RAJ     -0.116400
      6 C25         2.0130   -0.3090   -2.7560 c3        1 RAJ     -0.039100
      7 C20         1.6600   -0.2530   -4.2040 ca        1 RAJ     -0.081300
      8 C19         0.4130   -0.6920   -4.6450 ca        1 RAJ     -0.166000
      9 C21         2.6000    0.2300   -5.1170 ca        1 RAJ     -0.126000
     10 C22         2.2720    0.2740   -6.4710 ca        1 RAJ     -0.125300
     11 C24         3.2970    0.8260   -7.4610 c3        1 RAJ      0.687200
     12 F2          4.6040    0.6180   -7.0880 f         1 RAJ     -0.228967
     13 F3          3.2140    0.3040   -8.7260 f         1 RAJ     -0.228967
     14 F1          3.2130    2.1860   -7.6390 f         1 RAJ     -0.228967
     15 C23         1.0350   -0.1580   -6.9370 ca        1 RAJ     -0.105000
     16 C18         0.0750   -0.6560   -6.0220 ca        1 RAJ      0.101600
     17 N5         -1.1840   -1.1170   -6.4120 ns        1 RAJ     -0.476100
     18 C17        -1.7400   -1.0800   -7.6960 c         1 RAJ      0.689700
     19 O1         -1.1310   -0.6070   -8.6690 o         1 RAJ     -0.562100
     20 C12        -3.1030   -1.6690   -7.8260 ca        1 RAJ     -0.151600
     21 C11        -4.0980   -1.4250   -6.8800 ca        1 RAJ     -0.085000
     22 C13        -3.3690   -2.4540   -8.9530 ca        1 RAJ     -0.079000
     23 C14        -4.6320   -3.0140   -9.1130 ca        1 RAJ     -0.119000
     24 C15        -5.6420   -2.8080   -8.1680 ca        1 RAJ     -0.074300
     25 C16        -6.9700   -3.4310   -8.3770 c3        1 RAJ     -0.070800
     26 C10        -5.3770   -1.9950   -7.0350 ca        1 RAJ      0.124600
     27 N4         -6.4060   -1.6840   -6.1140 nu        1 RAJ     -0.721300
     28 C9         -6.3090   -1.9990   -4.7460 ca        1 RAJ      0.663200
     29 N3         -5.0940   -2.3300   -4.2000 nb        1 RAJ     -0.729000
     30 C8         -5.0460   -2.5930   -2.8860 ca        1 RAJ      0.434200
     31 C7         -6.1550   -2.5610   -2.0270 ca        1 RAJ     -0.292300
     32 C6         -7.3920   -2.2220   -2.5720 ca        1 RAJ     -0.020000
     33 C5         -7.4910   -1.9210   -3.9330 cp        1 RAJ     -0.312800
     34 C3         -8.8000   -1.5470   -4.4920 cp        1 RAJ      0.478800
     35 C2         -8.9560   -0.3160   -5.1690 ca        1 RAJ     -0.358600
     36 C1        -10.2420   -0.0020   -5.6540 ca        1 RAJ      0.428200
     37 N2        -11.2950   -0.8260   -5.4930 nb        1 RAJ     -0.679000
     38 C4        -11.0400   -1.9870   -4.8250 ca        1 RAJ      0.631900
     39 N1         -9.8520   -2.3950   -4.3140 nb        1 RAJ     -0.686000
     40 H281        1.4880    1.9830    1.3000 hx        1 RAJ      0.106200
     41 H282        0.7010    0.3590    1.6210 hx        1 RAJ      0.106200
     42 H283        0.4050    1.2250    0.0290 hx        1 RAJ      0.106200
     43 H291        4.1860   -0.5690    0.8360 hx        1 RAJ      0.106200
     44 H292        2.8770   -0.5380    2.1210 hx        1 RAJ      0.106200
     45 H293        3.7660    1.0050    1.6800 hx        1 RAJ      0.106200
     46 H271        3.9670    0.7140   -1.0750 hx        1 RAJ      0.105200
     47 H272        3.0350    2.1920   -0.5250 hx        1 RAJ      0.105200
     48 H261        1.1050    1.5260   -2.0200 hc        1 RAJ      0.093200
     49 H262        2.6640    1.7560   -2.9000 hc        1 RAJ      0.093200
     50 H251        2.9930   -0.8490   -2.6460 hc        1 RAJ      0.046700
     51 H252        1.2360   -0.9000   -2.2000 hc        1 RAJ      0.046700
     52 H19        -0.3120   -1.0780   -3.9110 ha        1 RAJ      0.132000
     53 H21         3.5950    0.5610   -4.7820 ha        1 RAJ      0.145000
     54 H23         0.8200   -0.1110   -8.0210 ha        1 RAJ      0.206000
     55 HN5        -1.7430   -1.5270   -5.6940 hn        1 RAJ      0.330500
     56 H11        -3.8950   -0.7680   -6.0190 ha        1 RAJ      0.148000
     57 H13        -2.5830   -2.6130   -9.7090 ha        1 RAJ      0.160000
     58 H14        -4.8410   -3.6340  -10.0000 ha        1 RAJ      0.149000
     59 H161       -7.7470   -2.6470   -8.5670 hc        1 RAJ      0.055700
     60 H162       -6.9570   -4.1190   -9.2590 hc        1 RAJ      0.055700
     61 H163       -7.2760   -4.0270   -7.4810 hc        1 RAJ      0.055700
     62 HN4        -7.3300   -1.8090   -6.4820 hn        1 RAJ      0.433800
     63 H8         -4.0450   -2.8630   -2.5050 h4        1 RAJ      0.011100
     64 H7         -6.0510   -2.8070   -0.9630 ha        1 RAJ      0.149000
     65 H6         -8.2930   -2.1960   -1.9380 ha        1 RAJ      0.159000
     66 H2         -8.1160    0.3770   -5.2990 ha        1 RAJ      0.166000
     67 H1        -10.4350    0.9460   -6.1890 h4        1 RAJ      0.038100
     68 H4        -11.9000   -2.6760   -4.6830 h5        1 RAJ      0.064100
     69 H61         2.0130   -0.5700   -0.1570 hn        1 RAJ      0.452800
@<TRIPOS>BOND
     1    1    2 1   
     2    1   40 1   
     3    1   41 1   
     4    1   42 1   
     5    2    3 1   
     6    2    4 1   
     7    2   69 1   
     8    3   43 1   
     9    3   44 1   
    10    3   45 1   
    11    4    5 1   
    12    4   46 1   
    13    4   47 1   
    14    5    6 1   
    15    5   48 1   
    16    5   49 1   
    17    6    7 1   
    18    6   50 1   
    19    6   51 1   
    20    7    8 ar  
    21    7    9 ar  
    22    8   16 ar  
    23    8   52 1   
    24    9   10 ar  
    25    9   53 1   
    26   10   11 1   
    27   10   15 ar  
    28   11   12 1   
    29   11   13 1   
    30   11   14 1   
    31   15   16 ar  
    32   15   54 1   
    33   16   17 1   
    34   17   18 1   
    35   17   55 1   
    36   18   19 2   
    37   18   20 1   
    38   20   21 ar  
    39   20   22 ar  
    40   21   26 ar  
    41   21   56 1   
    42   22   23 ar  
    43   22   57 1   
    44   23   24 ar  
    45   23   58 1   
    46   24   25 1   
    47   24   26 ar  
    48   25   59 1   
    49   25   60 1   
    50   25   61 1   
    51   26   27 1   
    52   27   28 1   
    53   27   62 1   
    54   28   29 ar  
    55   28   33 ar  
    56   29   30 ar  
    57   30   31 ar  
    58   30   63 1   
    59   31   32 ar  
    60   31   64 1   
    61   32   33 ar  
    62   32   65 1   
    63   33   34 1   
    64   34   35 ar  
    65   34   39 ar  
    66   35   36 ar  
    67   35   66 1   
    68   36   37 ar  
    69   36   67 1   
    70   37   38 ar  
    71   38   39 ar  
    72   38   68 1   
@<TRIPOS>SUBSTRUCTURE
     1 RAJ         1 TEMP              0 ****  ****    0 ROOT
