@<TRIPOS>MOLECULE
RAJ
   68    71     1     0     0
SMALL
bcc


@<TRIPOS>ATOM
      1 C28        -3.0100    5.8230    2.0570 c3        1 RAJ      0.157100
      2 N6         -3.8780    5.4100    0.9770 n3        1 RAJ     -0.742600
      3 C29        -5.1680    6.0610    1.0220 c3        1 RAJ      0.157100
      4 C27        -3.9860    3.9620    0.8490 c3        1 RAJ      0.168800
      5 C26        -2.7550    3.2910    0.2420 c3        1 RAJ     -0.072400
      6 C25        -2.5490    3.6870   -1.2060 c3        1 RAJ     -0.037100
      7 C20        -1.4040    2.9540   -1.8170 ca        1 RAJ     -0.051300
      8 C19        -0.2220    3.6260   -2.1220 ca        1 RAJ     -0.160000
      9 C21        -1.5210    1.5870   -2.0960 ca        1 RAJ     -0.117000
     10 C22        -0.4480    0.9150   -2.6760 ca        1 RAJ     -0.136300
     11 C24        -0.5660   -0.5790   -2.9630 c3        1 RAJ      0.687200
     12 F2         -1.8540   -1.0300   -3.1300 f         1 RAJ     -0.237633
     13 F3          0.0830   -1.0000   -4.0980 f         1 RAJ     -0.237633
     14 F1         -0.0610   -1.3830   -1.9690 f         1 RAJ     -0.237633
     15 C23         0.7430    1.5680   -2.9890 ca        1 RAJ     -0.121000
     16 C18         0.8730    2.9450   -2.7130 ca        1 RAJ      0.076600
     17 N5          2.0330    3.6790   -2.9940 n         1 RAJ     -0.471100
     18 C17         3.2130    3.2160   -3.5680 c         1 RAJ      0.683700
     19 O1          3.3750    2.0390   -3.9320 o         1 RAJ     -0.577100
     20 C12         4.2840    4.2420   -3.7490 ca        1 RAJ     -0.142600
     21 C11         4.5940    5.1530   -2.7400 ca        1 RAJ     -0.088000
     22 C13         4.9920    4.2480   -4.9550 ca        1 RAJ     -0.086000
     23 C14         5.9950    5.1910   -5.1540 ca        1 RAJ     -0.123000
     24 C15         6.3090    6.1350   -4.1720 ca        1 RAJ     -0.084300
     25 C16         7.3790    7.1280   -4.4330 c3        1 RAJ     -0.065800
     26 C10         5.6050    6.1160   -2.9400 ca        1 RAJ      0.128600
     27 N4          5.9670    6.9930   -1.8890 nh        1 RAJ     -0.721300
     28 C9          5.0400    7.8510   -1.2780 ca        1 RAJ      0.685200
     29 N3          3.7100    7.7750   -1.6240 nb        1 RAJ     -0.726000
     30 C8          2.8380    8.5510   -0.9720 ca        1 RAJ      0.448200
     31 C7          3.1850    9.4470    0.0550 ca        1 RAJ     -0.294300
     32 C6          4.5260    9.5320    0.4130 ca        1 RAJ     -0.041000
     33 C5          5.4800    8.7430   -0.2420 cp        1 RAJ     -0.325800
     34 C3          6.8820    8.8700    0.1800 cp        1 RAJ      0.509800
     35 C2          7.1820    8.7800    1.5620 ca        1 RAJ     -0.355600
     36 C1          8.5240    8.9510    1.9480 ca        1 RAJ      0.431200
     37 N2          9.5070    9.1990    1.0580 nb        1 RAJ     -0.689000
     38 C4          9.1170    9.2630   -0.2450 ca        1 RAJ      0.635900
     39 N1          7.8600    9.1120   -0.7350 nb        1 RAJ     -0.715000
     40 H281       -1.9990    5.3610    1.9150 h1        1 RAJ      0.030867
     41 H282       -3.3960    5.5300    3.0720 h1        1 RAJ      0.030867
     42 H283       -2.9010    6.9390    2.0280 h1        1 RAJ      0.030867
     43 H291       -5.0130    7.1710    1.0610 h1        1 RAJ      0.030867
     44 H292       -5.7900    5.7570    1.9090 h1        1 RAJ      0.030867
     45 H293       -5.7360    5.8120    0.0870 h1        1 RAJ      0.030867
     46 H271       -4.1830    3.4790    1.8520 h1        1 RAJ      0.032200
     47 H272       -4.8690    3.7310    0.1870 h1        1 RAJ      0.032200
     48 H261       -1.8360    3.5360    0.8360 hc        1 RAJ      0.046700
     49 H262       -2.9080    2.1810    0.3080 hc        1 RAJ      0.046700
     50 H251       -3.4820    3.4610   -1.7910 hc        1 RAJ      0.059200
     51 H252       -2.3780    4.7950   -1.2710 hc        1 RAJ      0.059200
     52 H19        -0.1500    4.7020   -1.8970 ha        1 RAJ      0.137000
     53 H21        -2.4540    1.0520   -1.8650 ha        1 RAJ      0.151000
     54 H23         1.5670    0.9970   -3.4540 ha        1 RAJ      0.191000
     55 HN5         1.9950    4.6500   -2.7660 hn        1 RAJ      0.327500
     56 H11         4.0610    5.1120   -1.7770 ha        1 RAJ      0.151000
     57 H13         4.7570    3.5020   -5.7300 ha        1 RAJ      0.156000
     58 H14         6.5510    5.1970   -6.1050 ha        1 RAJ      0.141000
     59 H161        7.0060    8.1690   -4.2630 hc        1 RAJ      0.052033
     60 H162        8.2540    6.9490   -3.7580 hc        1 RAJ      0.052033
     61 H163        7.7400    7.0590   -5.4890 hc        1 RAJ      0.052033
     62 HN4         6.8870    7.3730   -1.9820 hn        1 RAJ      0.448800
     63 H8          1.7870    8.4510   -1.3020 h4        1 RAJ      0.024100
     64 H7          2.4200   10.0580    0.5490 ha        1 RAJ      0.151000
     65 H6          4.8480   10.2220    1.2090 ha        1 RAJ      0.143000
     66 H2          6.3970    8.5760    2.2990 ha        1 RAJ      0.160000
     67 H1          8.8280    8.8890    3.0090 h4        1 RAJ      0.033100
     68 H4          9.9130    9.4670   -0.9910 h5        1 RAJ      0.057100
@<TRIPOS>BOND
     1    1    2 1   
     2    1   40 1   
     3    1   41 1   
     4    1   42 1   
     5    2    3 1   
     6    2    4 1   
     7    3   43 1   
     8    3   44 1   
     9    3   45 1   
    10    4    5 1   
    11    4   46 1   
    12    4   47 1   
    13    5    6 1   
    14    5   48 1   
    15    5   49 1   
    16    6    7 1   
    17    6   50 1   
    18    6   51 1   
    19    7    8 ar  
    20    7    9 ar  
    21    8   16 ar  
    22    8   52 1   
    23    9   10 ar  
    24    9   53 1   
    25   10   11 1   
    26   10   15 ar  
    27   11   12 1   
    28   11   13 1   
    29   11   14 1   
    30   15   16 ar  
    31   15   54 1   
    32   16   17 1   
    33   17   18 1   
    34   17   55 1   
    35   18   19 2   
    36   18   20 1   
    37   20   21 ar  
    38   20   22 ar  
    39   21   26 ar  
    40   21   56 1   
    41   22   23 ar  
    42   22   57 1   
    43   23   24 ar  
    44   23   58 1   
    45   24   25 1   
    46   24   26 ar  
    47   25   59 1   
    48   25   60 1   
    49   25   61 1   
    50   26   27 1   
    51   27   28 1   
    52   27   62 1   
    53   28   29 ar  
    54   28   33 ar  
    55   29   30 ar  
    56   30   31 ar  
    57   30   63 1   
    58   31   32 ar  
    59   31   64 1   
    60   32   33 ar  
    61   32   65 1   
    62   33   34 1   
    63   34   35 ar  
    64   34   39 ar  
    65   35   36 ar  
    66   35   66 1   
    67   36   37 ar  
    68   36   67 1   
    69   37   38 ar  
    70   38   39 ar  
    71   38   68 1   
@<TRIPOS>SUBSTRUCTURE
     1 RAJ         1 TEMP              0 ****  ****    0 ROOT
