@<TRIPOS>MOLECULE
RAJ
   71    74     1     0     0
SMALL
bcc


@<TRIPOS>ATOM
      1 C28         4.6390    0.7840    0.9150 c3        1 RAJ      0.079600
      2 N6          5.1870    0.5070   -0.4400 n4        1 RAJ     -0.680400
      3 C29         6.6700    0.6630   -0.4360 c3        1 RAJ      0.079600
      4 C27         4.5670    1.3970   -1.4780 c3        1 RAJ      0.101800
      5 C26         3.1700    0.9880   -1.9260 c3        1 RAJ     -0.112400
      6 C25         3.1590   -0.2240   -2.8420 c3        1 RAJ     -0.054100
      7 C20         2.0360   -0.1930   -3.8280 ca        1 RAJ     -0.061300
      8 C19         1.0900   -1.2230   -3.8670 ca        1 RAJ     -0.067000
      9 C21         1.9660    0.8490   -4.7650 ca        1 RAJ     -0.032000
     10 C22         0.9590    0.8580   -5.7290 ca        1 RAJ     -0.135300
     11 C24         0.8680    2.0190   -6.7340 c3        1 RAJ      0.693200
     12 F2          2.0720    2.6160   -6.9920 f         1 RAJ     -0.207633
     13 F3          0.3710    1.6420   -7.9540 f         1 RAJ     -0.207633
     14 F1          0.0420    3.0260   -6.3060 f         1 RAJ     -0.207633
     15 C23         0.0180   -0.1690   -5.7970 ca        1 RAJ     -0.055000
     16 C18         0.0910   -1.2140   -4.8610 ca        1 RAJ     -0.042400
     17 N5         -0.8670   -2.3220   -4.9560 n4        1 RAJ     -0.546200
     18 C17        -2.2940   -1.9360   -4.5630 c         1 RAJ      0.569700
     19 O1         -2.4040   -1.2730   -3.5450 o         1 RAJ     -0.389100
     20 C12        -3.3680   -2.4060   -5.4470 ca        1 RAJ     -0.203600
     21 C11        -4.5830   -1.7040   -5.3880 ca        1 RAJ      0.001000
     22 C13        -3.2560   -3.5350   -6.2750 ca        1 RAJ     -0.054000
     23 C14        -4.3340   -3.9360   -7.0510 ca        1 RAJ     -0.112000
     24 C15        -5.5560   -3.2410   -7.0300 ca        1 RAJ      0.053700
     25 C16        -6.6730   -3.7100   -7.8790 c3        1 RAJ     -0.110800
     26 C10        -5.6650   -2.1090   -6.1890 ca        1 RAJ     -0.021400
     27 N4         -6.9180   -1.3500   -6.1370 n4        1 RAJ     -0.641100
     28 C9         -7.8290   -1.7490   -5.0300 ca        1 RAJ      0.467200
     29 N3         -7.2240   -2.0820   -3.8540 nb        1 RAJ     -0.676000
     30 C8         -8.0080   -2.4580   -2.8370 ca        1 RAJ      0.440200
     31 C7         -9.4150   -2.5360   -2.9350 ca        1 RAJ     -0.175300
     32 C6        -10.0180   -2.1800   -4.1350 ca        1 RAJ     -0.063000
     33 C5         -9.2360   -1.7450   -5.2270 cp        1 RAJ     -0.194800
     34 C3         -9.9080   -1.3230   -6.4700 cp        1 RAJ      0.451800
     35 C2        -11.2510   -0.9060   -6.4490 ca        1 RAJ     -0.311600
     36 C1        -11.8470   -0.5540   -7.6900 ca        1 RAJ      0.473200
     37 N2        -11.1740   -0.6040   -8.8490 nb        1 RAJ     -0.631000
     38 C4         -9.8700   -0.9980   -8.7690 ca        1 RAJ      0.677900
     39 N1         -9.2060   -1.3520   -7.6460 nb        1 RAJ     -0.818000
     40 H281        3.5210    0.6930    0.8960 hx        1 RAJ      0.112867
     41 H282        5.0660    0.0440    1.6460 hx        1 RAJ      0.112867
     42 H283        4.9250    1.8240    1.2340 hx        1 RAJ      0.112867
     43 H291        6.9340    1.7370   -0.2370 hx        1 RAJ      0.112867
     44 H292        7.0840    0.3500   -1.4320 hx        1 RAJ      0.112867
     45 H293        7.1070    0.0160    0.3730 hx        1 RAJ      0.112867
     46 H271        5.2600    1.4150   -2.3700 hx        1 RAJ      0.115700
     47 H272        4.5280    2.4410   -1.0460 hx        1 RAJ      0.115700
     48 H261        2.4990    0.8070   -1.0450 hc        1 RAJ      0.090200
     49 H262        2.7510    1.8820   -2.4700 hc        1 RAJ      0.090200
     50 H251        4.1200   -0.2720   -3.4290 hc        1 RAJ      0.070200
     51 H252        3.1000   -1.1610   -2.2260 hc        1 RAJ      0.070200
     52 H19         1.1440   -2.0370   -3.1240 ha        1 RAJ      0.162000
     53 H21         2.7160    1.6610   -4.7580 ha        1 RAJ      0.185000
     54 H23        -0.7500   -0.1420   -6.5900 ha        1 RAJ      0.177000
     55 HN5        -0.8590   -2.6650   -5.9260 hn        1 RAJ      0.469800
     56 H11        -4.6780   -0.8470   -4.6940 ha        1 RAJ      0.187000
     57 H13        -2.3390   -4.1460   -6.3120 ha        1 RAJ      0.151000
     58 H14        -4.2400   -4.8300   -7.6960 ha        1 RAJ      0.196000
     59 H161       -6.9230   -2.9470   -8.6630 hc        1 RAJ      0.094700
     60 H162       -7.5910   -3.9040   -7.2640 hc        1 RAJ      0.094700
     61 H163       -6.4120   -4.6630   -8.4070 hc        1 RAJ      0.094700
     62 HN4        -6.7010   -0.3520   -6.0190 hn        1 RAJ      0.492800
     63 H8         -7.4820   -2.7160   -1.8950 h4        1 RAJ      0.066100
     64 H7        -10.0140   -2.8740   -2.0720 ha        1 RAJ      0.198000
     65 H6        -11.1170   -2.2490   -4.2350 ha        1 RAJ      0.188000
     66 H2        -11.8380   -0.8320   -5.5240 ha        1 RAJ      0.179000
     67 H1        -12.9060   -0.2230   -7.7410 h4        1 RAJ      0.076100
     68 H4         -9.3060   -1.0310   -9.7280 h5        1 RAJ      0.078100
     69 H61         4.9660   -0.4670   -0.6840 hn        1 RAJ      0.443800
     70 H52        -0.5600   -3.0820   -4.3340 hn        1 RAJ      0.469800
     71 H42        -7.4510   -1.4800   -7.0440 hn        1 RAJ      0.492800
@<TRIPOS>BOND
     1    1    2 1   
     2    1   40 1   
     3    1   41 1   
     4    1   42 1   
     5    2    3 1   
     6    2    4 1   
     7    2   69 1   
     8    3   43 1   
     9    3   44 1   
    10    3   45 1   
    11    4    5 1   
    12    4   46 1   
    13    4   47 1   
    14    5    6 1   
    15    5   48 1   
    16    5   49 1   
    17    6    7 1   
    18    6   50 1   
    19    6   51 1   
    20    7    8 ar  
    21    7    9 ar  
    22    8   16 ar  
    23    8   52 1   
    24    9   10 ar  
    25    9   53 1   
    26   10   11 1   
    27   10   15 ar  
    28   11   12 1   
    29   11   13 1   
    30   11   14 1   
    31   15   16 ar  
    32   15   54 1   
    33   16   17 1   
    34   17   18 1   
    35   17   55 1   
    36   17   70 1   
    37   18   19 2   
    38   18   20 1   
    39   20   21 ar  
    40   20   22 ar  
    41   21   26 ar  
    42   21   56 1   
    43   22   23 ar  
    44   22   57 1   
    45   23   24 ar  
    46   23   58 1   
    47   24   25 1   
    48   24   26 ar  
    49   25   59 1   
    50   25   60 1   
    51   25   61 1   
    52   26   27 1   
    53   27   28 1   
    54   27   62 1   
    55   27   71 1   
    56   28   29 ar  
    57   28   33 ar  
    58   29   30 ar  
    59   30   31 ar  
    60   30   63 1   
    61   31   32 ar  
    62   31   64 1   
    63   32   33 ar  
    64   32   65 1   
    65   33   34 1   
    66   34   35 ar  
    67   34   39 ar  
    68   35   36 ar  
    69   35   66 1   
    70   36   37 ar  
    71   36   67 1   
    72   37   38 ar  
    73   38   39 ar  
    74   38   68 1   
@<TRIPOS>SUBSTRUCTURE
     1 RAJ         1 TEMP              0 ****  ****    0 ROOT
