@<TRIPOS>MOLECULE
RAJ
   68    61     1     0     0
SMALL
bcc


@<TRIPOS>ATOM
      1 C28         3.0600   -5.4130    7.8260 c3        1 RAJ     -0.119000
      2 N6          2.3680   -5.4300    6.5390 n3        1 RAJ     -0.268000
      3 C29         1.8590   -6.7190    6.2890 c3        1 RAJ     -0.119000
      4 C27         3.2660   -5.0730    5.5240 c3        1 RAJ     -0.067000
      5 C26         2.6540   -3.9530    4.6710 c3        1 RAJ     -0.151000
      6 C25         2.4300   -4.4710    3.2390 c3        1 RAJ     -0.124000
      7 C20         2.4590   -3.3320    2.2790 c2        1 RAJ     -0.044000
      8 C19         1.2910   -2.7250    1.9130 c1        1 RAJ     -0.161000
      9 C21         3.6520   -2.9610    1.6810 c2        1 RAJ     -0.116000
     10 C22         3.6600   -1.9530    0.6890 c1        1 RAJ     -0.130000
     11 C24         4.9900   -1.4980    0.0590 c2        1 RAJ      0.466000
     12 F2          5.8650   -2.4120    0.2060 f         1 RAJ     -0.165667
     13 F3          4.7980   -1.2520   -1.3110 f         1 RAJ     -0.165667
     14 F1          5.4380   -0.3000    0.7020 f         1 RAJ     -0.165667
     15 C23         2.4950   -1.3490    0.3250 c2        1 RAJ     -0.120000
     16 C18         1.2960   -1.7270    0.9320 c1        1 RAJ      0.083000
     17 N5          0.0020   -1.0940    0.5030 n         1 RAJ     -0.326000
     18 C17         0.0080    0.0010   -0.3880 c2        1 RAJ      0.356000
     19 O1          1.0420    0.4260   -0.8030 o         1 RAJ     -0.336000
     20 C12        -1.3160    0.6520   -0.8170 c2        1 RAJ     -0.126000
     21 C11        -1.3370    1.5420   -1.9300 c2        1 RAJ     -0.097000
     22 C13        -2.4160    0.4860   -0.0600 c1        1 RAJ     -0.106000
     23 C14        -3.5600    1.1680   -0.3520 c1        1 RAJ     -0.136000
     24 C15        -3.5920    2.0720   -1.4780 c1        1 RAJ     -0.011000
     25 C16        -4.9410    2.8420   -1.8430 c3        1 RAJ     -0.183000
     26 C10        -2.4840    2.2370   -2.2380 c1        1 RAJ      0.028000
     27 N4         -2.5300    3.0320   -3.3850 n3        1 RAJ     -0.232000
     28 C9         -2.0900    4.4210   -3.3260 c2        1 RAJ      0.146000
     29 N3         -1.6100    4.9260   -2.1670 n2        1 RAJ     -0.183000
     30 C8         -1.1300    6.1810   -2.1260 c1        1 RAJ     -0.020000
     31 C7         -1.1270    6.9610   -3.2790 c1        1 RAJ     -0.133250
     32 C6         -1.5980    6.4660   -4.4210 c1        1 RAJ     -0.133250
     33 C5         -2.0870    5.1910   -4.4640 c1        1 RAJ     -0.145000
     34 C3         -2.6820    4.7120   -5.6360 c1        1 RAJ      0.077000
     35 C2         -3.8880    5.2420   -6.0580 c1        1 RAJ     -0.133250
     36 C1         -4.3720    4.9270   -7.2630 c1        1 RAJ     -0.133250
     37 N2         -3.6940    4.1000   -8.0610 n1        1 RAJ     -0.166000
     38 C4         -2.5040    3.5720   -7.6540 c1        1 RAJ     -0.026000
     39 N1         -2.0060    3.8850   -6.4370 n1        1 RAJ     -0.184000
     40 H281        3.8510   -6.0240    7.7870 h1        1 RAJ      0.070333
     41 H282        3.3850   -4.4310    8.0370 h1        1 RAJ      0.070333
     42 H283        2.4150   -5.7310    8.5700 h1        1 RAJ      0.070333
     43 H291        1.2210   -6.9690    7.0130 h1        1 RAJ      0.070333
     44 H292        1.4080   -6.7230    5.4540 h1        1 RAJ      0.070333
     45 H293        2.5890   -7.3580    6.2670 h1        1 RAJ      0.070333
     46 H271        3.4510   -5.8690    4.9510 h1        1 RAJ      0.071500
     47 H272        4.0820   -4.7670    5.9140 h1        1 RAJ      0.071500
     48 H261        3.2620   -3.1870    4.6510 hc        1 RAJ      0.085500
     49 H262        1.8140   -3.6860    5.0500 hc        1 RAJ      0.085500
     50 H251        1.5640   -4.9150    3.1890 hc        1 RAJ      0.099500
     51 H252        3.0730   -5.0530    3.0290 hc        1 RAJ      0.099500
     52 H19         0.4210   -3.0010    2.3520 ha        1 RAJ      0.137000
     53 H21         4.5120   -3.4520    1.9150 ha        1 RAJ      0.151000
     54 H23         2.5000   -0.6710   -0.3410 ha        1 RAJ      0.191000
     55 HN5        -0.8350   -1.4370    0.8360 hn        1 RAJ      0.235000
     56 H11        -0.4760    1.6640   -2.5150 ha        1 RAJ      0.159000
     57 H13        -2.3970   -0.0990    0.6680 ha        1 RAJ      0.136000
     58 H14        -4.3340    1.0480    0.1850 ha        1 RAJ      0.139000
     59 H161       -5.6380    2.6170   -1.1740 hc        1 RAJ      0.092333
     60 H162       -5.2370    2.5750   -2.7170 hc        1 RAJ      0.092333
     61 H163       -4.7780    3.8250   -1.8340 hc        1 RAJ      0.092333
     62 HN4        -2.8050    2.6860   -4.1520 hn        1 RAJ      0.232000
     63 H8         -0.7710    6.5590   -1.2530 ha        1 RAJ      0.164000
     64 H7         -0.7640    7.9050   -3.2480 ha        1 RAJ      0.154500
     65 H6         -1.5970    7.0200   -5.2350 ha        1 RAJ      0.154500
     66 H2         -4.3430    5.7960   -5.5270 ha        1 RAJ      0.154500
     67 H1         -5.1950    5.2900   -7.5490 ha        1 RAJ      0.154500
     68 H4         -2.0440    3.0050   -8.2050 ha        1 RAJ      0.194000
@<TRIPOS>BOND
     1    1    2 1   
     2    1   40 1   
     3    1   41 1   
     4    1   42 1   
     5    2    3 1   
     6    2    4 1   
     7    3   43 1   
     8    3   44 1   
     9    3   45 1   
    10    4    5 1   
    11    4   46 1   
    12    4   47 1   
    13    5    6 1   
    14    5   48 1   
    15    5   49 1   
    16    6    7 1   
    17    6   50 1   
    18    6   51 1   
    19    7    8 1   
    20    7    9 1   
    21    8   52 1   
    22    9   10 1   
    23    9   53 1   
    24   10   15 1   
    25   11   12 1   
    26   11   13 1   
    27   11   14 1   
    28   15   16 1   
    29   15   54 1   
    30   16   17 1   
    31   17   18 1   
    32   17   55 1   
    33   18   19 1   
    34   18   20 1   
    35   20   21 1   
    36   20   22 1   
    37   21   26 1   
    38   21   56 1   
    39   22   57 1   
    40   23   24 1   
    41   23   58 1   
    42   24   25 1   
    43   25   59 1   
    44   25   60 1   
    45   25   61 1   
    46   26   27 1   
    47   27   28 1   
    48   27   62 1   
    49   28   29 1   
    50   28   33 1   
    51   29   30 1   
    52   30   63 1   
    53   31   32 1   
    54   31   64 1   
    55   32   65 1   
    56   34   39 1   
    57   35   36 1   
    58   35   66 1   
    59   36   67 1   
    60   37   38 1   
    61   38   68 1   
@<TRIPOS>SUBSTRUCTURE
     1 RAJ         1 TEMP              0 ****  ****    0 ROOT
