@<TRIPOS>MOLECULE
RAJ
   69    72     1     0     0
SMALL
bcc


@<TRIPOS>ATOM
      1 C28         1.4620    0.5500    0.9480 c3        1 RAJ      0.081600
      2 N6          2.6480    0.0720    0.1920 n4        1 RAJ     -0.682400
      3 C29         3.7880   -0.1810    1.1130 c3        1 RAJ      0.081600
      4 C27         3.0430    1.0440   -0.8850 c3        1 RAJ      0.106800
      5 C26         2.1260    1.0260   -2.0980 c3        1 RAJ     -0.116400
      6 C25         2.0930   -0.3200   -2.7990 c3        1 RAJ     -0.039100
      7 C20         1.6470   -0.1790   -4.2140 ca        1 RAJ     -0.081300
      8 C19         0.4230   -0.7080   -4.6260 ca        1 RAJ     -0.166000
      9 C21         2.4810    0.4640   -5.1310 ca        1 RAJ     -0.127000
     10 C22         2.0700    0.5790   -6.4590 ca        1 RAJ     -0.125300
     11 C24         2.9760    1.3120   -7.4480 c3        1 RAJ      0.687200
     12 F2          4.3180    1.1850   -7.1760 f         1 RAJ     -0.228967
     13 F3          2.8510    0.9090   -8.7520 f         1 RAJ     -0.228967
     14 F1          2.7690    2.6700   -7.4810 f         1 RAJ     -0.228967
     15 C23         0.8560    0.0610   -6.8950 ca        1 RAJ     -0.103000
     16 C18         0.0050   -0.6030   -5.9770 ca        1 RAJ      0.100600
     17 N5         -1.2280   -1.1450   -6.3400 n         1 RAJ     -0.477100
     18 C17        -1.7180   -1.3320   -7.6380 c         1 RAJ      0.689700
     19 O1         -1.0730   -0.9920   -8.6430 o         1 RAJ     -0.562100
     20 C12        -3.0500   -1.9920   -7.7360 ca        1 RAJ     -0.153600
     21 C11        -4.1060   -1.6280   -6.9000 ca        1 RAJ     -0.087000
     22 C13        -3.2260   -2.9670   -8.7230 ca        1 RAJ     -0.082000
     23 C14        -4.4600   -3.5960   -8.8490 ca        1 RAJ     -0.121000
     24 C15        -5.5290   -3.2700   -8.0110 ca        1 RAJ     -0.071300
     25 C16        -6.8250   -3.9700   -8.1810 c3        1 RAJ     -0.070800
     26 C10        -5.3580   -2.2630   -7.0240 ca        1 RAJ      0.129600
     27 N4         -6.4540   -1.8370   -6.2370 nh        1 RAJ     -0.721300
     28 C9         -6.4320   -1.8610   -4.8360 ca        1 RAJ      0.688200
     29 N3         -5.2520   -2.1220   -4.1780 nb        1 RAJ     -0.734000
     30 C8         -5.2480   -2.0670   -2.8410 ca        1 RAJ      0.440200
     31 C7         -6.3670   -1.7530   -2.0520 ca        1 RAJ     -0.297300
     32 C6         -7.5650   -1.4850   -2.7080 ca        1 RAJ     -0.037000
     33 C5         -7.6260   -1.5360   -4.1050 cp        1 RAJ     -0.317800
     34 C3         -8.9210   -1.2540   -4.7440 cp        1 RAJ      0.499800
     35 C2         -9.6220   -0.0840   -4.3670 ca        1 RAJ     -0.355600
     36 C1        -10.8830    0.1360   -4.9550 ca        1 RAJ      0.435200
     37 N2        -11.4250   -0.7230   -5.8410 nb        1 RAJ     -0.681000
     38 C4        -10.6710   -1.8160   -6.1400 ca        1 RAJ      0.639900
     39 N1         -9.4470   -2.1290   -5.6430 nb        1 RAJ     -0.716000
     40 H281        0.6160    0.7370    0.2330 hx        1 RAJ      0.106200
     41 H282        1.1590   -0.2300    1.6970 hx        1 RAJ      0.106200
     42 H283        1.7170    1.5040    1.4840 hx        1 RAJ      0.106200
     43 H291        4.6400   -0.6350    0.5380 hx        1 RAJ      0.106200
     44 H292        4.1190    0.7870    1.5740 hx        1 RAJ      0.106200
     45 H293        3.4620   -0.8900    1.9220 hx        1 RAJ      0.106200
     46 H271        4.0930    0.7790   -1.2080 hx        1 RAJ      0.105200
     47 H272        3.0570    2.0740   -0.4280 hx        1 RAJ      0.105200
     48 H261        2.5250    1.8080   -2.8050 hc        1 RAJ      0.092700
     49 H262        1.0860    1.3430   -1.8220 hc        1 RAJ      0.092700
     50 H251        1.4060   -1.0210   -2.2530 hc        1 RAJ      0.046200
     51 H252        3.1200   -0.7780   -2.7920 hc        1 RAJ      0.046200
     52 H19        -0.2170   -1.2180   -3.8900 ha        1 RAJ      0.132000
     53 H21         3.4570    0.8660   -4.8220 ha        1 RAJ      0.144000
     54 H23         0.5730    0.1660   -7.9600 ha        1 RAJ      0.205000
     55 HN5        -1.7840   -1.5120   -5.5960 hn        1 RAJ      0.329500
     56 H11        -3.9720   -0.8270   -6.1560 ha        1 RAJ      0.148000
     57 H13        -2.3930   -3.2200   -9.3980 ha        1 RAJ      0.158000
     58 H14        -4.5970   -4.3670   -9.6250 ha        1 RAJ      0.148000
     59 H161       -7.1770   -4.4000   -7.2100 hc        1 RAJ      0.057033
     60 H162       -6.7360   -4.8070   -8.9180 hc        1 RAJ      0.057033
     61 H163       -7.6060   -3.2620   -8.5590 hc        1 RAJ      0.057033
     62 HN4        -7.3430   -2.0410   -6.6460 hn        1 RAJ      0.453800
     63 H8         -4.2760   -2.3030   -2.3700 h4        1 RAJ      0.010100
     64 H7         -6.2980   -1.7310   -0.9580 ha        1 RAJ      0.148000
     65 H6         -8.4720   -1.2400   -2.1330 ha        1 RAJ      0.148000
     66 H2         -9.1960    0.6270   -3.6490 ha        1 RAJ      0.158000
     67 H1        -11.4820    1.0310   -4.7080 h4        1 RAJ      0.037100
     68 H4        -11.1050   -2.5340   -6.8680 h5        1 RAJ      0.061100
     69 H61         2.3990   -0.8160   -0.2690 hn        1 RAJ      0.452800
@<TRIPOS>BOND
     1    1    2 1   
     2    1   40 1   
     3    1   41 1   
     4    1   42 1   
     5    2    3 1   
     6    2    4 1   
     7    2   69 1   
     8    3   43 1   
     9    3   44 1   
    10    3   45 1   
    11    4    5 1   
    12    4   46 1   
    13    4   47 1   
    14    5    6 1   
    15    5   48 1   
    16    5   49 1   
    17    6    7 1   
    18    6   50 1   
    19    6   51 1   
    20    7    8 ar  
    21    7    9 ar  
    22    8   16 ar  
    23    8   52 1   
    24    9   10 ar  
    25    9   53 1   
    26   10   11 1   
    27   10   15 ar  
    28   11   12 1   
    29   11   13 1   
    30   11   14 1   
    31   15   16 ar  
    32   15   54 1   
    33   16   17 1   
    34   17   18 1   
    35   17   55 1   
    36   18   19 2   
    37   18   20 1   
    38   20   21 ar  
    39   20   22 ar  
    40   21   26 ar  
    41   21   56 1   
    42   22   23 ar  
    43   22   57 1   
    44   23   24 ar  
    45   23   58 1   
    46   24   25 1   
    47   24   26 ar  
    48   25   59 1   
    49   25   60 1   
    50   25   61 1   
    51   26   27 1   
    52   27   28 1   
    53   27   62 1   
    54   28   29 ar  
    55   28   33 ar  
    56   29   30 ar  
    57   30   31 ar  
    58   30   63 1   
    59   31   32 ar  
    60   31   64 1   
    61   32   33 ar  
    62   32   65 1   
    63   33   34 1   
    64   34   35 ar  
    65   34   39 ar  
    66   35   36 ar  
    67   35   66 1   
    68   36   37 ar  
    69   36   67 1   
    70   37   38 ar  
    71   38   39 ar  
    72   38   68 1   
@<TRIPOS>SUBSTRUCTURE
     1 RAJ         1 TEMP              0 ****  ****    0 ROOT
