@<TRIPOS>MOLECULE
RAL
   61    65     1     0     0
SMALL
bcc


@<TRIPOS>ATOM
      1 C1         -0.0440    0.1410    0.0860 ca        1 RAL     -0.050000
      2 C2          1.3340    0.2030    0.1840 ca        1 RAL     -0.205000
      3 C3          1.9570    0.0960    1.4490 ca        1 RAL      0.132100
      4 O3          3.3250    0.1560    1.5950 oh        1 RAL     -0.496100
      5 C4          1.2150   -0.0760    2.6190 ca        1 RAL     -0.132000
      6 C5         -0.1760   -0.1400    2.5140 ca        1 RAL     -0.049100
      7 S6         -1.3110   -0.3560    3.7380 ss        1 RAL      0.039500
      8 C7         -2.6420   -0.3050    2.6750 cc        1 RAL      0.011400
      9 C8         -3.9800   -0.4680    3.1970 ca        1 RAL     -0.085800
     10 C9         -4.3610    0.1960    4.3770 ca        1 RAL     -0.073000
     11 C10        -5.6360    0.0390    4.9030 ca        1 RAL     -0.187000
     12 C11        -6.5500   -0.7980    4.2400 ca        1 RAL      0.135100
     13 O11        -7.7970   -0.9160    4.8080 oh        1 RAL     -0.495100
     14 C12        -6.1870   -1.4690    3.0640 ca        1 RAL     -0.187000
     15 C13        -4.9050   -1.3000    2.5490 ca        1 RAL     -0.073000
     16 C14        -0.8130   -0.0250    1.2470 ca        1 RAL     -0.093800
     17 C15        -2.2490   -0.1160    1.3710 cd        1 RAL     -0.145400
     18 C16        -3.1350   -0.0280    0.1910 c         1 RAL      0.620900
     19 O16        -3.5730   -1.0480   -0.3590 o         1 RAL     -0.536100
     20 C17        -3.4620    1.3220   -0.3030 ca        1 RAL     -0.216600
     21 C18        -4.2210    1.4510   -1.4800 ca        1 RAL     -0.039500
     22 C19        -4.5580    2.7010   -1.9740 ca        1 RAL     -0.203500
     23 C20        -4.1320    3.8540   -1.2810 ca        1 RAL      0.165100
     24 C21        -3.3770    3.7390   -0.1060 ca        1 RAL     -0.203500
     25 C22        -3.0480    2.4740    0.3740 ca        1 RAL     -0.039500
     26 O23        -4.5020    5.0450   -1.8610 os        1 RAL     -0.320900
     27 C24        -4.1890    6.2330   -1.1220 c3        1 RAL      0.126400
     28 C25        -4.7990    7.3900   -1.9270 c3        1 RAL      0.173800
     29 N26        -6.1710    7.6830   -1.5490 n3        1 RAL     -0.738600
     30 C27        -6.9900    8.1110   -2.6740 c3        1 RAL      0.176800
     31 C28        -8.4420    8.3890   -2.2880 c3        1 RAL     -0.077900
     32 C29        -8.5260    9.3550   -1.1260 c3        1 RAL     -0.078400
     33 C30        -7.6950    8.8550    0.0350 c3        1 RAL     -0.077900
     34 C31        -6.2580    8.5730   -0.4010 c3        1 RAL      0.176800
     35 H1         -0.5420    0.2190   -0.8920 ha        1 RAL      0.146000
     36 H2          1.9520    0.3310   -0.7160 ha        1 RAL      0.137000
     37 HO3         3.7140    0.2520    0.7130 ho        1 RAL      0.421000
     38 H4          1.7240   -0.1620    3.5890 ha        1 RAL      0.157000
     39 H9         -3.6390    0.8510    4.8890 ha        1 RAL      0.151000
     40 H10        -5.9420    0.5560    5.8220 ha        1 RAL      0.146000
     41 HO1        -8.3240   -1.5080    4.2520 ho        1 RAL      0.422000
     42 H12        -6.9070   -2.1220    2.5510 ha        1 RAL      0.146000
     43 H13        -4.6120   -1.8220    1.6210 ha        1 RAL      0.151000
     44 H18        -4.5500    0.5390   -2.0050 ha        1 RAL      0.151000
     45 H19        -5.1520    2.8130   -2.8920 ha        1 RAL      0.147000
     46 H21        -3.0410    4.6300    0.4420 ha        1 RAL      0.147000
     47 H22        -2.4540    2.3830    1.2980 ha        1 RAL      0.151000
     48 H241       -4.6060    6.1580   -0.0850 h1        1 RAL      0.046700
     49 H242       -3.0740    6.3500   -1.0790 h1        1 RAL      0.046700
     50 H251       -4.7620    7.1030   -3.0170 h1        1 RAL      0.048200
     51 H252       -4.1240    8.2850   -1.7840 h1        1 RAL      0.048200
     52 H271       -6.9740    7.2830   -3.4390 h1        1 RAL      0.028450
     53 H272       -6.5670    9.0390   -3.1620 h1        1 RAL      0.028450
     54 H281       -8.9680    8.8130   -3.1820 hc        1 RAL      0.048200
     55 H282       -8.9490    7.4280   -2.0140 hc        1 RAL      0.048200
     56 H291       -8.1560   10.3640   -1.4470 hc        1 RAL      0.040200
     57 H292       -9.5930    9.4740   -0.8070 hc        1 RAL      0.040200
     58 H301       -8.1530    7.9210    0.4520 hc        1 RAL      0.048200
     59 H302       -7.6720    9.6200    0.8530 hc        1 RAL      0.048200
     60 H311       -5.7480    9.5620   -0.6060 h1        1 RAL      0.028450
     61 H312       -5.7100    8.0800    0.4510 h1        1 RAL      0.028450
@<TRIPOS>BOND
     1    1    2 ar  
     2    1   16 ar  
     3    1   35 1   
     4    2    3 ar  
     5    2   36 1   
     6    3    4 1   
     7    3    5 ar  
     8    4   37 1   
     9    5    6 ar  
    10    5   38 1   
    11    6    7 1   
    12    6   16 ar  
    13    7    8 1   
    14    8    9 1   
    15    8   17 2   
    16    9   10 ar  
    17    9   15 ar  
    18   10   11 ar  
    19   10   39 1   
    20   11   12 ar  
    21   11   40 1   
    22   12   13 1   
    23   12   14 ar  
    24   13   41 1   
    25   14   15 ar  
    26   14   42 1   
    27   15   43 1   
    28   16   17 1   
    29   17   18 1   
    30   18   19 2   
    31   18   20 1   
    32   20   21 ar  
    33   20   25 ar  
    34   21   22 ar  
    35   21   44 1   
    36   22   23 ar  
    37   22   45 1   
    38   23   24 ar  
    39   23   26 1   
    40   24   25 ar  
    41   24   46 1   
    42   25   47 1   
    43   26   27 1   
    44   27   28 1   
    45   27   48 1   
    46   27   49 1   
    47   28   29 1   
    48   28   50 1   
    49   28   51 1   
    50   29   30 1   
    51   29   34 1   
    52   30   31 1   
    53   30   52 1   
    54   30   53 1   
    55   31   32 1   
    56   31   54 1   
    57   31   55 1   
    58   32   33 1   
    59   32   56 1   
    60   32   57 1   
    61   33   34 1   
    62   33   58 1   
    63   33   59 1   
    64   34   60 1   
    65   34   61 1   
@<TRIPOS>SUBSTRUCTURE
     1 RAL         1 TEMP              0 ****  ****    0 ROOT
