@<TRIPOS>MOLECULE
RAL
   61    65     1     0     0
SMALL
bcc


@<TRIPOS>ATOM
      1 C1         -0.1010    0.0740    0.0720 ca        1 RAL     -0.050000
      2 C2          1.2780    0.1180    0.1700 ca        1 RAL     -0.205000
      3 C3          1.8990    0.0040    1.4350 ca        1 RAL      0.132100
      4 O3          3.2680    0.0470    1.5800 oh        1 RAL     -0.496100
      5 C4          1.1560   -0.1570    2.6050 ca        1 RAL     -0.132000
      6 C5         -0.2360   -0.2030    2.5010 ca        1 RAL     -0.049100
      7 S6         -1.3740   -0.4030    3.7250 ss        1 RAL      0.039500
      8 C7         -2.7040   -0.3370    2.6620 cc        1 RAL      0.011400
      9 C8         -4.0440   -0.4820    3.1850 ca        1 RAL     -0.085800
     10 C9         -4.4160    0.1880    4.3640 ca        1 RAL     -0.073000
     11 C10        -5.6930    0.0480    4.8910 ca        1 RAL     -0.187500
     12 C11        -6.6180   -0.7780    4.2290 ca        1 RAL      0.135100
     13 O11        -7.8650   -0.8790    4.7980 oh        1 RAL     -0.495100
     14 C12        -6.2630   -1.4550    3.0540 ca        1 RAL     -0.187500
     15 C13        -4.9800   -1.3030    2.5380 ca        1 RAL     -0.073000
     16 C14        -0.8720   -0.0810    1.2340 ca        1 RAL     -0.093800
     17 C15        -2.3090   -0.1530    1.3580 cd        1 RAL     -0.145400
     18 C16        -3.1940   -0.0550    0.1780 c         1 RAL      0.620900
     19 O16        -3.6480   -1.0690   -0.3690 o         1 RAL     -0.536100
     20 C17        -3.5010    1.2990   -0.3190 ca        1 RAL     -0.216600
     21 C18        -4.2580    1.4360   -1.4960 ca        1 RAL     -0.039500
     22 C19        -4.5760    2.6900   -1.9930 ca        1 RAL     -0.203500
     23 C20        -4.1330    3.8380   -1.3030 ca        1 RAL      0.165100
     24 C21        -3.3790    3.7150   -0.1280 ca        1 RAL     -0.203500
     25 C22        -3.0700    2.4460    0.3550 ca        1 RAL     -0.039500
     26 O23        -4.4850    5.0330   -1.8860 os        1 RAL     -0.320900
     27 C24        -4.1520    6.2180   -1.1510 c3        1 RAL      0.126400
     28 C25        -4.7440    7.3830   -1.9600 c3        1 RAL      0.173800
     29 N26        -6.1100    7.6990   -1.5810 n3        1 RAL     -0.738600
     30 C27        -6.9240    8.1360   -2.7070 c3        1 RAL      0.176800
     31 C28        -8.3700    8.4400   -2.3200 c3        1 RAL     -0.077900
     32 C29        -8.4370    9.4120   -1.1620 c3        1 RAL     -0.078400
     33 C30        -7.6130    8.9020    0.0010 c3        1 RAL     -0.077900
     34 C31        -6.1820    8.5950   -0.4360 c3        1 RAL      0.176800
     35 H1         -0.5990    0.1580   -0.9060 ha        1 RAL      0.146000
     36 H2          1.8970    0.2380   -0.7310 ha        1 RAL      0.137000
     37 HO3         3.6580    0.1370    0.6980 ho        1 RAL      0.421000
     38 H4          1.6640   -0.2490    3.5750 ha        1 RAL      0.157000
     39 H9         -3.6860    0.8350    4.8750 ha        1 RAL      0.151000
     40 H10        -5.9910    0.5700    5.8100 ha        1 RAL      0.146000
     41 HO1        -8.4000   -1.4660    4.2430 ho        1 RAL      0.422000
     42 H12        -6.9920   -2.0990    2.5420 ha        1 RAL      0.146000
     43 H13        -4.6930   -1.8290    1.6110 ha        1 RAL      0.151000
     44 H18        -4.6010    0.5270   -2.0190 ha        1 RAL      0.151000
     45 H19        -5.1690    2.8080   -2.9110 ha        1 RAL      0.147000
     46 H21        -3.0300    4.6020    0.4180 ha        1 RAL      0.147000
     47 H22        -2.4780    2.3490    1.2800 ha        1 RAL      0.151000
     48 H241       -4.5710    6.1530   -0.1130 h1        1 RAL      0.046700
     49 H242       -3.0350    6.3170   -1.1090 h1        1 RAL      0.046700
     50 H251       -4.7130    7.0910   -3.0490 h1        1 RAL      0.048200
     51 H252       -4.0540    8.2660   -1.8200 h1        1 RAL      0.048200
     52 H271       -6.9220    7.3060   -3.4680 h1        1 RAL      0.028450
     53 H272       -6.4850    9.0550   -3.1980 h1        1 RAL      0.028450
     54 H281       -8.8900    8.8690   -3.2150 hc        1 RAL      0.048200
     55 H282       -8.8930    7.4880   -2.0430 hc        1 RAL      0.048200
     56 H291       -8.0500   10.4130   -1.4870 hc        1 RAL      0.040200
     57 H292       -9.5020    9.5490   -0.8420 hc        1 RAL      0.040200
     58 H301       -7.5760    9.6700    0.8150 hc        1 RAL      0.048200
     59 H302       -8.0870    7.9770    0.4210 hc        1 RAL      0.048200
     60 H311       -5.6560    9.5740   -0.6450 h1        1 RAL      0.028450
     61 H312       -5.6410    8.0960    0.4170 h1        1 RAL      0.028450
@<TRIPOS>BOND
     1    1    2 ar  
     2    1   16 ar  
     3    1   35 1   
     4    2    3 ar  
     5    2   36 1   
     6    3    4 1   
     7    3    5 ar  
     8    4   37 1   
     9    5    6 ar  
    10    5   38 1   
    11    6    7 1   
    12    6   16 ar  
    13    7    8 1   
    14    8    9 1   
    15    8   17 2   
    16    9   10 ar  
    17    9   15 ar  
    18   10   11 ar  
    19   10   39 1   
    20   11   12 ar  
    21   11   40 1   
    22   12   13 1   
    23   12   14 ar  
    24   13   41 1   
    25   14   15 ar  
    26   14   42 1   
    27   15   43 1   
    28   16   17 1   
    29   17   18 1   
    30   18   19 2   
    31   18   20 1   
    32   20   21 ar  
    33   20   25 ar  
    34   21   22 ar  
    35   21   44 1   
    36   22   23 ar  
    37   22   45 1   
    38   23   24 ar  
    39   23   26 1   
    40   24   25 ar  
    41   24   46 1   
    42   25   47 1   
    43   26   27 1   
    44   27   28 1   
    45   27   48 1   
    46   27   49 1   
    47   28   29 1   
    48   28   50 1   
    49   28   51 1   
    50   29   30 1   
    51   29   34 1   
    52   30   31 1   
    53   30   52 1   
    54   30   53 1   
    55   31   32 1   
    56   31   54 1   
    57   31   55 1   
    58   32   33 1   
    59   32   56 1   
    60   32   57 1   
    61   33   34 1   
    62   33   58 1   
    63   33   59 1   
    64   34   60 1   
    65   34   61 1   
@<TRIPOS>SUBSTRUCTURE
     1 RAL         1 TEMP              0 ****  ****    0 ROOT
