@<TRIPOS>MOLECULE
RAL
   61    65     1     0     0
SMALL
bcc


@<TRIPOS>ATOM
      1 C1          2.3750    0.7220   -3.5360 ca        1 RAL     -0.050000
      2 C2          3.3580    0.1630   -4.3320 ca        1 RAL     -0.206000
      3 C3          3.0410   -0.9180   -5.1880 ca        1 RAL      0.132100
      4 O3          3.9880   -1.5090   -5.9930 oh        1 RAL     -0.496100
      5 C4          1.7500   -1.4420   -5.2600 ca        1 RAL     -0.133000
      6 C5          0.7610   -0.8720   -4.4560 ca        1 RAL     -0.048100
      7 S6         -0.8690   -1.2810   -4.3480 ss        1 RAL      0.036500
      8 C7         -1.2140   -0.0860   -3.1820 cc        1 RAL      0.011400
      9 C8         -2.5630    0.0610   -2.6860 ca        1 RAL     -0.084800
     10 C9         -3.3160   -1.0740   -2.3480 ca        1 RAL     -0.072500
     11 C10        -4.6220   -0.9480   -1.8880 ca        1 RAL     -0.187000
     12 C11        -5.1860    0.3310   -1.7650 ca        1 RAL      0.135100
     13 O11        -6.4710    0.5350   -1.3200 oh        1 RAL     -0.494100
     14 C12        -4.4470    1.4780   -2.1010 ca        1 RAL     -0.187000
     15 C13        -3.1440    1.3340   -2.5570 ca        1 RAL     -0.072500
     16 C14         1.0700    0.2100   -3.5840 ca        1 RAL     -0.093800
     17 C15        -0.0950    0.6410   -2.8480 cd        1 RAL     -0.144400
     18 C16        -0.0310    1.7550   -1.8790 c         1 RAL      0.619900
     19 O16        -0.3600    2.9040   -2.2010 o         1 RAL     -0.534100
     20 C17         0.4510    1.4360   -0.5210 ca        1 RAL     -0.215600
     21 C18         0.5780    2.4760    0.4170 ca        1 RAL     -0.039500
     22 C19         1.0200    2.2190    1.7050 ca        1 RAL     -0.203500
     23 C20         1.3430    0.8950    2.0720 ca        1 RAL      0.165100
     24 C21         1.2180   -0.1500    1.1470 ca        1 RAL     -0.203500
     25 C22         0.7720    0.1290   -0.1420 ca        1 RAL     -0.039500
     26 O23         1.7880    0.7480    3.3650 os        1 RAL     -0.320900
     27 C24         2.0210   -0.5970    3.8050 c3        1 RAL      0.126400
     28 C25         2.4050   -0.4820    5.2880 c3        1 RAL      0.173800
     29 N26         1.2580   -0.5470    6.1770 n3        1 RAL     -0.738600
     30 C27         1.4010    0.2990    7.3530 c3        1 RAL      0.176800
     31 C28         0.1840    0.2580    8.2740 c3        1 RAL     -0.077900
     32 C29        -0.1790   -1.1640    8.6420 c3        1 RAL     -0.078400
     33 C30        -0.3590   -2.0010    7.3940 c3        1 RAL     -0.077900
     34 C31         0.8730   -1.9150    6.4950 c3        1 RAL      0.176800
     35 H1          2.6050    1.5660   -2.8670 ha        1 RAL      0.147000
     36 H2          4.3850    0.5530   -4.3070 ha        1 RAL      0.137000
     37 HO3         4.8240   -1.0370   -5.8670 ho        1 RAL      0.421000
     38 H4          1.5290   -2.2780   -5.9380 ha        1 RAL      0.157000
     39 H9         -2.8680   -2.0760   -2.4450 ha        1 RAL      0.150500
     40 H10        -5.2060   -1.8400   -1.6220 ha        1 RAL      0.145500
     41 HO1        -6.8600   -0.3290   -1.1220 ho        1 RAL      0.420000
     42 H12        -4.9080    2.4710   -1.9970 ha        1 RAL      0.145500
     43 H13        -2.5520    2.2290   -2.8200 ha        1 RAL      0.150500
     44 H18         0.3170    3.5040    0.1130 ha        1 RAL      0.150500
     45 H19         1.1210    3.0240    2.4460 ha        1 RAL      0.147000
     46 H21         1.4660   -1.1840    1.4230 ha        1 RAL      0.147000
     47 H22         0.6730   -0.6940   -0.8700 ha        1 RAL      0.150500
     48 H241        1.1030   -1.2160    3.6410 h1        1 RAL      0.046700
     49 H242        2.8810   -1.0230    3.2250 h1        1 RAL      0.046700
     50 H251        3.1500   -1.3040    5.5020 h1        1 RAL      0.048700
     51 H252        2.9340    0.5050    5.4280 h1        1 RAL      0.048700
     52 H271        2.3150    0.0160    7.9550 h1        1 RAL      0.028200
     53 H272        1.5440    1.3570    6.9920 h1        1 RAL      0.028200
     54 H281        0.4210    0.8470    9.1970 hc        1 RAL      0.048200
     55 H282       -0.6880    0.7500    7.7680 hc        1 RAL      0.048200
     56 H291        0.6310   -1.6070    9.2790 hc        1 RAL      0.040200
     57 H292       -1.1240   -1.1720    9.2440 hc        1 RAL      0.040200
     58 H301       -0.5220   -3.0750    7.6680 hc        1 RAL      0.048200
     59 H302       -1.2620   -1.6490    6.8310 hc        1 RAL      0.048200
     60 H311        0.6510   -2.4380    5.5220 h1        1 RAL      0.028200
     61 H312        1.7180   -2.4750    6.9960 h1        1 RAL      0.028200
@<TRIPOS>BOND
     1    1    2 ar  
     2    1   16 ar  
     3    1   35 1   
     4    2    3 ar  
     5    2   36 1   
     6    3    4 1   
     7    3    5 ar  
     8    4   37 1   
     9    5    6 ar  
    10    5   38 1   
    11    6    7 1   
    12    6   16 ar  
    13    7    8 1   
    14    8    9 1   
    15    8   17 2   
    16    9   10 ar  
    17    9   15 ar  
    18   10   11 ar  
    19   10   39 1   
    20   11   12 ar  
    21   11   40 1   
    22   12   13 1   
    23   12   14 ar  
    24   13   41 1   
    25   14   15 ar  
    26   14   42 1   
    27   15   43 1   
    28   16   17 1   
    29   17   18 1   
    30   18   19 2   
    31   18   20 1   
    32   20   21 ar  
    33   20   25 ar  
    34   21   22 ar  
    35   21   44 1   
    36   22   23 ar  
    37   22   45 1   
    38   23   24 ar  
    39   23   26 1   
    40   24   25 ar  
    41   24   46 1   
    42   25   47 1   
    43   26   27 1   
    44   27   28 1   
    45   27   48 1   
    46   27   49 1   
    47   28   29 1   
    48   28   50 1   
    49   28   51 1   
    50   29   30 1   
    51   29   34 1   
    52   30   31 1   
    53   30   52 1   
    54   30   53 1   
    55   31   32 1   
    56   31   54 1   
    57   31   55 1   
    58   32   33 1   
    59   32   56 1   
    60   32   57 1   
    61   33   34 1   
    62   33   58 1   
    63   33   59 1   
    64   34   60 1   
    65   34   61 1   
@<TRIPOS>SUBSTRUCTURE
     1 RAL         1 TEMP              0 ****  ****    0 ROOT
