@<TRIPOS>MOLECULE
RAL
   61    65     1     0     0
SMALL
bcc


@<TRIPOS>ATOM
      1 C1         -0.0460    0.1360    0.0740 ca        1 RAL     -0.050000
      2 C2          1.3320    0.1950    0.1680 ca        1 RAL     -0.205000
      3 C3          1.9590    0.0880    1.4310 ca        1 RAL      0.132100
      4 O3          3.3270    0.1460    1.5720 oh        1 RAL     -0.496100
      5 C4          1.2210   -0.0810    2.6040 ca        1 RAL     -0.132000
      6 C5         -0.1700   -0.1420    2.5030 ca        1 RAL     -0.049100
      7 S6         -1.3030   -0.3540    3.7320 ss        1 RAL      0.039500
      8 C7         -2.6370   -0.3030    2.6730 cc        1 RAL      0.011400
      9 C8         -3.9740   -0.4620    3.1990 ca        1 RAL     -0.085800
     10 C9         -4.3480    0.2020    4.3800 ca        1 RAL     -0.073000
     11 C10        -5.6220    0.0490    4.9100 ca        1 RAL     -0.187000
     12 C11        -6.5410   -0.7850    4.2510 ca        1 RAL      0.135100
     13 O11        -7.7860   -0.8990    4.8230 oh        1 RAL     -0.495100
     14 C12        -6.1830   -1.4570    3.0730 ca        1 RAL     -0.187000
     15 C13        -4.9030   -1.2920    2.5540 ca        1 RAL     -0.073000
     16 C14        -0.8120   -0.0280    1.2380 ca        1 RAL     -0.093800
     17 C15        -2.2480   -0.1160    1.3670 cd        1 RAL     -0.145400
     18 C16        -3.1370   -0.0270    0.1900 c         1 RAL      0.620900
     19 O16        -3.5780   -1.0470   -0.3580 o         1 RAL     -0.536100
     20 C17        -3.4630    1.3230   -0.3040 ca        1 RAL     -0.216600
     21 C18        -4.2260    1.4520   -1.4790 ca        1 RAL     -0.039500
     22 C19        -4.5620    2.7030   -1.9730 ca        1 RAL     -0.203500
     23 C20        -4.1330    3.8550   -1.2820 ca        1 RAL      0.165100
     24 C21        -3.3750    3.7400   -0.1080 ca        1 RAL     -0.203500
     25 C22        -3.0470    2.4750    0.3710 ca        1 RAL     -0.039500
     26 O23        -4.5030    5.0460   -1.8610 os        1 RAL     -0.320900
     27 C24        -4.1900    6.2340   -1.1220 c3        1 RAL      0.126400
     28 C25        -4.8030    7.3920   -1.9250 c3        1 RAL      0.173800
     29 N26        -6.1750    7.6810   -1.5460 n3        1 RAL     -0.738600
     30 C27        -6.9960    8.1080   -2.6690 c3        1 RAL      0.176800
     31 C28        -8.4480    8.3830   -2.2820 c3        1 RAL     -0.077900
     32 C29        -8.5330    9.3480   -1.1190 c3        1 RAL     -0.078400
     33 C30        -7.7000    8.8480    0.0410 c3        1 RAL     -0.077900
     34 C31        -6.2630    8.5690   -0.3960 c3        1 RAL      0.176800
     35 H1         -0.5470    0.2140   -0.9020 ha        1 RAL      0.146000
     36 H2          1.9480    0.3210   -0.7350 ha        1 RAL      0.137000
     37 HO3         3.7140    0.2400    0.6890 ho        1 RAL      0.421000
     38 H4          1.7330   -0.1670    3.5720 ha        1 RAL      0.157000
     39 H9         -3.6230    0.8560    4.8900 ha        1 RAL      0.151000
     40 H10        -5.9230    0.5670    5.8320 ha        1 RAL      0.146000
     41 HO1        -8.3160   -1.4910    4.2690 ho        1 RAL      0.422000
     42 H12        -6.9070   -2.1080    2.5630 ha        1 RAL      0.146000
     43 H13        -4.6140   -1.8140    1.6260 ha        1 RAL      0.151000
     44 H18        -4.5570    0.5400   -2.0030 ha        1 RAL      0.151000
     45 H19        -5.1580    2.8140   -2.8890 ha        1 RAL      0.147000
     46 H21        -3.0370    4.6310    0.4390 ha        1 RAL      0.147000
     47 H22        -2.4510    2.3840    1.2940 ha        1 RAL      0.151000
     48 H241       -4.6050    6.1590   -0.0840 h1        1 RAL      0.046700
     49 H242       -3.0750    6.3520   -1.0810 h1        1 RAL      0.046700
     50 H251       -4.1290    8.2870   -1.7810 h1        1 RAL      0.048200
     51 H252       -4.7660    7.1060   -3.0150 h1        1 RAL      0.048200
     52 H271       -6.9780    7.2820   -3.4350 h1        1 RAL      0.028450
     53 H272       -6.5740    9.0380   -3.1560 h1        1 RAL      0.028450
     54 H281       -8.9530    7.4200   -2.0100 hc        1 RAL      0.048200
     55 H282       -8.9760    8.8070   -3.1750 hc        1 RAL      0.048200
     56 H291       -9.6000    9.4640   -0.7990 hc        1 RAL      0.040200
     57 H292       -8.1650   10.3580   -1.4390 hc        1 RAL      0.040200
     58 H301       -8.1560    7.9120    0.4570 hc        1 RAL      0.048200
     59 H302       -7.6780    9.6120    0.8600 hc        1 RAL      0.048200
     60 H311       -5.7130    8.0760    0.4540 h1        1 RAL      0.028450
     61 H312       -5.7550    9.5590   -0.6000 h1        1 RAL      0.028450
@<TRIPOS>BOND
     1    1    2 ar  
     2    1   16 ar  
     3    1   35 1   
     4    2    3 ar  
     5    2   36 1   
     6    3    4 1   
     7    3    5 ar  
     8    4   37 1   
     9    5    6 ar  
    10    5   38 1   
    11    6    7 1   
    12    6   16 ar  
    13    7    8 1   
    14    8    9 1   
    15    8   17 2   
    16    9   10 ar  
    17    9   15 ar  
    18   10   11 ar  
    19   10   39 1   
    20   11   12 ar  
    21   11   40 1   
    22   12   13 1   
    23   12   14 ar  
    24   13   41 1   
    25   14   15 ar  
    26   14   42 1   
    27   15   43 1   
    28   16   17 1   
    29   17   18 1   
    30   18   19 2   
    31   18   20 1   
    32   20   21 ar  
    33   20   25 ar  
    34   21   22 ar  
    35   21   44 1   
    36   22   23 ar  
    37   22   45 1   
    38   23   24 ar  
    39   23   26 1   
    40   24   25 ar  
    41   24   46 1   
    42   25   47 1   
    43   26   27 1   
    44   27   28 1   
    45   27   48 1   
    46   27   49 1   
    47   28   29 1   
    48   28   50 1   
    49   28   51 1   
    50   29   30 1   
    51   29   34 1   
    52   30   31 1   
    53   30   52 1   
    54   30   53 1   
    55   31   32 1   
    56   31   54 1   
    57   31   55 1   
    58   32   33 1   
    59   32   56 1   
    60   32   57 1   
    61   33   34 1   
    62   33   58 1   
    63   33   59 1   
    64   34   60 1   
    65   34   61 1   
@<TRIPOS>SUBSTRUCTURE
     1 RAL         1 TEMP              0 ****  ****    0 ROOT
