@<TRIPOS>MOLECULE
RAM
   23    23     1     0     0
SMALL
bcc


@<TRIPOS>ATOM
      1 C1          1.6540   -0.1180   -0.5280 c3        1 RAM      0.307900
      2 C2          0.4230   -0.1330   -1.4540 c3        1 RAM      0.095100
      3 C3         -0.8380   -0.5790   -0.7040 c3        1 RAM      0.115100
      4 C4         -0.9580    0.1700    0.6330 c3        1 RAM      0.086100
      5 C5          0.3100   -0.0680    1.4670 c3        1 RAM      0.150100
      6 C6          0.2680    0.6900    2.7780 c3        1 RAM     -0.088100
      7 O1          2.0630   -1.4540   -0.3410 oh        1 RAM     -0.627800
      8 O2          0.1620    1.1710   -1.9480 oh        1 RAM     -0.600800
      9 O3         -2.0050   -0.3880   -1.4770 oh        1 RAM     -0.596800
     10 O4         -2.0580   -0.3170    1.3840 oh        1 RAM     -0.595800
     11 O5          1.4550    0.4230    0.7580 os        1 RAM     -0.443600
     12 H1          2.4810    0.5120   -0.9690 h2        1 RAM      0.067700
     13 H2          0.6220   -0.8380   -2.3090 h1        1 RAM      0.072700
     14 H3         -0.7880   -1.6910   -0.5230 h1        1 RAM      0.102700
     15 H4         -1.0940    1.2700    0.4380 h1        1 RAM      0.061700
     16 H5          0.4390   -1.1720    1.6430 h1        1 RAM      0.058700
     17 H61         1.1660    0.4470    3.3920 hc        1 RAM      0.052367
     18 H62         0.2510    1.7900    2.5920 hc        1 RAM      0.052367
     19 H63        -0.6570    0.3960    3.3300 hc        1 RAM      0.052367
     20 HO1         2.7400   -1.4540    0.3490 ho        1 RAM      0.426000
     21 HO2         0.9130    1.4220   -2.5000 ho        1 RAM      0.414000
     22 HO3        -2.0050    0.5290   -1.7840 ho        1 RAM      0.421000
     23 HO4        -2.7930   -0.4130    0.7620 ho        1 RAM      0.419000
@<TRIPOS>BOND
     1    1    2 1   
     2    1    7 1   
     3    1   11 1   
     4    1   12 1   
     5    2    3 1   
     6    2    8 1   
     7    2   13 1   
     8    3    4 1   
     9    3    9 1   
    10    3   14 1   
    11    4    5 1   
    12    4   10 1   
    13    4   15 1   
    14    5    6 1   
    15    5   11 1   
    16    5   16 1   
    17    6   17 1   
    18    6   18 1   
    19    6   19 1   
    20    7   20 1   
    21    8   21 1   
    22    9   22 1   
    23   10   23 1   
@<TRIPOS>SUBSTRUCTURE
     1 RAM         1 TEMP              0 ****  ****    0 ROOT
