@<TRIPOS>MOLECULE
RAN
   36    36     1     0     0
SMALL
bcc


@<TRIPOS>ATOM
      1 C1          0.0000    0.0000    0.0000 c3        1 RAN      0.381900
      2 O1         -0.4740   -1.1530    0.6980 oh        1 RAN     -0.619800
      3 C2          1.5300    0.0000    0.0000 c3        1 RAN     -0.074500
      4 N2          2.0230   -1.2000   -0.6910 ny        1 RAN     -0.202000
      5 C7          2.1670   -0.8420   -2.1070 c3        1 RAN      0.211300
      6 O7          0.9450   -1.1150   -2.7950 oh        1 RAN     -0.586800
      7 C8          3.2980   -1.6660   -2.7290 c3        1 RAN     -0.045100
      8 C3          2.0320    0.0000    1.4480 c3        1 RAN      0.150100
      9 O3          3.4510    0.1530    1.4700 oh        1 RAN     -0.610800
     10 C4          1.3760    1.1690    2.1940 c3        1 RAN      0.145100
     11 O4          1.7120    1.1000    3.5800 oh        1 RAN     -0.563800
     12 C5         -0.1420    1.0790    2.0270 c3        1 RAN      0.122100
     13 O5         -0.4840    1.1740    0.6470 os        1 RAN     -0.339600
     14 C6         -0.8050    2.2240    2.7950 c3        1 RAN      0.239400
     15 O6         -2.2230    2.1400    2.6480 os        1 RAN     -0.450200
     16 P          -2.8510    3.3680    3.4780 p5        1 RAN      0.734900
     17 O1P        -4.4560    3.3340    3.3540 o         1 RAN     -0.646167
     18 O2P        -2.4300    3.2420    5.0240 o         1 RAN     -0.646167
     19 O3P        -2.3410    4.6440    2.9290 o         1 RAN     -0.646167
     20 H1         -0.3580   -0.0190   -1.0220 h2        1 RAN      0.024700
     21 HO1        -1.2750   -1.4540    0.3010 ho        1 RAN      0.417000
     22 H2          1.8900    0.8880   -0.5060 hx        1 RAN      0.086700
     23 HN2         2.9090   -1.4720   -0.3140 hn        1 RAN      0.232300
     24 H7          2.4010    0.2130   -2.1910 hx        1 RAN      0.045700
     25 HO7         1.0380   -0.8850   -3.7050 ho        1 RAN      0.414000
     26 H81         3.0820   -2.7210   -2.6110 hc        1 RAN      0.020033
     27 H82         4.2310   -1.4310   -2.2330 hc        1 RAN      0.020033
     28 H83         3.3790   -1.4300   -3.7830 hc        1 RAN      0.020033
     29 H3          1.7560   -0.9330    1.9250 h1        1 RAN      0.030700
     30 HO3         3.8160   -0.3890    2.1500 ho        1 RAN      0.403000
     31 H4          1.7290    2.1040    1.7770 h1        1 RAN      0.024700
     32 HO4         2.3740    1.7430    3.7760 ho        1 RAN      0.391000
     33 H5         -0.4890    0.1300    2.4170 h1        1 RAN      0.044700
     34 H61        -0.5460    2.1510    3.8450 h1        1 RAN      0.018200
     35 H62        -0.4560    3.1710    2.4030 h1        1 RAN      0.018200
     36 H22         1.3650   -1.9470   -0.5900 hn        1 RAN      0.232300
@<TRIPOS>BOND
     1    1    2 1   
     2    1    3 1   
     3    1   13 1   
     4    1   20 1   
     5    2   21 1   
     6    3    4 1   
     7    3    8 1   
     8    3   22 1   
     9    4    5 1   
    10    4   23 1   
    11    4   36 1   
    12    5    6 1   
    13    5    7 1   
    14    5   24 1   
    15    6   25 1   
    16    7   26 1   
    17    7   27 1   
    18    7   28 1   
    19    8    9 1   
    20    8   10 1   
    21    8   29 1   
    22    9   30 1   
    23   10   11 1   
    24   10   12 1   
    25   10   31 1   
    26   11   32 1   
    27   12   13 1   
    28   12   14 1   
    29   12   33 1   
    30   14   15 1   
    31   14   34 1   
    32   14   35 1   
    33   15   16 1   
    34   16   17 1   
    35   16   18 1   
    36   16   19 1   
@<TRIPOS>SUBSTRUCTURE
     1 RAN         1 TEMP              0 ****  ****    0 ROOT
