@<TRIPOS>MOLECULE
RAN
   35    35     1     0     0
SMALL
bcc


@<TRIPOS>ATOM
      1 C1          0.3250    0.3360   -0.4900 c3        1 RAN      0.316900
      2 O1         -0.5140   -0.8000   -0.3720 oh        1 RAN     -0.676800
      3 C2          1.7800    0.0460   -0.0210 c3        1 RAN      0.131500
      4 N2          2.4240   -1.0870   -0.6630 n3        1 RAN     -0.848200
      5 C7          2.2550   -1.2290   -2.0940 c3        1 RAN      0.384300
      6 O7          1.1500   -2.0550   -2.5030 oh        1 RAN     -0.672800
      7 C8          3.4750   -1.8940   -2.7520 c3        1 RAN     -0.079100
      8 C3          1.7400   -0.0640    1.5150 c3        1 RAN      0.052100
      9 O3          3.0270   -0.3240    2.0400 oh        1 RAN     -0.640800
     10 C4          1.1860    1.2900    2.1180 c3        1 RAN      0.367800
     11 O4          1.3110    1.2940    3.4260 o         1 RAN     -0.864500
     12 C5         -0.2700    1.4160    1.5960 c3        1 RAN      0.041100
     13 O5         -0.3140    1.4000    0.1490 os        1 RAN     -0.446600
     14 C6         -0.9020    2.7570    2.0030 c3        1 RAN      0.199400
     15 O6         -2.1690    2.5540    2.5500 os        1 RAN     -0.592200
     16 P          -2.3910    3.0510    4.1150 p5        1 RAN      1.438800
     17 O1P        -1.7290    4.3700    4.2440 o         1 RAN     -0.856500
     18 O2P        -3.8110    2.8210    4.4630 o         1 RAN     -0.856500
     19 O3P        -1.4730    1.9300    4.8430 oh        1 RAN     -0.811400
     20 H1          0.3030    0.5950   -1.5910 h2        1 RAN      0.048700
     21 HO1        -0.7550   -0.8980    0.5570 ho        1 RAN      0.428000
     22 H2          2.3920    0.9570   -0.2920 h1        1 RAN      0.064700
     23 HN2         2.2260   -1.9400   -0.1810 hn        1 RAN      0.375800
     24 H7          2.1130   -0.2020   -2.5510 h2        1 RAN      0.030700
     25 HO7         0.3540   -1.7520   -2.0460 ho        1 RAN      0.429000
     26 H81         3.6400   -2.9140   -2.3330 hc        1 RAN      0.030700
     27 H82         3.2880   -1.9830   -3.8480 hc        1 RAN      0.030700
     28 H83         4.3820   -1.2720   -2.5760 hc        1 RAN      0.030700
     29 H3          1.0740   -0.9220    1.8110 h1        1 RAN      0.006700
     30 HO3         3.0700    0.1940    2.8650 ho        1 RAN      0.430000
     31 H4          1.7830    2.1120    1.5950 h1        1 RAN     -0.077300
     32 HO4        -0.5970    1.8060    4.4730 ho        1 RAN      0.473000
     33 H5         -0.9000    0.5710    1.9810 h1        1 RAN      0.037700
     34 H61        -0.2300    3.2700    2.7480 h1        1 RAN      0.036700
     35 H62        -1.0080    3.4030    1.0850 h1        1 RAN      0.036700
@<TRIPOS>BOND
     1    1    2 1   
     2    1    3 1   
     3    1   13 1   
     4    1   20 1   
     5    2   21 1   
     6    3    4 1   
     7    3    8 1   
     8    3   22 1   
     9    4    5 1   
    10    4   23 1   
    11    5    6 1   
    12    5    7 1   
    13    5   24 1   
    14    6   25 1   
    15    7   26 1   
    16    7   27 1   
    17    7   28 1   
    18    8    9 1   
    19    8   10 1   
    20    8   29 1   
    21    9   30 1   
    22   10   11 1   
    23   10   12 1   
    24   10   31 1   
    25   12   13 1   
    26   12   14 1   
    27   12   33 1   
    28   14   15 1   
    29   14   34 1   
    30   14   35 1   
    31   15   16 1   
    32   16   17 1   
    33   16   18 1   
    34   16   19 1   
    35   19   32 1   
@<TRIPOS>SUBSTRUCTURE
     1 RAN         1 TEMP              0 ****  ****    0 ROOT
