@<TRIPOS>MOLECULE
RAN
   35    35     1     0     0
SMALL
bcc


@<TRIPOS>ATOM
      1 C1          1.0420    0.3490    1.7460 c3        1 RAN      0.312900
      2 O1          1.6640   -0.9240    1.8350 oh        1 RAN     -0.680800
      3 C2         -0.3270    0.3600    2.4900 c3        1 RAN      0.131500
      4 N2         -0.2610   -0.1710    3.8430 n3        1 RAN     -0.831200
      5 C7          0.6650    0.4620    4.7560 c3        1 RAN      0.376300
      6 O7          2.0740    0.2790    4.5150 oh        1 RAN     -0.672800
      7 C8          0.4210    0.0160    6.2080 c3        1 RAN     -0.102100
      8 C3         -1.3410   -0.3890    1.6070 c3        1 RAN      0.055100
      9 O3         -2.6270   -0.3770    2.1950 oh        1 RAN     -0.639800
     10 C4         -1.4040    0.3010    0.1840 c3        1 RAN      0.367800
     11 O4         -2.3960   -0.1940   -0.5220 o         1 RAN     -0.865500
     12 C5          0.0060    0.1070   -0.4310 c3        1 RAN      0.041100
     13 O5          1.0220    0.7150    0.4000 os        1 RAN     -0.445600
     14 C6          0.1320    0.8010   -1.7960 c3        1 RAN      0.199400
     15 O6          0.6880   -0.0670   -2.7360 os        1 RAN     -0.592200
     16 P          -0.2420   -0.4280   -4.0580 p5        1 RAN      1.438800
     17 O1P        -0.8630    0.8400   -4.5070 o         1 RAN     -0.857000
     18 O2P         0.5610   -1.2940   -4.9500 o         1 RAN     -0.857000
     19 O3P        -1.3660   -1.3270   -3.3110 oh        1 RAN     -0.811400
     20 H1          1.7640    1.0640    2.2430 h2        1 RAN      0.065700
     21 HO1         1.2880   -1.4860    1.1470 ho        1 RAN      0.425000
     22 H2         -0.6550    1.4360    2.5700 h1        1 RAN      0.066700
     23 HN2        -0.1290   -1.1640    3.8210 hn        1 RAN      0.362800
     24 H7          0.5240    1.5830    4.6860 h2        1 RAN      0.057700
     25 HO7         2.2090   -0.4760    3.9290 ho        1 RAN      0.425000
     26 H81         1.1520    0.5400    6.8680 hc        1 RAN      0.029367
     27 H82        -0.6160    0.2760    6.5210 hc        1 RAN      0.029367
     28 H83         0.5710   -1.0840    6.3150 hc        1 RAN      0.029367
     29 H3         -1.0230   -1.4630    1.5000 h1        1 RAN      0.006700
     30 HO3        -3.2430   -0.2810    1.4450 ho        1 RAN      0.429000
     31 H4         -1.5060    1.4180    0.4010 h1        1 RAN     -0.078300
     32 HO4        -1.7460   -0.9420   -2.5190 ho        1 RAN      0.473000
     33 H5          0.2400   -0.9850   -0.5420 h1        1 RAN      0.035700
     34 H61        -0.8880    1.1420   -2.1320 h1        1 RAN      0.037200
     35 H62         0.8100    1.6960   -1.6900 h1        1 RAN      0.037200
@<TRIPOS>BOND
     1    1    2 1   
     2    1    3 1   
     3    1   13 1   
     4    1   20 1   
     5    2   21 1   
     6    3    4 1   
     7    3    8 1   
     8    3   22 1   
     9    4    5 1   
    10    4   23 1   
    11    5    6 1   
    12    5    7 1   
    13    5   24 1   
    14    6   25 1   
    15    7   26 1   
    16    7   27 1   
    17    7   28 1   
    18    8    9 1   
    19    8   10 1   
    20    8   29 1   
    21    9   30 1   
    22   10   11 1   
    23   10   12 1   
    24   10   31 1   
    25   12   13 1   
    26   12   14 1   
    27   12   33 1   
    28   14   15 1   
    29   14   34 1   
    30   14   35 1   
    31   15   16 1   
    32   16   17 1   
    33   16   18 1   
    34   16   19 1   
    35   19   32 1   
@<TRIPOS>SUBSTRUCTURE
     1 RAN         1 TEMP              0 ****  ****    0 ROOT
