@<TRIPOS>MOLECULE
RAO
   26    26     1     0     0
SMALL
bcc


@<TRIPOS>ATOM
      1 C1         -0.8990   -0.2570    1.1390 c3        1 RAO      0.301900
      2 O1         -0.8180    0.9860    1.8150 os        1 RAO     -0.448600
      3 C7         -0.5850    0.8650    3.2110 c3        1 RAO      0.120700
      4 O2         -1.8110   -1.1670   -0.9240 oh        1 RAO     -0.599800
      5 C2         -1.4370    0.0380   -0.2750 c3        1 RAO      0.095100
      6 C3         -0.3640    0.6950   -1.1520 c3        1 RAO      0.115100
      7 O3         -0.7720    0.7900   -2.5010 oh        1 RAO     -0.597800
      8 C4          0.9590   -0.0820   -1.0500 c3        1 RAO      0.086100
      9 O4          1.9880    0.5850   -1.7600 oh        1 RAO     -0.595800
     10 C5          1.3930   -0.1640    0.4220 c3        1 RAO      0.151100
     11 O5          0.3830   -0.8370    1.1850 os        1 RAO     -0.433600
     12 C6          2.6590   -0.9800    0.5860 c3        1 RAO     -0.088100
     13 HC1        -1.5590   -0.9920    1.6840 h2        1 RAO      0.071700
     14 HC71       -0.4860    1.9220    3.5650 h1        1 RAO      0.041033
     15 HC72       -1.4530    0.3630    3.7050 h1        1 RAO      0.041033
     16 HC73        0.3540    0.2910    3.4030 h1        1 RAO      0.041033
     17 HO2        -2.5190   -1.5650   -0.4020 ho        1 RAO      0.413000
     18 HC2        -2.3270    0.7210   -0.1920 h1        1 RAO      0.069700
     19 HC3        -0.2140    1.7610   -0.8170 h1        1 RAO      0.102700
     20 HO3        -1.0540   -0.0920   -2.7830 ho        1 RAO      0.420000
     21 HC4         0.8200   -1.1170   -1.4710 h1        1 RAO      0.059700
     22 HO4         1.6020    0.8640   -2.6030 ho        1 RAO      0.418000
     23 HC5         1.5270    0.8750    0.8310 h1        1 RAO      0.062700
     24 HC61        2.9890   -0.9670    1.6510 hc        1 RAO      0.051033
     25 HC62        2.4830   -2.0390    0.2800 hc        1 RAO      0.051033
     26 HC63        3.4540   -0.5370   -0.0610 hc        1 RAO      0.051033
@<TRIPOS>BOND
     1    1    2 1   
     2    1    5 1   
     3    1   11 1   
     4    1   13 1   
     5    2    3 1   
     6    3   14 1   
     7    3   15 1   
     8    3   16 1   
     9    4    5 1   
    10    4   17 1   
    11    5    6 1   
    12    5   18 1   
    13    6    7 1   
    14    6    8 1   
    15    6   19 1   
    16    7   20 1   
    17    8    9 1   
    18    8   10 1   
    19    8   21 1   
    20    9   22 1   
    21   10   11 1   
    22   10   12 1   
    23   10   23 1   
    24   12   24 1   
    25   12   25 1   
    26   12   26 1   
@<TRIPOS>SUBSTRUCTURE
     1 RAO         1 TEMP              0 ****  ****    0 ROOT
