@<TRIPOS>MOLECULE
RAR
   66    69     1     0     0
SMALL
bcc


@<TRIPOS>ATOM
      1 N01        -2.9020    2.8030    0.4910 nh        1 RAR     -0.937500
      2 C02        -4.2040    2.7830    0.0060 ca        1 RAR      0.719200
      3 C03        -4.5430    1.9520   -1.1160 ca        1 RAR     -0.431900
      4 C04        -3.5630    1.0630   -1.7820 c3        1 RAR      0.032200
      5 C05        -3.1050   -0.0720   -0.9230 ca        1 RAR     -0.067300
      6 C06        -4.0420   -0.9660   -0.3930 ca        1 RAR     -0.174000
      7 C07        -3.6130   -2.0340    0.3970 ca        1 RAR      0.100100
      8 O08        -4.4580   -2.9730    0.9550 os        1 RAR     -0.321900
      9 C09        -5.8540   -2.7270    0.8120 c3        1 RAR      0.111700
     10 C10        -2.2350   -2.2200    0.6590 ca        1 RAR      0.093100
     11 O11        -1.7940   -3.1890    1.5430 os        1 RAR     -0.330900
     12 C12        -1.9740   -4.5310    1.0870 c3        1 RAR      0.115700
     13 C13        -1.2910   -1.3330    0.1050 ca        1 RAR     -0.054800
     14 C14         0.1230   -1.5380    0.3730 ce        1 RAR     -0.038200
     15 C15         1.1210   -0.9950   -0.3420 cf        1 RAR     -0.210200
     16 C16         2.5290   -1.2850    0.0150 c         1 RAR      0.691300
     17 N17         3.5380   -0.3390   -0.3140 n         1 RAR     -0.242800
     18 N18         3.1870    0.8750   -0.7660 n2        1 RAR     -0.439300
     19 C19         4.0130    1.8830   -0.6650 ce        1 RAR      0.378800
     20 C20         4.9400   -0.6780    0.0290 c3        1 RAR      0.129000
     21 C21         5.6620   -1.4180   -1.1150 c3        1 RAR     -0.083400
     22 C22         5.1030   -2.8020   -1.3540 c3        1 RAR     -0.083400
     23 C23         5.9490   -3.5700   -2.3360 c3        1 RAR     -0.092100
     24 C24         5.7610    0.5400    0.3840 ca        1 RAR     -0.080300
     25 C25         5.3200    1.8150   -0.0180 ca        1 RAR     -0.157900
     26 C26         6.0930    2.9450    0.2560 ca        1 RAR     -0.100000
     27 C27         7.3000    2.8060    0.9390 ca        1 RAR     -0.130000
     28 C28         7.7300    1.5440    1.3540 ca        1 RAR     -0.117000
     29 C29         6.9640    0.4110    1.0800 ca        1 RAR     -0.120000
     30 O30         2.8700   -2.3410    0.5800 o         1 RAR     -0.589100
     31 C31        -1.7460   -0.2580   -0.6740 ca        1 RAR     -0.149000
     32 C32        -5.8630    2.0500   -1.5850 ca        1 RAR      0.488200
     33 N33        -6.7970    2.8570   -1.0660 nb        1 RAR     -0.782000
     34 C34        -6.3850    3.6470    0.0070 ca        1 RAR      0.900900
     35 N35        -7.2950    4.5800    0.5090 nh        1 RAR     -0.932500
     36 N36        -5.1300    3.6110    0.5860 nb        1 RAR     -0.821000
     37 HN01       -2.3700    1.9780    0.3270 hn        1 RAR      0.423800
     38 HN0A       -2.7390    3.2600    1.3590 hn        1 RAR      0.423800
     39 H04        -4.0230    0.6300   -2.7140 hc        1 RAR      0.059200
     40 H04A       -2.6750    1.6710   -2.1130 hc        1 RAR      0.059200
     41 H06        -5.1110   -0.8060   -0.5980 ha        1 RAR      0.147000
     42 H09        -6.1300   -1.7370    1.2500 h1        1 RAR      0.047367
     43 H09A       -6.1520   -2.7780   -0.2640 h1        1 RAR      0.047367
     44 H09B       -6.3230   -3.5610    1.3920 h1        1 RAR      0.047367
     45 H12        -3.0580   -4.7510    0.9330 h1        1 RAR      0.047033
     46 H12A       -1.4010   -4.6990    0.1440 h1        1 RAR      0.047033
     47 H12B       -1.5570   -5.1460    1.9230 h1        1 RAR      0.047033
     48 H14         0.3480   -2.2090    1.2280 ha        1 RAR      0.166000
     49 H15         0.9450   -0.3470   -1.2140 ha        1 RAR      0.157000
     50 H19         3.6680    2.8420   -1.0890 h4        1 RAR      0.041800
     51 H20         4.9050   -1.3680    0.9280 h1        1 RAR      0.094700
     52 H21         5.6080   -0.8160   -2.0590 hc        1 RAR      0.050200
     53 H21A        6.7450   -1.4960   -0.8270 hc        1 RAR      0.050200
     54 H22         5.0440   -3.3580   -0.3800 hc        1 RAR      0.052200
     55 H22A        4.0520   -2.7250   -1.7400 hc        1 RAR      0.052200
     56 H23         5.5110   -4.5820   -2.5120 hc        1 RAR      0.031700
     57 H23A        6.0030   -3.0340   -3.3150 hc        1 RAR      0.031700
     58 H23B        6.9890   -3.6980   -1.9490 hc        1 RAR      0.031700
     59 H26         5.7450    3.9390   -0.0630 ha        1 RAR      0.137000
     60 H27         7.9130    3.6930    1.1540 ha        1 RAR      0.136000
     61 H28         8.6800    1.4420    1.9000 ha        1 RAR      0.136000
     62 H29         7.3060   -0.5820    1.4080 ha        1 RAR      0.140000
     63 H31        -1.0140    0.4490   -1.0970 ha        1 RAR      0.143000
     64 H32        -6.1990    1.4350   -2.4420 h4        1 RAR      0.020100
     65 HN35       -8.2510    4.4430    0.2820 hn        1 RAR      0.429300
     66 HN3A       -7.0960    4.9730    1.3990 hn        1 RAR      0.429300
@<TRIPOS>BOND
     1    1    2 1   
     2    1   37 1   
     3    1   38 1   
     4    2    3 ar  
     5    2   36 ar  
     6    3    4 1   
     7    3   32 ar  
     8    4    5 1   
     9    4   39 1   
    10    4   40 1   
    11    5    6 ar  
    12    5   31 ar  
    13    6    7 ar  
    14    6   41 1   
    15    7    8 1   
    16    7   10 ar  
    17    8    9 1   
    18    9   42 1   
    19    9   43 1   
    20    9   44 1   
    21   10   11 1   
    22   10   13 ar  
    23   11   12 1   
    24   12   45 1   
    25   12   46 1   
    26   12   47 1   
    27   13   14 1   
    28   13   31 ar  
    29   14   15 2   
    30   14   48 1   
    31   15   16 1   
    32   15   49 1   
    33   16   17 1   
    34   16   30 2   
    35   17   18 1   
    36   17   20 1   
    37   18   19 2   
    38   19   25 1   
    39   19   50 1   
    40   20   21 1   
    41   20   24 1   
    42   20   51 1   
    43   21   22 1   
    44   21   52 1   
    45   21   53 1   
    46   22   23 1   
    47   22   54 1   
    48   22   55 1   
    49   23   56 1   
    50   23   57 1   
    51   23   58 1   
    52   24   25 ar  
    53   24   29 ar  
    54   25   26 ar  
    55   26   27 ar  
    56   26   59 1   
    57   27   28 ar  
    58   27   60 1   
    59   28   29 ar  
    60   28   61 1   
    61   29   62 1   
    62   31   63 1   
    63   32   33 ar  
    64   32   64 1   
    65   33   34 ar  
    66   34   35 1   
    67   34   36 ar  
    68   35   65 1   
    69   35   66 1   
@<TRIPOS>SUBSTRUCTURE
     1 RAR         1 TEMP              0 ****  ****    0 ROOT
