@<TRIPOS>MOLECULE
RAR
   68    71     1     0     0
SMALL
bcc


@<TRIPOS>ATOM
      1 N01        -1.8300   -1.0010    1.7940 n4        1 RAR     -0.832300
      2 C02        -0.9350    0.0880    2.2060 ca        1 RAR      0.521200
      3 C03        -0.1900   -0.0040    3.4100 ca        1 RAR     -0.168900
      4 C04        -0.2360   -1.1430    4.3610 c3        1 RAR     -0.016800
      5 C05        -0.0960   -2.4760    3.7150 ca        1 RAR     -0.179300
      6 C06         1.1660   -2.9580    3.3440 ca        1 RAR     -0.153000
      7 C07         1.2970   -4.2370    2.7990 ca        1 RAR      0.080100
      8 O08         2.5040   -4.7590    2.3920 os        1 RAR     -0.320900
      9 C09         3.6780   -4.1840    2.9690 c3        1 RAR      0.106700
     10 C10         0.1500   -5.0520    2.5940 ca        1 RAR      0.182100
     11 O11         0.1300   -6.2880    2.0160 os        1 RAR     -0.309900
     12 C12         1.3510   -7.0310    1.9270 c3        1 RAR      0.118700
     13 C13        -1.1210   -4.5470    2.9580 ca        1 RAR     -0.082800
     14 C14        -2.3160   -5.3480    2.7210 ce        1 RAR     -0.016200
     15 C15        -3.4720   -4.8780    2.2410 cf        1 RAR     -0.231200
     16 C16        -3.7320   -3.4720    1.8700 c         1 RAR      0.680300
     17 N17        -3.5110   -3.0070    0.5150 n         1 RAR     -0.273800
     18 N18        -2.5260   -3.6400   -0.1760 n2        1 RAR     -0.556300
     19 C19        -2.7530   -4.1650   -1.3500 ce        1 RAR      0.484800
     20 C20        -4.7680   -2.5900   -0.1800 c3        1 RAR      0.103000
     21 C21        -4.6880   -1.1100   -0.6000 c3        1 RAR     -0.088400
     22 C22        -5.0540   -0.1870    0.5430 c3        1 RAR     -0.098400
     23 C23        -4.6490    1.2360    0.2570 c3        1 RAR     -0.098100
     24 C24        -5.0860   -3.4340   -1.3900 ca        1 RAR     -0.096300
     25 C25        -4.0640   -4.1930   -1.9940 ca        1 RAR     -0.205900
     26 C26        -4.3300   -4.9570   -3.1320 ca        1 RAR     -0.071000
     27 C27        -5.6200   -4.9710   -3.6630 ca        1 RAR     -0.115000
     28 C28        -6.6370   -4.2300   -3.0590 ca        1 RAR     -0.083000
     29 C29        -6.3740   -3.4610   -1.9230 ca        1 RAR     -0.120000
     30 O30        -4.0800   -2.5940    2.6830 o         1 RAR     -0.601100
     31 C31        -1.2190   -3.2870    3.5580 ca        1 RAR     -0.163000
     32 C32         0.6380    1.1250    3.7080 ca        1 RAR      0.476200
     33 N33         0.7300    2.2040    2.9280 nb        1 RAR     -0.614000
     34 C34        -0.0400    2.1780    1.7790 ca        1 RAR      0.714900
     35 N35         0.0520    3.3790    0.9000 n4        1 RAR     -0.813300
     36 N36        -0.8660    1.1770    1.3750 nb        1 RAR     -0.653000
     37 HN01       -2.5140   -1.2020    2.5540 hn        1 RAR      0.506467
     38 HN0A       -1.2720   -1.8630    1.6310 hn        1 RAR      0.506467
     39 H04        -1.2140   -1.0880    4.9270 hc        1 RAR      0.110700
     40 H04A        0.5800   -1.0210    5.1310 hc        1 RAR      0.110700
     41 H06         2.0600   -2.3370    3.5050 ha        1 RAR      0.147000
     42 H09         3.5940   -4.1330    4.0810 h1        1 RAR      0.059367
     43 H09A        4.4870   -4.8960    2.6610 h1        1 RAR      0.059367
     44 H09B        3.8610   -3.1720    2.5340 h1        1 RAR      0.059367
     45 H12         0.9950   -8.0480    1.6190 h1        1 RAR      0.068700
     46 H12A        2.0100   -6.5810    1.1450 h1        1 RAR      0.068700
     47 H12B        1.8680   -7.0660    2.9150 h1        1 RAR      0.068700
     48 H14        -2.2030   -6.4290    2.9390 ha        1 RAR      0.180000
     49 H15        -4.3440   -5.5400    2.0840 ha        1 RAR      0.188000
     50 H19        -1.8840   -4.6060   -1.8760 h4        1 RAR      0.056800
     51 H20        -5.6240   -2.6910    0.5560 h1        1 RAR      0.090700
     52 H21        -5.4100   -0.9510   -1.4460 hc        1 RAR      0.059200
     53 H21A       -3.6680   -0.8640   -0.9960 hc        1 RAR      0.059200
     54 H22        -6.1640   -0.2290    0.7110 hc        1 RAR      0.050700
     55 H22A       -4.5810   -0.5400    1.4990 hc        1 RAR      0.050700
     56 H23        -3.5380    1.3210    0.1600 hc        1 RAR      0.034033
     57 H23A       -5.1100    1.5890   -0.6980 hc        1 RAR      0.034033
     58 H23B       -4.9890    1.9110    1.0800 hc        1 RAR      0.034033
     59 H26        -3.5290   -5.5490   -3.6010 ha        1 RAR      0.153000
     60 H27        -5.8370   -5.5730   -4.5600 ha        1 RAR      0.162000
     61 H28        -7.6560   -4.2510   -3.4790 ha        1 RAR      0.161000
     62 H29        -7.1820   -2.8800   -1.4520 ha        1 RAR      0.148000
     63 H31        -2.1990   -2.9730    3.9610 ha        1 RAR      0.160000
     64 H32         1.2570    1.1460    4.6360 h4        1 RAR      0.105100
     65 HN35       -0.5520    3.2730    0.0720 hn        1 RAR      0.496467
     66 HN3A       -0.2420    4.2100    1.4370 hn        1 RAR      0.496467
     67 H013       -2.3680   -0.7750    0.9350 hn        1 RAR      0.506467
     68 H353        1.0320    3.5010    0.6000 hn        1 RAR      0.496467
@<TRIPOS>BOND
     1    1    2 1   
     2    1   37 1   
     3    1   38 1   
     4    1   67 1   
     5    2    3 ar  
     6    2   36 ar  
     7    3    4 1   
     8    3   32 ar  
     9    4    5 1   
    10    4   39 1   
    11    4   40 1   
    12    5    6 ar  
    13    5   31 ar  
    14    6    7 ar  
    15    6   41 1   
    16    7    8 1   
    17    7   10 ar  
    18    8    9 1   
    19    9   42 1   
    20    9   43 1   
    21    9   44 1   
    22   10   11 1   
    23   10   13 ar  
    24   11   12 1   
    25   12   45 1   
    26   12   46 1   
    27   12   47 1   
    28   13   14 1   
    29   13   31 ar  
    30   14   15 2   
    31   14   48 1   
    32   15   16 1   
    33   15   49 1   
    34   16   17 1   
    35   16   30 2   
    36   17   18 1   
    37   17   20 1   
    38   18   19 2   
    39   19   25 1   
    40   19   50 1   
    41   20   21 1   
    42   20   24 1   
    43   20   51 1   
    44   21   22 1   
    45   21   52 1   
    46   21   53 1   
    47   22   23 1   
    48   22   54 1   
    49   22   55 1   
    50   23   56 1   
    51   23   57 1   
    52   23   58 1   
    53   24   25 ar  
    54   24   29 ar  
    55   25   26 ar  
    56   26   27 ar  
    57   26   59 1   
    58   27   28 ar  
    59   27   60 1   
    60   28   29 ar  
    61   28   61 1   
    62   29   62 1   
    63   31   63 1   
    64   32   33 ar  
    65   32   64 1   
    66   33   34 ar  
    67   34   35 1   
    68   34   36 ar  
    69   35   65 1   
    70   35   66 1   
    71   35   68 1   
@<TRIPOS>SUBSTRUCTURE
     1 RAR         1 TEMP              0 ****  ****    0 ROOT
