@<TRIPOS>MOLECULE
RAR
   66    69     1     0     0
SMALL
bcc


@<TRIPOS>ATOM
      1 N01         0.7650   -1.0710   -0.4870 nh        1 RAR     -0.938500
      2 C02         1.1380   -0.0950    0.4260 ca        1 RAR      0.720200
      3 C03         0.3820    0.0890    1.6350 ca        1 RAR     -0.429900
      4 C04        -0.7820   -0.7560    1.9860 c3        1 RAR      0.029200
      5 C05        -0.4240   -2.1750    2.2850 ca        1 RAR     -0.064300
      6 C06         0.5010   -2.4660    3.2930 ca        1 RAR     -0.176000
      7 C07         0.8160   -3.7960    3.5860 ca        1 RAR      0.102100
      8 O08         1.7100   -4.1830    4.5650 os        1 RAR     -0.322900
      9 C09         2.4060   -3.1330    5.2300 c3        1 RAR      0.111700
     10 C10         0.1960   -4.8480    2.8730 ca        1 RAR      0.089100
     11 O11         0.5770   -6.1670    3.0520 os        1 RAR     -0.334900
     12 C12         0.2350   -6.7090    4.3300 c3        1 RAR      0.115700
     13 C13        -0.7510   -4.5520    1.8740 ca        1 RAR     -0.048800
     14 C14        -1.3710   -5.6410    1.1320 ce        1 RAR     -0.048200
     15 C15        -2.6420   -5.7340    0.7330 cf        1 RAR     -0.190200
     16 C16        -3.7310   -4.7730    1.0330 c         1 RAR      0.691300
     17 N17        -4.2360   -3.9720   -0.0270 n         1 RAR     -0.250800
     18 N18        -3.7400   -4.1350   -1.2640 n2        1 RAR     -0.439300
     19 C19        -4.4420   -3.7840   -2.3100 ce        1 RAR      0.380800
     20 C20        -5.4260   -3.1290    0.2410 c3        1 RAR      0.129000
     21 C21        -5.0530   -1.7100    0.7150 c3        1 RAR     -0.084400
     22 C22        -4.4690   -1.7000    2.1090 c3        1 RAR     -0.087400
     23 C23        -4.3030   -0.2930    2.6220 c3        1 RAR     -0.094100
     24 C24        -6.3230   -2.9930   -0.9680 ca        1 RAR     -0.081300
     25 C25        -5.8060   -3.2650   -2.2480 ca        1 RAR     -0.159900
     26 C26        -6.6030   -3.0920   -3.3810 ca        1 RAR     -0.099000
     27 C27        -7.9200   -2.6590   -3.2360 ca        1 RAR     -0.130000
     28 C28        -8.4410   -2.4060   -1.9660 ca        1 RAR     -0.116000
     29 C29        -7.6470   -2.5740   -0.8310 ca        1 RAR     -0.121000
     30 O30        -4.2490   -4.6720    2.1570 o         1 RAR     -0.571100
     31 C31        -1.0380   -3.2130    1.5820 ca        1 RAR     -0.150000
     32 C32         0.7860    1.1460    2.4640 ca        1 RAR      0.487200
     33 N33         1.8030    1.9760    2.2000 nb        1 RAR     -0.783000
     34 C34         2.4750    1.7450    1.0010 ca        1 RAR      0.898900
     35 N35         3.4720    2.6530    0.6330 nh        1 RAR     -0.930500
     36 N36         2.2020    0.7140    0.1210 nb        1 RAR     -0.822000
     37 HN01        1.3960   -1.2820   -1.2260 hn        1 RAR      0.425300
     38 HN0A        0.2550   -1.8400   -0.1150 hn        1 RAR      0.425300
     39 H04        -1.5360   -0.7230    1.1490 hc        1 RAR      0.060700
     40 H04A       -1.3000   -0.3290    2.8920 hc        1 RAR      0.060700
     41 H06         0.9770   -1.6380    3.8380 ha        1 RAR      0.146000
     42 H09         2.9890   -2.5190    4.5020 h1        1 RAR      0.046700
     43 H09A        3.0930   -3.6800    5.9250 h1        1 RAR      0.046700
     44 H09B        1.6940   -2.4920    5.8040 h1        1 RAR      0.046700
     45 H12        -0.8710   -6.6790    4.4810 h1        1 RAR      0.046367
     46 H12A        0.7580   -6.1520    5.1440 h1        1 RAR      0.046367
     47 H12B        0.6020   -7.7640    4.2700 h1        1 RAR      0.046367
     48 H14        -0.6780   -6.4770    0.9090 ha        1 RAR      0.151000
     49 H15        -2.9850   -6.6060    0.1490 ha        1 RAR      0.154000
     50 H19        -3.9550   -3.9120   -3.2920 h4        1 RAR      0.042800
     51 H20        -6.0080   -3.6350    1.0730 h1        1 RAR      0.092700
     52 H21        -5.9940   -1.0970    0.7000 hc        1 RAR      0.050700
     53 H21A       -4.3340   -1.2380   -0.0040 hc        1 RAR      0.050700
     54 H22        -5.1310   -2.2860    2.8010 hc        1 RAR      0.054200
     55 H22A       -3.4710   -2.2180    2.1060 hc        1 RAR      0.054200
     56 H23        -3.6080    0.2860    1.9650 hc        1 RAR      0.032367
     57 H23A       -5.2840    0.2390    2.6510 hc        1 RAR      0.032367
     58 H23B       -3.8780   -0.3070    3.6550 hc        1 RAR      0.032367
     59 H26        -6.1930   -3.3020   -4.3800 ha        1 RAR      0.137000
     60 H27        -8.5520   -2.5190   -4.1260 ha        1 RAR      0.136000
     61 H28        -9.4840   -2.0720   -1.8570 ha        1 RAR      0.136000
     62 H29        -8.0600   -2.3720    0.1690 ha        1 RAR      0.140000
     63 H31        -1.7660   -2.9830    0.7870 ha        1 RAR      0.151000
     64 H32         0.2540    1.3440    3.4150 h4        1 RAR      0.020100
     65 HN35        3.8460    3.2220    1.3550 hn        1 RAR      0.427300
     66 HN3A        4.1010    2.3670   -0.0800 hn        1 RAR      0.427300
@<TRIPOS>BOND
     1    1    2 1   
     2    1   37 1   
     3    1   38 1   
     4    2    3 ar  
     5    2   36 ar  
     6    3    4 1   
     7    3   32 ar  
     8    4    5 1   
     9    4   39 1   
    10    4   40 1   
    11    5    6 ar  
    12    5   31 ar  
    13    6    7 ar  
    14    6   41 1   
    15    7    8 1   
    16    7   10 ar  
    17    8    9 1   
    18    9   42 1   
    19    9   43 1   
    20    9   44 1   
    21   10   11 1   
    22   10   13 ar  
    23   11   12 1   
    24   12   45 1   
    25   12   46 1   
    26   12   47 1   
    27   13   14 1   
    28   13   31 ar  
    29   14   15 2   
    30   14   48 1   
    31   15   16 1   
    32   15   49 1   
    33   16   17 1   
    34   16   30 2   
    35   17   18 1   
    36   17   20 1   
    37   18   19 2   
    38   19   25 1   
    39   19   50 1   
    40   20   21 1   
    41   20   24 1   
    42   20   51 1   
    43   21   22 1   
    44   21   52 1   
    45   21   53 1   
    46   22   23 1   
    47   22   54 1   
    48   22   55 1   
    49   23   56 1   
    50   23   57 1   
    51   23   58 1   
    52   24   25 ar  
    53   24   29 ar  
    54   25   26 ar  
    55   26   27 ar  
    56   26   59 1   
    57   27   28 ar  
    58   27   60 1   
    59   28   29 ar  
    60   28   61 1   
    61   29   62 1   
    62   31   63 1   
    63   32   33 ar  
    64   32   64 1   
    65   33   34 ar  
    66   34   35 1   
    67   34   36 ar  
    68   35   65 1   
    69   35   66 1   
@<TRIPOS>SUBSTRUCTURE
     1 RAR         1 TEMP              0 ****  ****    0 ROOT
