@<TRIPOS>MOLECULE
RAR
   66    69     1     0     0
SMALL
bcc


@<TRIPOS>ATOM
      1 N01         0.7670   -1.1020   -0.5170 nv        1 RAR     -0.938500
      2 C02         1.1580   -0.1280    0.3920 ca        1 RAR      0.720200
      3 C03         0.4130    0.0650    1.6070 ca        1 RAR     -0.429900
      4 C04        -0.7560   -0.7680    1.9700 c3        1 RAR      0.029200
      5 C05        -0.4100   -2.1910    2.2670 ca        1 RAR     -0.064300
      6 C06         0.5230   -2.4910    3.2650 ca        1 RAR     -0.176000
      7 C07         0.8270   -3.8230    3.5560 ca        1 RAR      0.102100
      8 O08         1.7280   -4.2180    4.5260 os        1 RAR     -0.322900
      9 C09         2.4410   -3.1760    5.1830 c3        1 RAR      0.111700
     10 C10         0.1880   -4.8700    2.8500 ca        1 RAR      0.089100
     11 O11         0.5570   -6.1920    3.0280 os        1 RAR     -0.334900
     12 C12         0.2230   -6.7290    4.3090 c3        1 RAR      0.115700
     13 C13        -0.7660   -4.5650    1.8620 ca        1 RAR     -0.048800
     14 C14        -1.4050   -5.6470    1.1280 ce        1 RAR     -0.048200
     15 C15        -2.6820   -5.7270    0.7430 cf        1 RAR     -0.190200
     16 C16        -3.7570   -4.7550    1.0540 c         1 RAR      0.691300
     17 N17        -4.2670   -3.9500   -0.0020 n         1 RAR     -0.250800
     18 N18        -3.7860   -4.1200   -1.2440 n2        1 RAR     -0.439300
     19 C19        -4.4970   -3.7640   -2.2820 ce        1 RAR      0.380800
     20 C20        -5.4450   -3.0950    0.2790 c3        1 RAR      0.129000
     21 C21        -5.0520   -1.6790    0.7450 c3        1 RAR     -0.084400
     22 C22        -4.4510   -1.6720    2.1320 c3        1 RAR     -0.087400
     23 C23        -4.2640   -0.2650    2.6390 c3        1 RAR     -0.094100
     24 C24        -6.3540   -2.9530   -0.9200 ca        1 RAR     -0.081300
     25 C25        -5.8560   -3.2320   -2.2050 ca        1 RAR     -0.159900
     26 C26        -6.6650   -3.0540   -3.3290 ca        1 RAR     -0.099000
     27 C27        -7.9760   -2.6070   -3.1690 ca        1 RAR     -0.130000
     28 C28        -8.4790   -2.3470   -1.8930 ca        1 RAR     -0.116000
     29 C29        -7.6730   -2.5200   -0.7680 ca        1 RAR     -0.121000
     30 O30        -4.2610   -4.6460    2.1840 o         1 RAR     -0.571100
     31 C31        -1.0420   -3.2220    1.5710 ca        1 RAR     -0.150000
     32 C32         0.8350    1.1190    2.4320 ca        1 RAR      0.487200
     33 N33         1.8580    1.9380    2.1580 nb        1 RAR     -0.783000
     34 C34         2.5180    1.6990    0.9530 ca        1 RAR      0.898900
     35 N35         3.5210    2.5960    0.5750 nv        1 RAR     -0.930500
     36 N36         2.2270    0.6700    0.0770 nb        1 RAR     -0.822000
     37 HN01        1.3890   -1.3200   -1.2610 hn        1 RAR      0.425300
     38 HN0A        0.2510   -1.8650   -0.1390 hn        1 RAR      0.425300
     39 H04        -1.2620   -0.3360    2.8800 hc        1 RAR      0.060700
     40 H04A       -1.5170   -0.7280    1.1390 hc        1 RAR      0.060700
     41 H06         1.0140   -1.6670    3.8040 ha        1 RAR      0.146000
     42 H09         3.0220   -2.5680    4.4470 h1        1 RAR      0.046700
     43 H09A        3.1300   -3.7290    5.8700 h1        1 RAR      0.046700
     44 H09B        1.7420   -2.5260    5.7630 h1        1 RAR      0.046700
     45 H12         0.5780   -7.7880    4.2470 h1        1 RAR      0.046367
     46 H12A       -0.8810   -6.6870    4.4720 h1        1 RAR      0.046367
     47 H12B        0.7600   -6.1760    5.1170 h1        1 RAR      0.046367
     48 H14        -0.7240   -6.4900    0.8970 ha        1 RAR      0.151000
     49 H15        -3.0400   -6.5960    0.1630 ha        1 RAR      0.154000
     50 H19        -4.0230   -3.8990   -3.2700 h4        1 RAR      0.042800
     51 H20        -6.0210   -3.5930    1.1180 h1        1 RAR      0.092700
     52 H21        -5.9870   -1.0560    0.7410 hc        1 RAR      0.050700
     53 H21A       -4.3370   -1.2160    0.0160 hc        1 RAR      0.050700
     54 H22        -3.4590   -2.2000    2.1180 hc        1 RAR      0.054200
     55 H22A       -5.1100   -2.2490    2.8330 hc        1 RAR      0.054200
     56 H23        -3.8270   -0.2810    3.6670 hc        1 RAR      0.032367
     57 H23A       -5.2390    0.2780    2.6790 hc        1 RAR      0.032367
     58 H23B       -3.5710    0.3050    1.9730 hc        1 RAR      0.032367
     59 H26        -6.2690   -3.2700   -4.3320 ha        1 RAR      0.137000
     60 H27        -8.6170   -2.4630   -4.0520 ha        1 RAR      0.136000
     61 H28        -9.5170   -2.0030   -1.7730 ha        1 RAR      0.136000
     62 H29        -8.0720   -2.3120    0.2360 ha        1 RAR      0.140000
     63 H31        -1.7760   -2.9860    0.7830 ha        1 RAR      0.151000
     64 H32         0.3140    1.3230    3.3870 h4        1 RAR      0.020100
     65 HN35        3.9070    3.1620    1.2940 hn        1 RAR      0.427300
     66 HN3A        4.1410    2.3030   -0.1430 hn        1 RAR      0.427300
@<TRIPOS>BOND
     1    1    2 1   
     2    1   37 1   
     3    1   38 1   
     4    2    3 ar  
     5    2   36 ar  
     6    3    4 1   
     7    3   32 ar  
     8    4    5 1   
     9    4   39 1   
    10    4   40 1   
    11    5    6 ar  
    12    5   31 ar  
    13    6    7 ar  
    14    6   41 1   
    15    7    8 1   
    16    7   10 ar  
    17    8    9 1   
    18    9   42 1   
    19    9   43 1   
    20    9   44 1   
    21   10   11 1   
    22   10   13 ar  
    23   11   12 1   
    24   12   45 1   
    25   12   46 1   
    26   12   47 1   
    27   13   14 1   
    28   13   31 ar  
    29   14   15 2   
    30   14   48 1   
    31   15   16 1   
    32   15   49 1   
    33   16   17 1   
    34   16   30 2   
    35   17   18 1   
    36   17   20 1   
    37   18   19 2   
    38   19   25 1   
    39   19   50 1   
    40   20   21 1   
    41   20   24 1   
    42   20   51 1   
    43   21   22 1   
    44   21   52 1   
    45   21   53 1   
    46   22   23 1   
    47   22   54 1   
    48   22   55 1   
    49   23   56 1   
    50   23   57 1   
    51   23   58 1   
    52   24   25 ar  
    53   24   29 ar  
    54   25   26 ar  
    55   26   27 ar  
    56   26   59 1   
    57   27   28 ar  
    58   27   60 1   
    59   28   29 ar  
    60   28   61 1   
    61   29   62 1   
    62   31   63 1   
    63   32   33 ar  
    64   32   64 1   
    65   33   34 ar  
    66   34   35 1   
    67   34   36 ar  
    68   35   65 1   
    69   35   66 1   
@<TRIPOS>SUBSTRUCTURE
     1 RAR         1 TEMP              0 ****  ****    0 ROOT
