@<TRIPOS>MOLECULE
RAS
   29    30     1     0     0
SMALL
bcc


@<TRIPOS>ATOM
      1 N10         0.0310    0.0130   -0.0350 ny        1 RAS     -0.767000
      2 C11        -0.6900   -0.5760   -1.2080 c3        1 RAS      0.151000
      3 C12        -2.1680   -0.5000   -1.0360 c2        1 RAS     -0.273200
      4 C13        -2.9500    0.2300   -1.8300 c2        1 RAS     -0.106000
      5 C9          1.5350   -0.0520   -0.1750 c3        1 RAS      0.186800
      6 C1          2.2440   -0.2160    1.2000 c3        1 RAS     -0.099400
      7 C2          3.0260    1.0760    1.4630 c3        1 RAS     -0.048100
      8 C3          2.9260    1.8630    0.2020 ca        1 RAS     -0.052300
      9 C8          2.0850    1.2270   -0.7380 ca        1 RAS     -0.190300
     10 C7          1.8970    1.7640   -2.0040 ca        1 RAS     -0.092000
     11 C4          3.5620    3.0540   -0.1190 ca        1 RAS     -0.107000
     12 C5          3.3580    3.6040   -1.3910 ca        1 RAS     -0.077000
     13 C6          2.5400    2.9650   -2.3230 ca        1 RAS     -0.124000
     14 H10        -0.2520    0.9940    0.0730 hn        1 RAS      0.448300
     15 H111       -0.3720   -1.6550   -1.3030 hx        1 RAS      0.104700
     16 H112       -0.3500   -0.0200   -2.1290 hx        1 RAS      0.104700
     17 H13        -2.5670    0.8650   -2.6430 ha        1 RAS      0.143000
     18 H9          1.7650   -0.9320   -0.8420 hx        1 RAS      0.112700
     19 H11         1.5360   -0.4290    2.0380 hc        1 RAS      0.077700
     20 H12         2.9460   -1.0850    1.1240 hc        1 RAS      0.077700
     21 H21         2.5940    1.6440    2.3270 hc        1 RAS      0.085700
     22 H22         4.0950    0.8460    1.7100 hc        1 RAS      0.085700
     23 H7          1.2730    1.2600   -2.7560 ha        1 RAS      0.133000
     24 H4          4.2210    3.5540    0.6070 ha        1 RAS      0.162000
     25 H5          3.8590    4.5490   -1.6590 ha        1 RAS      0.161000
     26 H6          2.4030    3.4050   -3.3240 ha        1 RAS      0.158000
     27 H24        -2.5880   -1.1420   -0.2430 ha        1 RAS      0.153000
     28 H23        -4.0470    0.2270   -1.7220 ha        1 RAS      0.143000
     29 H102       -0.2520   -0.4910    0.8130 hn        1 RAS      0.448300
@<TRIPOS>BOND
     1    1    2 1   
     2    1    5 1   
     3    1   14 1   
     4    1   29 1   
     5    2    3 1   
     6    2   15 1   
     7    2   16 1   
     8    3    4 2   
     9    3   27 1   
    10    4   17 1   
    11    4   28 1   
    12    5    6 1   
    13    5    9 1   
    14    5   18 1   
    15    6    7 1   
    16    6   19 1   
    17    6   20 1   
    18    7    8 1   
    19    7   21 1   
    20    7   22 1   
    21    8    9 ar  
    22    8   11 ar  
    23    9   10 ar  
    24   10   13 ar  
    25   10   23 1   
    26   11   12 ar  
    27   11   24 1   
    28   12   13 ar  
    29   12   25 1   
    30   13   26 1   
@<TRIPOS>SUBSTRUCTURE
     1 RAS         1 TEMP              0 ****  ****    0 ROOT
