@<TRIPOS>MOLECULE
RAS
   29    30     1     0     0
SMALL
bcc


@<TRIPOS>ATOM
      1 N10         0.0300    0.0070   -0.0440 n4        1 RAS     -0.767000
      2 C11        -0.6680   -0.5930   -1.2250 c3        1 RAS      0.151000
      3 C12        -2.1490   -0.5280   -1.0760 c2        1 RAS     -0.273200
      4 C13        -2.9260    0.1920   -1.8840 c2        1 RAS     -0.106000
      5 C9          1.5370   -0.0470   -0.1610 c3        1 RAS      0.186800
      6 C1          2.2260   -0.1950    1.2250 c3        1 RAS     -0.099400
      7 C2          2.9920    1.1050    1.4920 c3        1 RAS     -0.048100
      8 C3          2.9060    1.8820    0.2240 ca        1 RAS     -0.052300
      9 C8          2.0850    1.2330   -0.7250 ca        1 RAS     -0.190300
     10 C7          1.9130    1.7590   -1.9980 ca        1 RAS     -0.092000
     11 C4          3.5370    3.0760   -0.0960 ca        1 RAS     -0.107000
     12 C5          3.3490    3.6150   -1.3750 ca        1 RAS     -0.077000
     13 C6          2.5510    2.9630   -2.3160 ca        1 RAS     -0.124000
     14 H10        -0.2610    0.9870    0.0540 hn        1 RAS      0.448300
     15 H111       -0.3190   -0.0380   -2.1440 hx        1 RAS      0.104700
     16 H112       -0.3400   -1.6700   -1.3100 hx        1 RAS      0.104700
     17 H13        -2.5350    0.8260   -2.6940 ha        1 RAS      0.143000
     18 H9          1.7840   -0.9300   -0.8180 hx        1 RAS      0.112700
     19 H11         1.5070   -0.4090    2.0530 hc        1 RAS      0.077700
     20 H12         2.9370   -1.0590    1.1650 hc        1 RAS      0.077700
     21 H21         2.5420    1.6750    2.3440 hc        1 RAS      0.085700
     22 H22         4.0590    0.8860    1.7570 hc        1 RAS      0.085700
     23 H7          1.3060    1.2440   -2.7560 ha        1 RAS      0.133000
     24 H4          4.1810    3.5870    0.6360 ha        1 RAS      0.162000
     25 H5          3.8470    4.5620   -1.6430 ha        1 RAS      0.161000
     26 H6          2.4270    3.3940   -3.3220 ha        1 RAS      0.158000
     27 H24        -2.5760   -1.1700   -0.2870 ha        1 RAS      0.153000
     28 H23        -4.0230    0.1810   -1.7920 ha        1 RAS      0.143000
     29 H102       -0.2620   -0.4950    0.8010 hn        1 RAS      0.448300
@<TRIPOS>BOND
     1    1    2 1   
     2    1    5 1   
     3    1   14 1   
     4    1   29 1   
     5    2    3 1   
     6    2   15 1   
     7    2   16 1   
     8    3    4 2   
     9    3   27 1   
    10    4   17 1   
    11    4   28 1   
    12    5    6 1   
    13    5    9 1   
    14    5   18 1   
    15    6    7 1   
    16    6   19 1   
    17    6   20 1   
    18    7    8 1   
    19    7   21 1   
    20    7   22 1   
    21    8    9 ar  
    22    8   11 ar  
    23    9   10 ar  
    24   10   13 ar  
    25   10   23 1   
    26   11   12 ar  
    27   11   24 1   
    28   12   13 ar  
    29   12   25 1   
    30   13   26 1   
@<TRIPOS>SUBSTRUCTURE
     1 RAS         1 TEMP              0 ****  ****    0 ROOT
