@<TRIPOS>MOLECULE
RAS
   29    30     1     0     0
SMALL
bcc


@<TRIPOS>ATOM
      1 N10         0.0270    0.0190   -0.0290 n4        1 RAS     -0.767000
      2 C11        -0.6960   -0.5690   -1.2000 c3        1 RAS      0.151000
      3 C12        -2.1740   -0.4870   -1.0280 c2        1 RAS     -0.273200
      4 C13        -2.9530    0.2460   -1.8220 c2        1 RAS     -0.106000
      5 C9          1.5310   -0.0530   -0.1680 c3        1 RAS      0.186800
      6 C1          2.2390   -0.2100    1.2070 c3        1 RAS     -0.099400
      7 C2          3.0240    1.0810    1.4630 c3        1 RAS     -0.048100
      8 C3          2.9290    1.8590    0.1960 ca        1 RAS     -0.052300
      9 C8          2.0870    1.2200   -0.7410 ca        1 RAS     -0.190300
     10 C7          1.9030    1.7480   -2.0110 ca        1 RAS     -0.092000
     11 C4          3.5700    3.0450   -0.1330 ca        1 RAS     -0.107000
     12 C5          3.3700    3.5860   -1.4090 ca        1 RAS     -0.077000
     13 C6          2.5510    2.9430   -2.3380 ca        1 RAS     -0.124000
     14 H10        -0.2580   -0.4810    0.8200 hn        1 RAS      0.448300
     15 H111       -0.3830   -1.6500   -1.2920 hx        1 RAS      0.104700
     16 H112       -0.3540   -0.0170   -2.1230 hx        1 RAS      0.104700
     17 H13        -2.5670    0.8780   -2.6360 ha        1 RAS      0.143000
     18 H9          1.7570   -0.9390   -0.8290 hx        1 RAS      0.112700
     19 H11         2.9390   -1.0820    1.1370 hc        1 RAS      0.077700
     20 H12         1.5300   -0.4170    2.0460 hc        1 RAS      0.077700
     21 H21         2.5920    1.6570    2.3220 hc        1 RAS      0.085700
     22 H22         4.0920    0.8500    1.7140 hc        1 RAS      0.085700
     23 H7          1.2790    1.2390   -2.7610 ha        1 RAS      0.133000
     24 H4          4.2290    3.5490    0.5900 ha        1 RAS      0.162000
     25 H5          3.8750    4.5270   -1.6840 ha        1 RAS      0.161000
     26 H6          2.4180    3.3760   -3.3430 ha        1 RAS      0.158000
     27 H24        -2.5970   -1.1260   -0.2350 ha        1 RAS      0.153000
     28 H23        -4.0500    0.2480   -1.7140 ha        1 RAS      0.143000
     29 H102       -0.2510    1.0030    0.0760 hn        1 RAS      0.448300
@<TRIPOS>BOND
     1    1    2 1   
     2    1    5 1   
     3    1   14 1   
     4    1   29 1   
     5    2    3 1   
     6    2   15 1   
     7    2   16 1   
     8    3    4 2   
     9    3   27 1   
    10    4   17 1   
    11    4   28 1   
    12    5    6 1   
    13    5    9 1   
    14    5   18 1   
    15    6    7 1   
    16    6   19 1   
    17    6   20 1   
    18    7    8 1   
    19    7   21 1   
    20    7   22 1   
    21    8    9 ar  
    22    8   11 ar  
    23    9   10 ar  
    24   10   13 ar  
    25   10   23 1   
    26   11   12 ar  
    27   11   24 1   
    28   12   13 ar  
    29   12   25 1   
    30   13   26 1   
@<TRIPOS>SUBSTRUCTURE
     1 RAS         1 TEMP              0 ****  ****    0 ROOT
