@<TRIPOS>MOLECULE
RAS
   28    29     1     0     0
SMALL
bcc


@<TRIPOS>ATOM
      1 N10        -1.5210    0.9140   -0.2520 n3        1 RAS     -0.823200
      2 C11        -2.5520    0.1660    0.4420 c3        1 RAS      0.197000
      3 C12        -3.7530   -0.1050   -0.4100 c2        1 RAS     -0.172200
      4 C13        -4.3860   -1.2750   -0.4140 c2        1 RAS     -0.220000
      5 C9         -0.2720    1.0430    0.4740 c3        1 RAS      0.228800
      6 C1          0.4980    2.3380    0.0660 c3        1 RAS     -0.075400
      7 C2          1.9390    1.9420   -0.2640 c3        1 RAS     -0.041100
      8 C3          1.9910    0.4600   -0.1270 ca        1 RAS     -0.075300
      9 C8          0.7440   -0.0640    0.2800 ca        1 RAS     -0.128300
     10 C7          0.5880   -1.4280    0.4720 ca        1 RAS     -0.113000
     11 C4          3.0740   -0.3790   -0.3440 ca        1 RAS     -0.122000
     12 C5          2.9110   -1.7560   -0.1530 ca        1 RAS     -0.125000
     13 C6          1.6820   -2.2740    0.2500 ca        1 RAS     -0.135000
     14 H10        -1.3650    0.5510   -1.1720 hn        1 RAS      0.369800
     15 H111       -2.1640   -0.8100    0.8640 h1        1 RAS      0.034200
     16 H112       -2.8840    0.7940    1.3210 h1        1 RAS      0.034200
     17 H13        -4.0550   -2.1370    0.1800 ha        1 RAS      0.112000
     18 H9         -0.5120    1.1080    1.5770 h1        1 RAS      0.063700
     19 H11         0.0220    2.8360   -0.8140 hc        1 RAS      0.054200
     20 H12         0.4710    3.0580    0.9190 hc        1 RAS      0.054200
     21 H21         2.2160    2.2560   -1.3020 hc        1 RAS      0.054700
     22 H22         2.6600    2.4290    0.4410 hc        1 RAS      0.054700
     23 H7         -0.3740   -1.8510    0.7950 ha        1 RAS      0.132000
     24 H4          4.0450    0.0270   -0.6600 ha        1 RAS      0.134000
     25 H5          3.7610   -2.4320   -0.3230 ha        1 RAS      0.130000
     26 H6          1.5670   -3.3580    0.3990 ha        1 RAS      0.130000
     27 H24        -4.1050    0.7440   -1.0200 ha        1 RAS      0.134000
     28 H23        -5.2900   -1.4470   -1.0140 ha        1 RAS      0.112000
@<TRIPOS>BOND
     1    1    2 1   
     2    1    5 1   
     3    1   14 1   
     4    2    3 1   
     5    2   15 1   
     6    2   16 1   
     7    3    4 2   
     8    3   27 1   
     9    4   17 1   
    10    4   28 1   
    11    5    6 1   
    12    5    9 1   
    13    5   18 1   
    14    6    7 1   
    15    6   19 1   
    16    6   20 1   
    17    7    8 1   
    18    7   21 1   
    19    7   22 1   
    20    8    9 ar  
    21    8   11 ar  
    22    9   10 ar  
    23   10   13 ar  
    24   10   23 1   
    25   11   12 ar  
    26   11   24 1   
    27   12   13 ar  
    28   12   25 1   
    29   13   26 1   
@<TRIPOS>SUBSTRUCTURE
     1 RAS         1 TEMP              0 ****  ****    0 ROOT
