@<TRIPOS>MOLECULE
RAT
   18    17     1     0     0
SMALL
bcc


@<TRIPOS>ATOM
      1 O1A        -2.7310   -0.9780   -1.0510 o         1 RAT     -0.859800
      2 C1         -2.5200   -0.1770   -0.0960 c         1 RAT      0.897100
      3 O1B        -3.3320    0.0060    0.8620 o         1 RAT     -0.859800
      4 C2         -1.2300    0.6730   -0.1070 c3        1 RAT     -0.003400
      5 O2         -1.3420    1.7640    0.7960 oh        1 RAT     -0.639300
      6 C3          0.0440   -0.1350    0.2170 c3        1 RAT      0.131100
      7 O3         -0.0510   -1.4720   -0.2450 oh        1 RAT     -0.618800
      8 C4          1.2840    0.5460   -0.3910 c3        1 RAT     -0.003400
      9 O4          1.3570    0.2450   -1.7780 oh        1 RAT     -0.639300
     10 C5          2.6010    0.1590    0.3200 c         1 RAT      0.897100
     11 O5A         3.4440   -0.5150   -0.3490 o         1 RAT     -0.859800
     12 O5B         2.8100    0.5560    1.5010 o         1 RAT     -0.859800
     13 H2         -1.1140    1.1370   -1.1250 h1        1 RAT      0.051700
     14 HO2        -1.9400    1.4720    1.5010 ho        1 RAT      0.412500
     15 H3          0.1840   -0.2110    1.3310 h1        1 RAT      0.070700
     16 HO3        -0.5630   -1.4510   -1.0670 ho        1 RAT      0.418000
     17 H4          1.1510    1.6600   -0.3290 h1        1 RAT      0.051700
     18 HO4         1.9240   -0.5370   -1.8500 ho        1 RAT      0.412500
@<TRIPOS>BOND
     1    1    2 1   
     2    2    3 1   
     3    2    4 1   
     4    4    5 1   
     5    4    6 1   
     6    4   13 1   
     7    5   14 1   
     8    6    7 1   
     9    6    8 1   
    10    6   15 1   
    11    7   16 1   
    12    8    9 1   
    13    8   10 1   
    14    8   17 1   
    15    9   18 1   
    16   10   11 1   
    17   10   12 1   
@<TRIPOS>SUBSTRUCTURE
     1 RAT         1 TEMP              0 ****  ****    0 ROOT
