@<TRIPOS>MOLECULE
RAT
   18    17     1     0     0
SMALL
bcc


@<TRIPOS>ATOM
      1 O1A        -2.0600   -1.2450   -2.1310 o         1 RAT     -0.861550
      2 C1         -0.8110   -1.2610   -1.9710 c         1 RAT      0.893100
      3 O1B        -0.0500   -1.3590   -2.9690 o         1 RAT     -0.861550
      4 C2         -0.2260   -1.1630   -0.5810 c3        1 RAT      0.013600
      5 O2          0.8860   -2.0190   -0.4790 oh        1 RAT     -0.631300
      6 C3          0.2080    0.2610   -0.3160 c3        1 RAT      0.116100
      7 O3         -0.5830    1.1420   -1.0780 oh        1 RAT     -0.621800
      8 C4          0.0390    0.5740    1.1530 c3        1 RAT      0.013600
      9 O4         -1.1940    1.2220    1.3560 oh        1 RAT     -0.631300
     10 C5          1.1630    1.4770    1.6080 c         1 RAT      0.893100
     11 O5A         2.3190    1.0080    1.7760 o         1 RAT     -0.861550
     12 O5B         0.9430    2.6990    1.8190 o         1 RAT     -0.861550
     13 H2         -0.9010   -1.4250    0.0760 h1        1 RAT      0.069200
     14 HO2         0.6480   -2.7660   -0.0580 ho        1 RAT      0.404500
     15 H3          1.1470    0.3670   -0.5660 h1        1 RAT      0.036700
     16 HO3        -0.0640    1.7590   -1.4540 ho        1 RAT      0.416000
     17 H4          0.0600   -0.2560    1.6680 h1        1 RAT      0.069200
     18 HO4        -1.5260    0.9850    2.1470 ho        1 RAT      0.404500
@<TRIPOS>BOND
     1    1    2 1   
     2    2    3 1   
     3    2    4 1   
     4    4    5 1   
     5    4    6 1   
     6    4   13 1   
     7    5   14 1   
     8    6    7 1   
     9    6    8 1   
    10    6   15 1   
    11    7   16 1   
    12    8    9 1   
    13    8   10 1   
    14    8   17 1   
    15    9   18 1   
    16   10   11 1   
    17   10   12 1   
@<TRIPOS>SUBSTRUCTURE
     1 RAT         1 TEMP              0 ****  ****    0 ROOT
