@<TRIPOS>MOLECULE
RAV
   34    34     1     0     0
SMALL
bcc


@<TRIPOS>ATOM
      1 C1         -0.0760    0.0330    0.0510 c3        1 RAV     -0.168000
      2 C2          1.4560    0.0180   -0.0090 c         1 RAV      0.712500
      3 N3          2.1950   -0.0330    1.1710 ns        1 RAV     -0.594000
      4 C4          1.6190   -0.0840    2.4510 c         1 RAV      0.818500
      5 N5          0.2200   -0.0540    2.5590 ns        1 RAV     -0.594000
      6 C6         -0.6450    0.0390    1.4700 c         1 RAV      0.712500
      7 O7         -1.8620    0.1320    1.6990 o         1 RAV     -0.593000
      8 O8          2.0680    0.0480   -1.0890 o         1 RAV     -0.593000
      9 O9          2.3370   -0.1510    3.4700 o         1 RAV     -0.620500
     10 C12        -0.5510    1.3090   -0.6550 c3        1 RAV     -0.074400
     11 C13        -0.5560   -1.2360   -0.6970 c3        1 RAV     -0.050700
     12 C14        -0.2490   -2.4740    0.1210 c3        1 RAV     -0.107100
     13 C15        -2.0290   -1.1660   -1.0680 c3        1 RAV     -0.087400
     14 C16        -2.5100   -2.4300   -1.7520 c3        1 RAV     -0.078400
     15 C17        -3.8860   -2.2410   -2.3370 c3        1 RAV     -0.093100
     16 C18         0.0680    2.5620   -0.0920 c3        1 RAV     -0.108100
     17 HN3         3.1930   -0.0470    1.1250 hn        1 RAV      0.357000
     18 HN5        -0.1600   -0.0660    3.4840 hn        1 RAV      0.357000
     19 H12        -0.2950    1.2160   -1.7440 hc        1 RAV      0.075700
     20 H12A       -1.6690    1.3700   -0.5550 hc        1 RAV      0.075700
     21 H13         0.0410   -1.2810   -1.6550 hc        1 RAV      0.079700
     22 H14         0.8120   -2.4680    0.4690 hc        1 RAV      0.045033
     23 H14A       -0.4030   -3.3900   -0.5000 hc        1 RAV      0.045033
     24 H14B       -0.9200   -2.5350    1.0130 hc        1 RAV      0.045033
     25 H15        -2.6450   -0.9780   -0.1480 hc        1 RAV      0.058200
     26 H15A       -2.1910   -0.3010   -1.7660 hc        1 RAV      0.058200
     27 H16        -2.5330   -3.2740   -1.0130 hc        1 RAV      0.040700
     28 H16A       -1.7910   -2.7180   -2.5640 hc        1 RAV      0.040700
     29 H17        -4.2400   -3.1910   -2.8050 hc        1 RAV      0.035700
     30 H17A       -4.6140   -1.9460   -1.5420 hc        1 RAV      0.035700
     31 H17B       -3.8790   -1.4440   -3.1190 hc        1 RAV      0.035700
     32 H18         1.1780    2.5530   -0.2190 hc        1 RAV      0.044700
     33 H18A       -0.1680    2.6690    0.9950 hc        1 RAV      0.044700
     34 H18B       -0.3380    3.4550   -0.6270 hc        1 RAV      0.044700
@<TRIPOS>BOND
     1    1    2 1   
     2    1    6 1   
     3    1   10 1   
     4    1   11 1   
     5    2    3 1   
     6    2    8 2   
     7    3    4 1   
     8    3   17 1   
     9    4    5 1   
    10    4    9 2   
    11    5    6 1   
    12    5   18 1   
    13    6    7 2   
    14   10   16 1   
    15   10   19 1   
    16   10   20 1   
    17   11   12 1   
    18   11   13 1   
    19   11   21 1   
    20   12   22 1   
    21   12   23 1   
    22   12   24 1   
    23   13   14 1   
    24   13   25 1   
    25   13   26 1   
    26   14   15 1   
    27   14   27 1   
    28   14   28 1   
    29   15   29 1   
    30   15   30 1   
    31   15   31 1   
    32   16   32 1   
    33   16   33 1   
    34   16   34 1   
@<TRIPOS>SUBSTRUCTURE
     1 RAV         1 TEMP              0 ****  ****    0 ROOT
