@<TRIPOS>MOLECULE
RAV
   34    34     1     0     0
SMALL
bcc


@<TRIPOS>ATOM
      1 C1         -0.0880    0.0430    0.0580 c3        1 RAV     -0.168000
      2 C2          1.4430    0.0700   -0.0170 c         1 RAV      0.712500
      3 N3          2.1940    0.0120    1.1560 n         1 RAV     -0.594000
      4 C4          1.6330   -0.0810    2.4400 c         1 RAV      0.818500
      5 N5          0.2340   -0.0910    2.5610 n         1 RAV     -0.594000
      6 C6         -0.6440    0.0040    1.4820 c         1 RAV      0.712500
      7 O7         -1.8600    0.0600    1.7240 o         1 RAV     -0.593000
      8 O8          2.0430    0.1390   -1.1010 o         1 RAV     -0.593000
      9 O9          2.3610   -0.1510    3.4500 o         1 RAV     -0.620500
     10 C12        -0.6040    1.3220   -0.6160 c3        1 RAV     -0.074400
     11 C13        -0.5430   -1.2210   -0.7130 c3        1 RAV     -0.050700
     12 C14        -0.1970   -2.4690    0.0750 c3        1 RAV     -0.107100
     13 C15        -2.0210   -1.1820   -1.0690 c3        1 RAV     -0.087400
     14 C16        -2.4750   -2.4420   -1.7760 c3        1 RAV     -0.078400
     15 C17        -3.8620   -2.2770   -2.3440 c3        1 RAV     -0.093100
     16 C18        -0.0120    2.5780   -0.0310 c3        1 RAV     -0.108100
     17 HN3         3.1910    0.0250    1.1000 hn        1 RAV      0.357000
     18 HN5        -0.1360   -0.1320    3.4880 hn        1 RAV      0.357000
     19 H12        -0.3560    1.2590   -1.7090 hc        1 RAV      0.075700
     20 H12A       -1.7210    1.3510   -0.5040 hc        1 RAV      0.075700
     21 H13         0.0460   -1.2300   -1.6780 hc        1 RAV      0.079700
     22 H14        -0.3320   -3.3740   -0.5650 hc        1 RAV      0.045033
     23 H14A       -0.8570   -2.5660    0.9710 hc        1 RAV      0.045033
     24 H14B        0.8680   -2.4420    0.4120 hc        1 RAV      0.045033
     25 H15        -2.6330   -1.0300   -0.1400 hc        1 RAV      0.058200
     26 H15A       -2.2120   -0.3060   -1.7460 hc        1 RAV      0.058200
     27 H16        -1.7570   -2.6940   -2.6010 hc        1 RAV      0.040700
     28 H16A       -2.4700   -3.3030   -1.0560 hc        1 RAV      0.040700
     29 H17        -3.8830   -1.4630   -3.1090 hc        1 RAV      0.035700
     30 H17A       -4.1960   -3.2250   -2.8300 hc        1 RAV      0.035700
     31 H17B       -4.5890   -2.0180   -1.5370 hc        1 RAV      0.035700
     32 H18         1.0970    2.6000   -0.1680 hc        1 RAV      0.044700
     33 H18A       -0.4450    3.4710   -0.5430 hc        1 RAV      0.044700
     34 H18B       -0.2390    2.6550    1.0600 hc        1 RAV      0.044700
@<TRIPOS>BOND
     1    1    2 1   
     2    1    6 1   
     3    1   10 1   
     4    1   11 1   
     5    2    3 1   
     6    2    8 2   
     7    3    4 1   
     8    3   17 1   
     9    4    5 1   
    10    4    9 2   
    11    5    6 1   
    12    5   18 1   
    13    6    7 2   
    14   10   16 1   
    15   10   19 1   
    16   10   20 1   
    17   11   12 1   
    18   11   13 1   
    19   11   21 1   
    20   12   22 1   
    21   12   23 1   
    22   12   24 1   
    23   13   14 1   
    24   13   25 1   
    25   13   26 1   
    26   14   15 1   
    27   14   27 1   
    28   14   28 1   
    29   15   29 1   
    30   15   30 1   
    31   15   31 1   
    32   16   32 1   
    33   16   33 1   
    34   16   34 1   
@<TRIPOS>SUBSTRUCTURE
     1 RAV         1 TEMP              0 ****  ****    0 ROOT
