@<TRIPOS>MOLECULE
RAV
   34    34     1     0     0
SMALL
bcc


@<TRIPOS>ATOM
      1 C1          0.0590    0.4020    0.2550 c3        1 RAV     -0.168000
      2 C2          1.1320    1.1360   -0.5580 c         1 RAV      0.712500
      3 N3          2.3390    0.5000   -0.8440 n         1 RAV     -0.594000
      4 C4          2.6480   -0.8080   -0.4380 c         1 RAV      0.818500
      5 N5          1.7040   -1.5150    0.3230 n         1 RAV     -0.594000
      6 C6          0.4740   -0.9930    0.7220 c         1 RAV      0.712500
      7 O7         -0.2430   -1.6910    1.4570 o         1 RAV     -0.593000
      8 O8          0.9580    2.2910   -0.9760 o         1 RAV     -0.593000
      9 O9          3.7390   -1.3290   -0.7460 o         1 RAV     -0.620500
     10 C12        -0.2360    1.2500    1.5000 c3        1 RAV     -0.074400
     11 C13        -1.1860    0.2950   -0.6600 c3        1 RAV     -0.050700
     12 C14        -0.9360   -0.7040   -1.7720 c3        1 RAV     -0.107100
     13 C15        -2.4490   -0.0440    0.1180 c3        1 RAV     -0.087400
     14 C16        -3.6550   -0.2000   -0.7850 c3        1 RAV     -0.078400
     15 C17        -4.9290   -0.2780    0.0180 c3        1 RAV     -0.093100
     16 C18         0.9980    1.5610    2.3080 c3        1 RAV     -0.108100
     17 HN3         3.0320    0.9830   -1.3780 hn        1 RAV      0.357000
     18 HN5         1.9630   -2.4340    0.6190 hn        1 RAV      0.357000
     19 H12        -0.7180    2.2050    1.1600 hc        1 RAV      0.075700
     20 H12A       -0.9680    0.6890    2.1410 hc        1 RAV      0.075700
     21 H13        -1.3280    1.3180   -1.1200 hc        1 RAV      0.079700
     22 H14         0.0400   -0.5020   -2.2750 hc        1 RAV      0.045033
     23 H14A       -0.9270   -1.7470   -1.3700 hc        1 RAV      0.045033
     24 H14B       -1.7420   -0.6280   -2.5420 hc        1 RAV      0.045033
     25 H15        -2.2920   -0.9890    0.7050 hc        1 RAV      0.058200
     26 H15A       -2.6590    0.7790    0.8520 hc        1 RAV      0.058200
     27 H16        -3.7110    0.6650   -1.4970 hc        1 RAV      0.040700
     28 H16A       -3.5480   -1.1330   -1.4010 hc        1 RAV      0.040700
     29 H17        -4.8880   -1.1310    0.7390 hc        1 RAV      0.035700
     30 H17A       -5.0900    0.6630    0.5980 hc        1 RAV      0.035700
     31 H17B       -5.8040   -0.4290   -0.6590 hc        1 RAV      0.035700
     32 H18         0.7150    2.1550    3.2110 hc        1 RAV      0.044700
     33 H18A        1.4990    0.6220    2.6480 hc        1 RAV      0.044700
     34 H18B        1.7280    2.1610    1.7100 hc        1 RAV      0.044700
@<TRIPOS>BOND
     1    1    2 1   
     2    1    6 1   
     3    1   10 1   
     4    1   11 1   
     5    2    3 1   
     6    2    8 2   
     7    3    4 1   
     8    3   17 1   
     9    4    5 1   
    10    4    9 2   
    11    5    6 1   
    12    5   18 1   
    13    6    7 2   
    14   10   16 1   
    15   10   19 1   
    16   10   20 1   
    17   11   12 1   
    18   11   13 1   
    19   11   21 1   
    20   12   22 1   
    21   12   23 1   
    22   12   24 1   
    23   13   14 1   
    24   13   25 1   
    25   13   26 1   
    26   14   15 1   
    27   14   27 1   
    28   14   28 1   
    29   15   29 1   
    30   15   30 1   
    31   15   31 1   
    32   16   32 1   
    33   16   33 1   
    34   16   34 1   
@<TRIPOS>SUBSTRUCTURE
     1 RAV         1 TEMP              0 ****  ****    0 ROOT
