@<TRIPOS>MOLECULE
RAV
   34    34     1     0     0
SMALL
bcc


@<TRIPOS>ATOM
      1 C1         -0.0860    0.0380    0.0650 c3        1 RAV     -0.168000
      2 C2          1.4450    0.0580   -0.0060 c         1 RAV      0.712500
      3 N3          2.1930   -0.0130    1.1670 n         1 RAV     -0.594000
      4 C4          1.6290   -0.1160    2.4490 c         1 RAV      0.818500
      5 N5          0.2300   -0.1200    2.5670 n         1 RAV     -0.594000
      6 C6         -0.6460   -0.0110    1.4860 c         1 RAV      0.712500
      7 O7         -1.8620    0.0480    1.7270 o         1 RAV     -0.593000
      8 O8          2.0480    0.1340   -1.0890 o         1 RAV     -0.593000
      9 O9          2.3540   -0.1990    3.4600 o         1 RAV     -0.620500
     10 C12        -0.5940    1.3250   -0.5990 c3        1 RAV     -0.074400
     11 C13        -0.5450   -1.2170   -0.7190 c3        1 RAV     -0.050700
     12 C14        -0.2060   -2.4730    0.0580 c3        1 RAV     -0.107100
     13 C15        -2.0220   -1.1670   -1.0770 c3        1 RAV     -0.087400
     14 C16        -2.4810   -2.4190   -1.7980 c3        1 RAV     -0.078400
     15 C17        -3.8660   -2.2420   -2.3660 c3        1 RAV     -0.093100
     16 C18         0.0030    2.5730   -0.0010 c3        1 RAV     -0.108100
     17 HN3         3.1910   -0.0050    1.1130 hn        1 RAV      0.357000
     18 HN5        -0.1430   -0.1680    3.4930 hn        1 RAV      0.357000
     19 H12        -1.7120    1.3590   -0.4890 hc        1 RAV      0.075700
     20 H12A       -0.3440    1.2710   -1.6920 hc        1 RAV      0.075700
     21 H13         0.0450   -1.2190   -1.6830 hc        1 RAV      0.079700
     22 H14        -0.3440   -3.3720   -0.5910 hc        1 RAV      0.045033
     23 H14A       -0.8680   -2.5750    0.9520 hc        1 RAV      0.045033
     24 H14B        0.8580   -2.4540    0.3970 hc        1 RAV      0.045033
     25 H15        -2.2080   -0.2850   -1.7460 hc        1 RAV      0.058200
     26 H15A       -2.6350   -1.0220   -0.1480 hc        1 RAV      0.058200
     27 H16        -2.4800   -3.2870   -1.0860 hc        1 RAV      0.040700
     28 H16A       -1.7620   -2.6650   -2.6240 hc        1 RAV      0.040700
     29 H17        -4.2030   -3.1840   -2.8620 hc        1 RAV      0.035700
     30 H17A       -4.5930   -1.9890   -1.5570 hc        1 RAV      0.035700
     31 H17B       -3.8820   -1.4210   -3.1220 hc        1 RAV      0.035700
     32 H18        -0.2270    2.6420    1.0900 hc        1 RAV      0.044700
     33 H18A       -0.4250    3.4730   -0.5070 hc        1 RAV      0.044700
     34 H18B        1.1120    2.5920   -0.1370 hc        1 RAV      0.044700
@<TRIPOS>BOND
     1    1    2 1   
     2    1    6 1   
     3    1   10 1   
     4    1   11 1   
     5    2    3 1   
     6    2    8 2   
     7    3    4 1   
     8    3   17 1   
     9    4    5 1   
    10    4    9 2   
    11    5    6 1   
    12    5   18 1   
    13    6    7 2   
    14   10   16 1   
    15   10   19 1   
    16   10   20 1   
    17   11   12 1   
    18   11   13 1   
    19   11   21 1   
    20   12   22 1   
    21   12   23 1   
    22   12   24 1   
    23   13   14 1   
    24   13   25 1   
    25   13   26 1   
    26   14   15 1   
    27   14   27 1   
    28   14   28 1   
    29   15   29 1   
    30   15   30 1   
    31   15   31 1   
    32   16   32 1   
    33   16   33 1   
    34   16   34 1   
@<TRIPOS>SUBSTRUCTURE
     1 RAV         1 TEMP              0 ****  ****    0 ROOT
