@<TRIPOS>MOLECULE
RAW
   95    96     1     0     0
SMALL
bcc


@<TRIPOS>ATOM
      1 C1         12.8570    0.8100    0.6170 c3        1 RAW     -0.007800
      2 C2         13.9200    0.0020    1.3680 c3        1 RAW     -0.069400
      3 C3         14.5330   -1.0710    0.5020 c3        1 RAW     -0.076400
      4 C4         13.4780   -2.0450    0.0250 c3        1 RAW     -0.041200
      5 C5         12.2200   -1.3840   -0.4260 c2        1 RAW     -0.096400
      6 C6         11.9180   -0.0990   -0.1410 ce        1 RAW     -0.086200
      7 C7         10.6810    0.5420   -0.5720 ce        1 RAW     -0.108000
      8 C8          9.4560    0.0090   -0.4330 cf        1 RAW     -0.140000
      9 C9          8.2190    0.6600   -0.8430 cf        1 RAW     -0.061200
     10 C10         7.0420    0.2000   -0.3600 ce        1 RAW     -0.138000
     11 C11         5.7390    0.7490   -0.6430 ce        1 RAW     -0.120000
     12 C12         4.6070    0.1920   -0.1700 cf        1 RAW     -0.130000
     13 C13         3.2650    0.6970   -0.4190 cf        1 RAW     -0.061200
     14 C14         2.2030   -0.0470   -0.0260 ce        1 RAW     -0.134000
     15 C15         0.8130    0.2870   -0.2070 ce        1 RAW     -0.118000
     16 C16        -0.1840   -0.5010    0.2470 cf        1 RAW     -0.128000
     17 C17        -1.5740   -0.1670    0.0650 cf        1 RAW     -0.124000
     18 C18        -2.6360   -0.9080    0.4590 ce        1 RAW     -0.071200
     19 C19        -3.9770   -0.4020    0.2100 ce        1 RAW     -0.117000
     20 C20        -5.1100   -0.9570    0.6840 cf        1 RAW     -0.132000
     21 C21        -6.4120   -0.4050    0.3990 cf        1 RAW     -0.120000
     22 C22        -7.5900   -0.8580    0.8870 ce        1 RAW     -0.077200
     23 C23        -8.8230   -0.2030    0.4710 ce        1 RAW     -0.109000
     24 C24       -10.0520   -0.7240    0.6250 cf        1 RAW     -0.142000
     25 C25       -11.2760   -0.0660    0.1760 cf        1 RAW     -0.014200
     26 C26       -11.5720    1.2090    0.5190 ce        1 RAW     -0.187400
     27 C27       -12.8060    1.8810    0.0520 c         1 RAW      0.571300
     28 O27       -13.1710    2.9780    0.4900 o         1 RAW     -0.535100
     29 C28       -13.5890    1.1670   -1.0130 c3        1 RAW     -0.180400
     30 C29       -13.5830   -0.3240   -0.7840 c3        1 RAW     -0.068400
     31 C30       -12.1700   -0.9080   -0.7030 c3        1 RAW     -0.019800
     32 C31        13.5370    1.7670   -0.3580 c3        1 RAW     -0.084100
     33 C32        12.0800    1.6270    1.6460 c3        1 RAW     -0.084100
     34 C33        11.3210   -2.2790   -1.1960 c3        1 RAW     -0.064900
     35 C34         8.3340    1.8090   -1.7740 c3        1 RAW     -0.063900
     36 C35         3.1530    2.0090   -1.1000 c3        1 RAW     -0.062900
     37 C36        -2.5250   -2.2200    1.1410 c3        1 RAW     -0.061900
     38 C37        -7.7110   -1.9980    1.8270 c3        1 RAW     -0.061900
     39 C38       -10.7040    2.0400    1.3890 c3        1 RAW     -0.059900
     40 C39       -11.5560   -0.9750   -2.0990 c3        1 RAW     -0.087100
     41 C40       -12.2940   -2.3290   -0.1580 c3        1 RAW     -0.087100
     42 H2         14.7190    0.6990    1.7340 hc        1 RAW      0.042700
     43 H2A        13.4480   -0.4730    2.2680 hc        1 RAW      0.042700
     44 H3         15.0430   -0.6030   -0.3810 hc        1 RAW      0.041700
     45 H3A        15.3170   -1.6240    1.0830 hc        1 RAW      0.041700
     46 H4         13.9000   -2.6630   -0.8120 hc        1 RAW      0.047700
     47 H4A        13.2160   -2.7530    0.8580 hc        1 RAW      0.047700
     48 H7         10.8120    1.5470   -1.0140 ha        1 RAW      0.127000
     49 H8          9.3350   -0.9820    0.0420 ha        1 RAW      0.127000
     50 H10         7.0500   -0.6710    0.3230 ha        1 RAW      0.122000
     51 H11         5.6990    1.6580   -1.2670 ha        1 RAW      0.126000
     52 H12         4.6620   -0.7220    0.4500 ha        1 RAW      0.123000
     53 H14         2.3910   -1.0120    0.4830 ha        1 RAW      0.122000
     54 H15         0.5760    1.2210   -0.7450 ha        1 RAW      0.125000
     55 H16         0.0530   -1.4340    0.7850 ha        1 RAW      0.126000
     56 H17        -1.7610    0.7980   -0.4440 ha        1 RAW      0.121000
     57 H19        -4.0310    0.5110   -0.4110 ha        1 RAW      0.123000
     58 H20        -5.0710   -1.8660    1.3080 ha        1 RAW      0.128000
     59 H21        -6.4170    0.4620   -0.2890 ha        1 RAW      0.123000
     60 H23        -8.6990    0.7810   -0.0170 ha        1 RAW      0.130000
     61 H24       -10.1950   -1.7100    1.1000 ha        1 RAW      0.136000
     62 H28       -14.6440    1.5500   -1.0260 hc        1 RAW      0.072200
     63 H28A      -13.1280    1.4160   -2.0070 hc        1 RAW      0.072200
     64 H29       -14.1270   -0.5530    0.1710 hc        1 RAW      0.050200
     65 H29A      -14.1390   -0.8300   -1.6170 hc        1 RAW      0.050200
     66 H31        14.2600    2.4180    0.1890 hc        1 RAW      0.035867
     67 H31A       14.0880    1.2000   -1.1450 hc        1 RAW      0.035867
     68 H31B       12.7810    2.4200   -0.8560 hc        1 RAW      0.035867
     69 H32        11.5080    0.9530    2.3270 hc        1 RAW      0.035867
     70 H32A       12.7880    2.2370    2.2570 hc        1 RAW      0.035867
     71 H32B       11.3610    2.3160    1.1410 hc        1 RAW      0.035867
     72 H33        11.9130   -2.9870   -1.8280 hc        1 RAW      0.043700
     73 H33A       10.6940   -2.8840   -0.4930 hc        1 RAW      0.043700
     74 H33B       10.6380   -1.7000   -1.8660 hc        1 RAW      0.043700
     75 H34         9.1310    1.6180   -2.5350 hc        1 RAW      0.045367
     76 H34A        7.3800    2.0020   -2.3210 hc        1 RAW      0.045367
     77 H34B        8.6070    2.7340   -1.2060 hc        1 RAW      0.045367
     78 H35         3.4790    1.9140   -2.1660 hc        1 RAW      0.045367
     79 H35A        2.1100    2.4070   -1.0880 hc        1 RAW      0.045367
     80 H35B        3.8120    2.7610   -0.5970 hc        1 RAW      0.045367
     81 H36        -2.8490   -2.1230    2.2090 hc        1 RAW      0.045367
     82 H36A       -3.1870   -2.9720    0.6410 hc        1 RAW      0.045367
     83 H36B       -1.4840   -2.6200    1.1270 hc        1 RAW      0.045367
     84 H37        -8.4920   -1.7860    2.6000 hc        1 RAW      0.045700
     85 H37A       -8.0090   -2.9220    1.2700 hc        1 RAW      0.045700
     86 H37B       -6.7520   -2.2040    2.3610 hc        1 RAW      0.045700
     87 H38       -10.0390    2.6830    0.7590 hc        1 RAW      0.052033
     88 H38A      -11.3290    2.7140    2.0280 hc        1 RAW      0.052033
     89 H38B      -10.0610    1.4090    2.0510 hc        1 RAW      0.052033
     90 H39       -10.5180   -1.3830   -2.0420 hc        1 RAW      0.040200
     91 H39A      -12.1680   -1.6410   -2.7530 hc        1 RAW      0.040200
     92 H39B      -11.5140    0.0410   -2.5610 hc        1 RAW      0.040200
     93 H40       -12.5450   -2.3110    0.9290 hc        1 RAW      0.040200
     94 H40A      -13.1050   -2.8710   -0.7030 hc        1 RAW      0.040200
     95 H40B      -11.3420   -2.8920   -0.3020 hc        1 RAW      0.040200
@<TRIPOS>BOND
     1    1    2 1   
     2    1    6 1   
     3    1   32 1   
     4    1   33 1   
     5    2    3 1   
     6    2   42 1   
     7    2   43 1   
     8    3    4 1   
     9    3   44 1   
    10    3   45 1   
    11    4    5 1   
    12    4   46 1   
    13    4   47 1   
    14    5    6 2   
    15    5   34 1   
    16    6    7 1   
    17    7    8 2   
    18    7   48 1   
    19    8    9 1   
    20    8   49 1   
    21    9   10 2   
    22    9   35 1   
    23   10   11 1   
    24   10   50 1   
    25   11   12 2   
    26   11   51 1   
    27   12   13 1   
    28   12   52 1   
    29   13   14 2   
    30   13   36 1   
    31   14   15 1   
    32   14   53 1   
    33   15   16 2   
    34   15   54 1   
    35   16   17 1   
    36   16   55 1   
    37   17   18 2   
    38   17   56 1   
    39   18   19 1   
    40   18   37 1   
    41   19   20 2   
    42   19   57 1   
    43   20   21 1   
    44   20   58 1   
    45   21   22 2   
    46   21   59 1   
    47   22   23 1   
    48   22   38 1   
    49   23   24 2   
    50   23   60 1   
    51   24   25 1   
    52   24   61 1   
    53   25   26 2   
    54   25   31 1   
    55   26   27 1   
    56   26   39 1   
    57   27   28 2   
    58   27   29 1   
    59   29   30 1   
    60   29   62 1   
    61   29   63 1   
    62   30   31 1   
    63   30   64 1   
    64   30   65 1   
    65   31   40 1   
    66   31   41 1   
    67   32   66 1   
    68   32   67 1   
    69   32   68 1   
    70   33   69 1   
    71   33   70 1   
    72   33   71 1   
    73   34   72 1   
    74   34   73 1   
    75   34   74 1   
    76   35   75 1   
    77   35   76 1   
    78   35   77 1   
    79   36   78 1   
    80   36   79 1   
    81   36   80 1   
    82   37   81 1   
    83   37   82 1   
    84   37   83 1   
    85   38   84 1   
    86   38   85 1   
    87   38   86 1   
    88   39   87 1   
    89   39   88 1   
    90   39   89 1   
    91   40   90 1   
    92   40   91 1   
    93   40   92 1   
    94   41   93 1   
    95   41   94 1   
    96   41   95 1   
@<TRIPOS>SUBSTRUCTURE
     1 RAW         1 TEMP              0 ****  ****    0 ROOT
