@<TRIPOS>MOLECULE
RAZ
   41    39     1     0     0
SMALL
bcc


@<TRIPOS>ATOM
      1 C01         0.3370    0.9880    0.0360 c3        1 RAZ     -0.020000
      2 C02         1.8290    1.1130    0.0530 c2        1 RAZ     -0.137000
      3 C03        -3.2280   -1.8050    1.3690 c2        1 RAZ     -0.233500
      4 C05         2.6130    0.2100    0.5660 c1        1 RAZ     -0.149000
      5 C07        -4.1600   -0.8620    1.4410 c2        1 RAZ     -0.233500
      6 N08        -0.2120    0.6800   -1.2820 n3        1 RAZ     -0.271000
      7 C09        -3.6020   -0.8280   -2.0120 c3        1 RAZ     -0.265000
      8 C11        -1.6570    0.5360   -1.2600 c3        1 RAZ     -0.057000
      9 C14        -4.1780   -1.8930   -2.8170 c2        1 RAZ      0.321000
     10 C17        -3.3400   -2.7860   -3.6010 c3        1 RAZ     -0.311500
     11 C18        -5.6250   -2.0760   -2.8300 c3        1 RAZ     -0.311500
     12 C19         0.2570    1.5520   -2.3350 c3        1 RAZ     -0.122000
     13 C31         3.4230   -0.6780    1.0700 c2        1 RAZ     -0.101000
     14 C32         3.8500   -0.7140    2.4850 c3        1 RAZ     -0.184000
     15 H01        -2.1860    1.4960   -1.5360 h1        1 RAZ      0.077500
     16 H021       -0.0920    1.9540    0.4410 h1        1 RAZ      0.078000
     17 H022        2.2400    2.0450   -0.3730 ha        1 RAZ      0.143000
     18 H031       -2.1580   -1.5750    1.2550 ha        1 RAZ      0.121250
     19 H032       -3.4570   -2.8760    1.4630 ha        1 RAZ      0.121250
     20 H05         3.8450   -1.4700    0.4230 ha        1 RAZ      0.143000
     21 H071       -3.9230    0.2100    1.3940 ha        1 RAZ      0.121250
     22 H072       -5.2230   -1.0890    1.6010 ha        1 RAZ      0.121250
     23 H08         0.0200    0.1550    0.7280 h1        1 RAZ      0.078000
     24 H09        -3.7770   -1.1030   -0.9080 hc        1 RAZ      0.198500
     25 H101       -4.1980    0.1260   -2.1500 hc        1 RAZ      0.198500
     26 H102       -1.9420   -0.2430   -3.2840 hc        1 RAZ      0.108500
     27 H111       -1.5360   -1.5010   -2.0440 hc        1 RAZ      0.108500
     28 H112       -1.9960    0.2530   -0.2200 h1        1 RAZ      0.077500
     29 H171       -2.6080   -3.3250   -2.9280 hc        1 RAZ      0.173667
     30 H172       -3.9230   -3.5460   -4.1810 hc        1 RAZ      0.173667
     31 H173       -2.6970   -2.1890   -4.3150 hc        1 RAZ      0.173667
     32 H181       -5.8960   -3.1510   -2.6270 hc        1 RAZ      0.173667
     33 H182       -6.1620   -1.4180   -2.0990 hc        1 RAZ      0.173667
     34 H183       -6.0210   -1.8510   -3.8650 hc        1 RAZ      0.173667
     35 H191        0.0200    2.6350   -2.1500 h1        1 RAZ      0.080000
     36 H192        1.3690    1.4360   -2.4240 h1        1 RAZ      0.080000
     37 H193       -0.2140    1.2450   -3.3060 h1        1 RAZ      0.080000
     38 H321        4.9620   -0.6010    2.5450 hc        1 RAZ      0.091000
     39 H322        3.3800    0.1010    3.0870 hc        1 RAZ      0.091000
     40 H323        3.5730   -1.6980    2.9400 hc        1 RAZ      0.091000
     41 C10        -2.1270   -0.5640   -2.2250 c3        1 RAZ     -0.175000
@<TRIPOS>BOND
     1    1    2 1   
     2    1    6 1   
     3    1   16 1   
     4    1   23 1   
     5    2    4 1   
     6    2   17 1   
     7    3    5 1   
     8    3   18 1   
     9    3   19 1   
    10    4   13 1   
    11    5   21 1   
    12    5   22 1   
    13    6    8 1   
    14    6   12 1   
    15    7    9 1   
    16    7   24 1   
    17    7   25 1   
    18    7   41 1   
    19    8   15 1   
    20    8   28 1   
    21    8   41 1   
    22    9   10 1   
    23    9   11 1   
    24   10   29 1   
    25   10   30 1   
    26   10   31 1   
    27   11   32 1   
    28   11   33 1   
    29   11   34 1   
    30   12   35 1   
    31   12   36 1   
    32   12   37 1   
    33   13   14 1   
    34   13   20 1   
    35   14   38 1   
    36   14   39 1   
    37   14   40 1   
    38   26   41 1   
    39   27   41 1   
@<TRIPOS>SUBSTRUCTURE
     1 RAZ         1 TEMP              0 ****  ****    0 ROOT
