@<TRIPOS>MOLECULE
RAZ
   41    37     1     0     0
SMALL
bcc


@<TRIPOS>ATOM
      1 C01         0.3410    1.8780   -1.5830 c2        1 RAZ     -0.088000
      2 C02         1.4470   -0.4330    1.0120 c2        1 RAZ      0.172000
      3 C03         2.5600   -3.2470   -0.9500 c1        1 RAZ     -0.228500
      4 C05         0.1620   -0.7580    1.3790 c2        1 RAZ     -0.302000
      5 C07         1.7850   -2.7520   -1.7150 c1        1 RAZ     -0.228500
      6 N08         1.1180    1.6610   -0.5930 n2        1 RAZ     -0.266000
      7 C09        -3.3740   -0.4340   -1.7560 c2        1 RAZ     -0.224000
      8 C11        -1.4100   -1.2290   -3.0540 c3        1 RAZ     -0.208000
      9 C14        -4.5410   -0.5490   -1.0980 c2        1 RAZ     -0.091000
     10 C17        -5.4070   -1.7460   -1.2280 c3        1 RAZ     -0.194500
     11 C18        -5.0520    0.5300   -0.2190 c3        1 RAZ     -0.194500
     12 C19         2.0610    2.6410   -0.1460 c3        1 RAZ     -0.168000
     13 C31        -0.5810   -1.7100    0.6890 c2        1 RAZ      0.204000
     14 C32        -1.9530   -2.0420    1.0180 c3        1 RAZ     -0.299000
     15 H01        -0.7700   -1.2180   -2.1360 hc        1 RAZ      0.068333
     16 H021        0.2990    2.8040   -2.1910 h4        1 RAZ      0.126000
     17 H022        2.0300    0.3190    1.5740 ha        1 RAZ      0.167000
     18 H031       -0.3040   -0.2380    2.2400 ha        1 RAZ      0.185000
     19 H032        3.2570   -3.7070   -0.2910 ha        1 RAZ      0.231000
     20 H05         1.9600   -0.9260    0.1630 ha        1 RAZ      0.167000
     21 H071       -0.1170   -2.2470   -0.1710 ha        1 RAZ      0.169000
     22 H072        1.1240   -2.3340   -2.4360 ha        1 RAZ      0.231000
     23 H08        -0.3650    1.0800   -1.8840 h4        1 RAZ      0.126000
     24 H09        -1.2860   -0.2500   -3.5780 hc        1 RAZ      0.068333
     25 H101       -2.7680    0.4820   -1.6620 ha        1 RAZ      0.117000
     26 H102       -3.4800   -1.4490   -3.6270 hc        1 RAZ      0.097000
     27 H111       -2.9750   -2.4850   -2.2420 hc        1 RAZ      0.097000
     28 H112       -1.0450   -2.0390   -3.7300 hc        1 RAZ      0.068333
     29 H171       -4.8900   -2.6490   -0.8160 hc        1 RAZ      0.091000
     30 H172       -5.6370   -1.9430   -2.3060 hc        1 RAZ      0.091000
     31 H173       -6.3730   -1.6110   -0.6810 hc        1 RAZ      0.091000
     32 H181       -5.9950    0.9520   -0.6510 hc        1 RAZ      0.091000
     33 H182       -5.2890    0.1260    0.7970 hc        1 RAZ      0.091000
     34 H183       -4.3150    1.3630   -0.1090 hc        1 RAZ      0.091000
     35 H191        3.0920    2.1980   -0.2150 h1        1 RAZ      0.098000
     36 H192        2.0510    3.6030   -0.7280 h1        1 RAZ      0.098000
     37 H193        1.8440    2.8780    0.9300 h1        1 RAZ      0.098000
     38 H321       -2.1160   -3.1540    0.9980 hc        1 RAZ      0.166000
     39 H322       -2.2890   -1.6350    2.0050 hc        1 RAZ      0.166000
     40 H323       -2.6300   -1.6080    0.2100 hc        1 RAZ      0.166000
     41 C10        -2.8550   -1.4600   -2.6900 c3        1 RAZ     -0.139000
@<TRIPOS>BOND
     1    1    6 1   
     2    1   16 1   
     3    1   23 1   
     4    2    4 1   
     5    2   17 1   
     6    2   20 1   
     7    3    5 1   
     8    3   19 1   
     9    4   13 1   
    10    4   18 1   
    11    5   22 1   
    12    6   12 1   
    13    7    9 1   
    14    7   25 1   
    15    7   41 1   
    16    8   15 1   
    17    8   24 1   
    18    8   28 1   
    19    8   41 1   
    20    9   10 1   
    21    9   11 1   
    22   10   29 1   
    23   10   30 1   
    24   10   31 1   
    25   11   32 1   
    26   11   33 1   
    27   11   34 1   
    28   12   35 1   
    29   12   36 1   
    30   12   37 1   
    31   13   14 1   
    32   13   21 1   
    33   14   38 1   
    34   14   39 1   
    35   14   40 1   
    36   26   41 1   
    37   27   41 1   
@<TRIPOS>SUBSTRUCTURE
     1 RAZ         1 TEMP              0 ****  ****    0 ROOT
