@<TRIPOS>MOLECULE
RAZ
   41    40     1     0     0
SMALL
bcc


@<TRIPOS>ATOM
      1 C01        -2.1040    0.2200    0.3440 c3        1 RAZ     -0.278000
      2 C02        -0.6760    0.2010    0.1070 c2        1 RAZ      0.291000
      3 C03        -2.3300   -0.2770    1.7720 c3        1 RAZ     -0.172000
      4 C05         0.0710   -0.3440    1.2500 c3        1 RAZ     -0.148000
      5 C07        -0.9450   -0.4290    2.4020 c3        1 RAZ     -0.169000
      6 N08         0.9380   -1.2390   -3.3430 n3        1 RAZ     -0.326000
      7 C09        -2.6520   -1.8070   -2.3180 c2        1 RAZ     -0.237000
      8 C11        -0.1880   -1.7870   -2.6330 c3        1 RAZ     -0.043000
      9 C14        -3.9120   -1.3340   -2.3430 c2        1 RAZ     -0.086000
     10 C17        -4.2770   -0.0960   -3.0730 c3        1 RAZ     -0.198000
     11 C18        -5.0240   -2.0440   -1.6680 c3        1 RAZ     -0.198000
     12 C19         1.4120    0.0360   -2.9000 c3        1 RAZ     -0.113000
     13 C31         1.3450    0.3760    1.5220 c2        1 RAZ     -0.219000
     14 C32         1.8660    0.5370    2.7350 c2        1 RAZ     -0.127000
     15 H01         1.6770   -1.9070   -3.4400 hn        1 RAZ      0.191000
     16 H021       -2.5320    1.2540    0.1700 hc        1 RAZ      0.221000
     17 H022       -0.1950    0.5460   -0.8290 ha        1 RAZ      0.200000
     18 H031       -2.8740   -1.2550    1.7630 hc        1 RAZ      0.129000
     19 H032       -2.9550    0.4490    2.3510 hc        1 RAZ      0.129000
     20 H05         0.3610   -1.4100    0.9390 hc        1 RAZ      0.205000
     21 H071       -0.7570    0.3900    3.1430 hc        1 RAZ      0.129500
     22 H072       -0.8490   -1.4040    2.9420 hc        1 RAZ      0.129500
     23 H08        -2.6420   -0.4250   -0.4390 hc        1 RAZ      0.221000
     24 H09        -0.2340   -2.8950   -2.8400 h1        1 RAZ      0.047500
     25 H101       -2.4260   -2.7560   -1.8040 ha        1 RAZ      0.130000
     26 H102       -1.6770   -1.2970   -4.1490 hc        1 RAZ      0.100500
     27 H111       -1.5210   -0.0600   -2.8470 hc        1 RAZ      0.100500
     28 H112       -0.0780   -1.6630   -1.5070 h1        1 RAZ      0.047500
     29 H171       -3.9630   -0.1720   -4.1460 hc        1 RAZ      0.093667
     30 H172       -3.7580    0.7900   -2.6270 hc        1 RAZ      0.093667
     31 H173       -5.3790    0.0870   -3.0410 hc        1 RAZ      0.093667
     32 H181       -5.5800   -1.3480   -0.9910 hc        1 RAZ      0.093667
     33 H182       -5.7450   -2.4240   -2.4370 hc        1 RAZ      0.093667
     34 H183       -4.6630   -2.9150   -1.0690 hc        1 RAZ      0.093667
     35 H191        1.7260    0.0500   -1.8150 h1        1 RAZ      0.065000
     36 H192        0.6050    0.8040   -3.0390 h1        1 RAZ      0.065000
     37 H193        2.2960    0.3330   -3.5250 h1        1 RAZ      0.065000
     38 H321        1.8680    0.7390    0.6200 ha        1 RAZ      0.144000
     39 H322        2.8270    1.0560    2.8820 ha        1 RAZ      0.144000
     40 H323        1.3930    0.1690    3.6580 ha        1 RAZ      0.144000
     41 C10        -1.5280   -1.1680   -3.0400 c3        1 RAZ     -0.145000
@<TRIPOS>BOND
     1    1    2 1   
     2    1    3 1   
     3    1   16 1   
     4    1   23 1   
     5    2    4 1   
     6    2   17 1   
     7    3    5 1   
     8    3   18 1   
     9    3   19 1   
    10    4    5 1   
    11    4   13 1   
    12    4   20 1   
    13    5   21 1   
    14    5   22 1   
    15    6    8 1   
    16    6   12 1   
    17    6   15 1   
    18    7    9 1   
    19    7   25 1   
    20    7   41 1   
    21    8   24 1   
    22    8   28 1   
    23    8   41 1   
    24    9   10 1   
    25    9   11 1   
    26   10   29 1   
    27   10   30 1   
    28   10   31 1   
    29   11   32 1   
    30   11   33 1   
    31   11   34 1   
    32   12   35 1   
    33   12   36 1   
    34   12   37 1   
    35   13   14 1   
    36   13   38 1   
    37   14   39 1   
    38   14   40 1   
    39   26   41 1   
    40   27   41 1   
@<TRIPOS>SUBSTRUCTURE
     1 RAZ         1 TEMP              0 ****  ****    0 ROOT
