@<TRIPOS>MOLECULE
RAZ
   41    41     1     0     0
SMALL
bcc


@<TRIPOS>ATOM
      1 C01        -1.4660   -0.4270    0.2020 c3        1 RAZ      0.125500
      2 C02        -2.6670   -1.3520   -0.0460 c3        1 RAZ     -0.052200
      3 C03        -1.6380    0.8420   -0.6440 c3        1 RAZ     -0.099400
      4 C05        -3.9440   -0.6080    0.0750 c2        1 RAZ     -0.200200
      5 C07        -2.8600    1.6040   -0.1650 c3        1 RAZ     -0.051200
      6 N08        -0.1380   -1.1050   -0.0870 n4        1 RAZ     -0.685400
      7 C09         3.3760    0.2180    0.5700 c2        1 RAZ     -0.248200
      8 C11         0.9910   -0.3640    0.5720 c3        1 RAZ      0.104800
      9 C14         4.5190    0.6080   -0.0200 c2        1 RAZ     -0.039400
     10 C17         4.8430    0.2930   -1.4320 c3        1 RAZ     -0.079400
     11 C18         5.5400    1.3890    0.7190 c3        1 RAZ     -0.079400
     12 C19        -0.1330   -2.5280    0.3310 c3        1 RAZ      0.083100
     13 C31        -4.0490    0.7270    0.0090 c2        1 RAZ     -0.082400
     14 C32        -5.3490    1.4290    0.1180 c3        1 RAZ     -0.069900
     15 H01        -1.4440   -0.1500    1.2980 hx        1 RAZ      0.107700
     16 H021       -2.6100   -1.8040   -1.0740 hc        1 RAZ      0.066700
     17 H022       -2.6660   -2.1910    0.7030 hc        1 RAZ      0.066700
     18 H031       -0.7420    1.5120   -0.5720 hc        1 RAZ      0.065700
     19 H032       -1.7710    0.5590   -1.7220 hc        1 RAZ      0.065700
     20 H05        -4.8330   -1.2470    0.2080 ha        1 RAZ      0.157000
     21 H071       -2.6360    2.1100    0.8140 hc        1 RAZ      0.078200
     22 H072       -3.0920    2.4140   -0.9100 hc        1 RAZ      0.078200
     23 H08         0.0100   -1.0700   -1.1050 hn        1 RAZ      0.442800
     24 H09         3.1810    0.4650    1.6260 ha        1 RAZ      0.134000
     25 H101        2.2720   -0.2920   -1.2000 hc        1 RAZ      0.062200
     26 H102        2.6260   -1.6730   -0.0790 hc        1 RAZ      0.062200
     27 H111        0.7510    0.7380    0.5590 hx        1 RAZ      0.104700
     28 H112        1.0440   -0.7010    1.6460 hx        1 RAZ      0.104700
     29 H171        4.6690   -0.7910   -1.6480 hc        1 RAZ      0.057033
     30 H172        4.1970    0.8960   -2.1200 hc        1 RAZ      0.057033
     31 H173        5.9120    0.5280   -1.6630 hc        1 RAZ      0.057033
     32 H181        6.4880    0.7970    0.7930 hc        1 RAZ      0.057033
     33 H182        5.7650    2.3380    0.1700 hc        1 RAZ      0.057033
     34 H183        5.2030    1.6470    1.7520 hc        1 RAZ      0.057033
     35 H191        0.9080   -2.9390    0.2330 hx        1 RAZ      0.102367
     36 H192       -0.4640   -2.6070    1.4010 hx        1 RAZ      0.102367
     37 H193       -0.8270   -3.1200   -0.3230 hx        1 RAZ      0.102367
     38 H321       -6.1780    0.7240    0.3710 hc        1 RAZ      0.060700
     39 H322       -5.2970    2.2160    0.9130 hc        1 RAZ      0.060700
     40 H323       -5.5950    1.9290   -0.8530 hc        1 RAZ      0.060700
     41 C10         2.3370   -0.5860   -0.1160 c3        1 RAZ     -0.052200
@<TRIPOS>BOND
     1    1    2 1   
     2    1    3 1   
     3    1    6 1   
     4    1   15 1   
     5    2    4 1   
     6    2   16 1   
     7    2   17 1   
     8    3    5 1   
     9    3   18 1   
    10    3   19 1   
    11    4   13 2   
    12    4   20 1   
    13    5   13 1   
    14    5   21 1   
    15    5   22 1   
    16    6    8 1   
    17    6   12 1   
    18    6   23 1   
    19    7    9 2   
    20    7   24 1   
    21    7   41 1   
    22    8   27 1   
    23    8   28 1   
    24    8   41 1   
    25    9   10 1   
    26    9   11 1   
    27   10   29 1   
    28   10   30 1   
    29   10   31 1   
    30   11   32 1   
    31   11   33 1   
    32   11   34 1   
    33   12   35 1   
    34   12   36 1   
    35   12   37 1   
    36   13   14 1   
    37   14   38 1   
    38   14   39 1   
    39   14   40 1   
    40   25   41 1   
    41   26   41 1   
@<TRIPOS>SUBSTRUCTURE
     1 RAZ         1 TEMP              0 ****  ****    0 ROOT
