@<TRIPOS>MOLECULE
RB0
   22    21     1     0     0
SMALL
bcc


@<TRIPOS>ATOM
      1 C1          0.0590   -0.1750   -0.2580 c3        1 RB0      0.089400
      2 O1         -0.3460   -1.3720    0.3870 oh        1 RB0     -0.613800
      3 C2          1.5350    0.0300    0.1060 c3        1 RB0      0.117100
      4 O2          1.6920    0.0980    1.5130 oh        1 RB0     -0.593800
      5 C3          2.0280    1.3680   -0.4720 c3        1 RB0      0.155100
      6 O3          1.5580    2.4570    0.2900 oh        1 RB0     -0.594800
      7 C4          3.5620    1.4000   -0.6000 c3        1 RB0      0.117100
      8 O4          4.0820    1.7180    0.6800 oh        1 RB0     -0.593800
      9 C5          3.9720    2.4660   -1.6240 c3        1 RB0      0.089400
     10 O5          5.3910    2.5010   -1.6130 oh        1 RB0     -0.613800
     11 H1         -0.0600   -0.2840   -1.3680 h1        1 RB0      0.041700
     12 H1A        -0.5450    0.6980    0.1050 h1        1 RB0      0.041700
     13 HO1        -1.3080   -1.4020    0.3430 ho        1 RB0      0.410000
     14 H2          2.1440   -0.8250   -0.3000 h1        1 RB0      0.050700
     15 HO2         1.2590   -0.6860    1.8770 ho        1 RB0      0.423000
     16 H3          1.5750    1.5120   -1.4950 h1        1 RB0      0.069700
     17 HO3         1.9320    2.3630    1.1800 ho        1 RB0      0.440000
     18 H4          3.9520    0.3960   -0.9260 h1        1 RB0      0.050700
     19 HO4         5.0300    1.8670    0.5630 ho        1 RB0      0.423000
     20 H5          3.6080    2.1870   -2.6470 h1        1 RB0      0.041700
     21 H5A         3.5460    3.4600   -1.3250 h1        1 RB0      0.041700
     22 HO5         5.6540    3.2980   -2.0870 ho        1 RB0      0.410000
@<TRIPOS>BOND
     1    1    2 1   
     2    1    3 1   
     3    1   11 1   
     4    1   12 1   
     5    2   13 1   
     6    3    4 1   
     7    3    5 1   
     8    3   14 1   
     9    4   15 1   
    10    5    6 1   
    11    5    7 1   
    12    5   16 1   
    13    6   17 1   
    14    7    8 1   
    15    7    9 1   
    16    7   18 1   
    17    8   19 1   
    18    9   10 1   
    19    9   20 1   
    20    9   21 1   
    21   10   22 1   
@<TRIPOS>SUBSTRUCTURE
     1 RB0         1 TEMP              0 ****  ****    0 ROOT
