@<TRIPOS>MOLECULE
RB0
   22    21     1     0     0
SMALL
bcc


@<TRIPOS>ATOM
      1 C1         -2.0220   -0.8940    0.5410 c3        1 RB0      0.105400
      2 O1         -2.7330   -0.4340    1.6770 oh        1 RB0     -0.589800
      3 C2         -1.2810    0.3160   -0.0410 c3        1 RB0      0.109100
      4 O2         -2.1040    1.0490   -0.9280 oh        1 RB0     -0.584800
      5 C3          0.0000   -0.1310   -0.7720 c3        1 RB0      0.071100
      6 O3          0.0010    0.3870   -2.0910 oh        1 RB0     -0.603800
      7 C4          1.2820    0.3150   -0.0400 c3        1 RB0      0.109100
      8 O4          2.1060    1.0460   -0.9270 oh        1 RB0     -0.584800
      9 C5          2.0210   -0.8960    0.5430 c3        1 RB0      0.105400
     10 O5          2.7310   -0.4360    1.6790 oh        1 RB0     -0.589800
     11 H1         -1.2900   -1.6860    0.8590 h1        1 RB0      0.027700
     12 H1A        -2.7240   -1.3230   -0.2220 h1        1 RB0      0.027700
     13 HO1        -3.3500   -1.1330    1.9210 ho        1 RB0      0.403000
     14 H2         -1.0580    1.0500    0.7870 h1        1 RB0      0.108700
     15 HO2        -2.2700    0.4930   -1.7020 ho        1 RB0      0.408000
     16 H3         -0.0000   -1.2470   -0.9290 h1        1 RB0      0.074700
     17 HO3         0.0020    1.3530   -2.0230 ho        1 RB0      0.429000
     18 H4          1.0590    1.0490    0.7880 h1        1 RB0      0.108700
     19 HO4         2.2720    0.4900   -1.7000 ho        1 RB0      0.408000
     20 H5          1.2880   -1.6870    0.8610 h1        1 RB0      0.027700
     21 H5A         2.7230   -1.3260   -0.2200 h1        1 RB0      0.027700
     22 HO5         3.3470   -1.1360    1.9240 ho        1 RB0      0.403000
@<TRIPOS>BOND
     1    1    2 1   
     2    1    3 1   
     3    1   11 1   
     4    1   12 1   
     5    2   13 1   
     6    3    4 1   
     7    3    5 1   
     8    3   14 1   
     9    4   15 1   
    10    5    6 1   
    11    5    7 1   
    12    5   16 1   
    13    6   17 1   
    14    7    8 1   
    15    7    9 1   
    16    7   18 1   
    17    8   19 1   
    18    9   10 1   
    19    9   20 1   
    20    9   21 1   
    21   10   22 1   
@<TRIPOS>SUBSTRUCTURE
     1 RB0         1 TEMP              0 ****  ****    0 ROOT
