@<TRIPOS>MOLECULE
RB0
   22    21     1     0     0
SMALL
bcc


@<TRIPOS>ATOM
      1 C1          0.0460   -0.1530   -0.2910 c3        1 RB0      0.089400
      2 O1         -0.3720   -1.3630    0.3210 oh        1 RB0     -0.613800
      3 C2          1.5240    0.0260    0.0780 c3        1 RB0      0.117100
      4 O2          1.6820    0.0530    1.4860 oh        1 RB0     -0.593800
      5 C3          2.0320    1.3750   -0.4630 c3        1 RB0      0.155100
      6 O3          1.5750    2.4470    0.3310 oh        1 RB0     -0.594800
      7 C4          3.5660    1.3920   -0.5920 c3        1 RB0      0.117100
      8 O4          4.0910    1.6650    0.6960 oh        1 RB0     -0.593800
      9 C5          3.9860    2.4840   -1.5840 c3        1 RB0      0.089400
     10 O5          5.4050    2.5030   -1.5750 oh        1 RB0     -0.613800
     11 H1         -0.0740   -0.2300   -1.4030 h1        1 RB0      0.041700
     12 H1A        -0.5480    0.7160    0.0970 h1        1 RB0      0.041700
     13 HO1        -1.3350   -1.3810    0.2750 ho        1 RB0      0.410000
     14 H2          2.1240   -0.8230   -0.3510 h1        1 RB0      0.050700
     15 HO2         1.2400   -0.7360    1.8290 ho        1 RB0      0.423000
     16 H3          1.5790    1.5530   -1.4800 h1        1 RB0      0.069700
     17 HO3         1.9490    2.3230    1.2170 ho        1 RB0      0.440000
     18 H4          3.9440    0.3950   -0.9490 h1        1 RB0      0.050700
     19 HO4         5.0410    1.8070    0.5810 ho        1 RB0      0.423000
     20 H5          3.6170    2.2410   -2.6150 h1        1 RB0      0.041700
     21 H5A         3.5720    3.4730   -1.2550 h1        1 RB0      0.041700
     22 HO5         5.6770    3.3100   -2.0250 ho        1 RB0      0.410000
@<TRIPOS>BOND
     1    1    2 1   
     2    1    3 1   
     3    1   11 1   
     4    1   12 1   
     5    2   13 1   
     6    3    4 1   
     7    3    5 1   
     8    3   14 1   
     9    4   15 1   
    10    5    6 1   
    11    5    7 1   
    12    5   16 1   
    13    6   17 1   
    14    7    8 1   
    15    7    9 1   
    16    7   18 1   
    17    8   19 1   
    18    9   10 1   
    19    9   20 1   
    20    9   21 1   
    21   10   22 1   
@<TRIPOS>SUBSTRUCTURE
     1 RB0         1 TEMP              0 ****  ****    0 ROOT
