@<TRIPOS>MOLECULE
RB1
   41    43     1     0     0
SMALL
bcc


@<TRIPOS>ATOM
      1 C20         3.2040    3.0790   -0.5420 c3        1 RB1     -0.105433
      2 C19         3.3490    1.6700    0.0590 c3        1 RB1      0.099700
      3 C21         4.5810    1.0140   -0.5840 c3        1 RB1     -0.105433
      4 C22         3.6080    1.8320    1.5650 c3        1 RB1     -0.105433
      5 N7          2.1380    0.8480   -0.1750 na        1 RB1      0.003200
      6 N8          1.0660    1.2800   -0.8660 nc        1 RB1     -0.516100
      7 C3          1.9590   -0.4850    0.2450 ca        1 RB1      0.474800
      8 N2          2.7800   -1.3200    0.9580 nb        1 RB1     -0.742000
      9 C1          2.2380   -2.5380    1.1690 ca        1 RB1      0.690900
     10 N6          1.0270   -3.0350    0.7960 nb        1 RB1     -0.798000
     11 C5          0.2030   -2.2060    0.0740 ca        1 RB1      0.748200
     12 N10        -1.0110   -2.6670   -0.3960 nh        1 RB1     -0.942500
     13 C4          0.6410   -0.8810   -0.2340 ca        1 RB1     -0.492500
     14 C9          0.1430    0.2870   -0.9310 cd        1 RB1      0.376900
     15 C11        -1.1450    0.4040   -1.6590 c3        1 RB1     -0.053400
     16 C12        -2.3260    0.4860   -0.7500 ca        1 RB1     -0.052300
     17 C13        -3.4490   -0.3030   -1.0110 ca        1 RB1     -0.179000
     18 C17        -2.3330    1.3740    0.3330 ca        1 RB1     -0.150000
     19 C16        -3.4530    1.4720    1.1550 ca        1 RB1     -0.086000
     20 C15        -4.5810    0.6910    0.9120 ca        1 RB1     -0.213000
     21 C14        -4.5720   -0.1940   -0.1750 ca        1 RB1      0.126100
     22 O18        -5.6410   -1.0050   -0.4830 oh        1 RB1     -0.499100
     23 H201        3.0610    3.0310   -1.6470 hc        1 RB1      0.051589
     24 H202        2.3440    3.6230   -0.0860 hc        1 RB1      0.051589
     25 H203        4.1410    3.6490   -0.3280 hc        1 RB1      0.051589
     26 H211        5.4630    1.6800   -0.4180 hc        1 RB1      0.051589
     27 H212        4.7980    0.0210   -0.1270 hc        1 RB1      0.051589
     28 H213        4.4330    0.8850   -1.6830 hc        1 RB1      0.051589
     29 H221        2.7330    2.3080    2.0690 hc        1 RB1      0.051589
     30 H222        3.8180    0.8500    2.0510 hc        1 RB1      0.051589
     31 H223        4.5000    2.4900    1.7010 hc        1 RB1      0.051589
     32 H1          2.8720   -3.2490    1.7440 h5        1 RB1      0.050100
     33 H101       -1.6860   -1.9770   -0.6350 hn        1 RB1      0.432300
     34 H102       -1.3540   -3.5320   -0.0470 hn        1 RB1      0.432300
     35 H111       -1.1450    1.3240   -2.3110 hc        1 RB1      0.074200
     36 H112       -1.2390   -0.4830   -2.3450 hc        1 RB1      0.074200
     37 H13        -3.4790   -0.9930   -1.8670 ha        1 RB1      0.150000
     38 H17        -1.4450    1.9930    0.5320 ha        1 RB1      0.149000
     39 H16        -3.4490    2.1720    2.0040 ha        1 RB1      0.137000
     40 H15        -5.4660    0.7680    1.5590 ha        1 RB1      0.136000
     41 H18        -6.3510   -0.8140    0.1470 ho        1 RB1      0.421000
@<TRIPOS>BOND
     1    1    2 1   
     2    1   23 1   
     3    1   24 1   
     4    1   25 1   
     5    2    3 1   
     6    2    4 1   
     7    2    5 1   
     8    3   26 1   
     9    3   27 1   
    10    3   28 1   
    11    4   29 1   
    12    4   30 1   
    13    4   31 1   
    14    5    6 1   
    15    5    7 1   
    16    6   14 2   
    17    7    8 ar  
    18    7   13 ar  
    19    8    9 ar  
    20    9   10 ar  
    21    9   32 1   
    22   10   11 ar  
    23   11   12 1   
    24   11   13 ar  
    25   12   33 1   
    26   12   34 1   
    27   13   14 1   
    28   14   15 1   
    29   15   16 1   
    30   15   35 1   
    31   15   36 1   
    32   16   17 ar  
    33   16   18 ar  
    34   17   21 ar  
    35   17   37 1   
    36   18   19 ar  
    37   18   38 1   
    38   19   20 ar  
    39   19   39 1   
    40   20   21 ar  
    41   20   40 1   
    42   21   22 1   
    43   22   41 1   
@<TRIPOS>SUBSTRUCTURE
     1 RB1         1 TEMP              0 ****  ****    0 ROOT
