@<TRIPOS>MOLECULE
RB1
   41    43     1     0     0
SMALL
bcc


@<TRIPOS>ATOM
      1 C20        -0.1090    0.1550    0.5050 c3        1 RB1     -0.105433
      2 C19         1.4160    0.0830    0.3200 c3        1 RB1      0.099700
      3 C21         2.0600    0.1940    1.7110 c3        1 RB1     -0.105433
      4 C22         1.7480   -1.2980   -0.2680 c3        1 RB1     -0.105433
      5 N7          1.9110    1.1600   -0.5720 na        1 RB1      0.003200
      6 N8          1.1170    2.1040   -1.1130 nc        1 RB1     -0.516100
      7 C3          3.2560    1.3690   -0.9360 ca        1 RB1      0.474800
      8 N2          4.3910    0.6710   -0.6150 nb        1 RB1     -0.742000
      9 C1          5.5050    1.1900   -1.1750 ca        1 RB1      0.690900
     10 N6          5.6530    2.2670   -1.9950 nb        1 RB1     -0.798000
     11 C5          4.5190    2.9750   -2.3130 ca        1 RB1      0.748200
     12 N10         4.6060    4.1180   -3.0830 nh        1 RB1     -0.942500
     13 C4          3.2600    2.5490   -1.7900 ca        1 RB1     -0.492500
     14 C9          1.8720    2.9580   -1.8490 cd        1 RB1      0.376900
     15 C11         1.3250    4.1470   -2.5500 c3        1 RB1     -0.053400
     16 C12         1.3070    3.9940   -4.0340 ca        1 RB1     -0.052300
     17 C13         1.7780    5.0360   -4.8380 ca        1 RB1     -0.179000
     18 C17         0.7850    2.8370   -4.6270 ca        1 RB1     -0.150000
     19 C16         0.7370    2.7180   -6.0140 ca        1 RB1     -0.086000
     20 C15         1.2050    3.7450   -6.8300 ca        1 RB1     -0.213000
     21 C14         1.7230    4.9030   -6.2340 ca        1 RB1      0.126100
     22 O18         2.2110    5.9620   -6.9660 oh        1 RB1     -0.499100
     23 H201       -0.6380    0.0440   -0.4710 hc        1 RB1      0.051589
     24 H202       -0.4210   -0.6800    1.1770 hc        1 RB1      0.051589
     25 H203       -0.4120    1.1210    0.9740 hc        1 RB1      0.051589
     26 H211        1.6350   -0.6090    2.3610 hc        1 RB1      0.051589
     27 H212        1.8350    1.1840    2.1740 hc        1 RB1      0.051589
     28 H213        3.1660    0.0590    1.6590 hc        1 RB1      0.051589
     29 H221        1.3230   -2.0790    0.4080 hc        1 RB1      0.051589
     30 H222        2.8490   -1.4560   -0.3410 hc        1 RB1      0.051589
     31 H223        1.2950   -1.4170   -1.2810 hc        1 RB1      0.051589
     32 H1          6.4510    0.6550   -0.9390 h5        1 RB1      0.050100
     33 H101        3.7700    4.4140   -3.5330 hn        1 RB1      0.432300
     34 H102        5.4610    4.3070   -3.5520 hn        1 RB1      0.432300
     35 H111        0.2710    4.3520   -2.2090 hc        1 RB1      0.074200
     36 H112        1.9440    5.0390   -2.2550 hc        1 RB1      0.074200
     37 H13         2.1740    5.9640   -4.4000 ha        1 RB1      0.150000
     38 H17         0.4140    2.0210   -3.9880 ha        1 RB1      0.149000
     39 H16         0.3250    1.8050   -6.4700 ha        1 RB1      0.137000
     40 H15         1.1670    3.6520   -7.9240 ha        1 RB1      0.136000
     41 H18         2.0910    5.7560   -7.9040 ho        1 RB1      0.421000
@<TRIPOS>BOND
     1    1    2 1   
     2    1   23 1   
     3    1   24 1   
     4    1   25 1   
     5    2    3 1   
     6    2    4 1   
     7    2    5 1   
     8    3   26 1   
     9    3   27 1   
    10    3   28 1   
    11    4   29 1   
    12    4   30 1   
    13    4   31 1   
    14    5    6 1   
    15    5    7 1   
    16    6   14 2   
    17    7    8 ar  
    18    7   13 ar  
    19    8    9 ar  
    20    9   10 ar  
    21    9   32 1   
    22   10   11 ar  
    23   11   12 1   
    24   11   13 ar  
    25   12   33 1   
    26   12   34 1   
    27   13   14 1   
    28   14   15 1   
    29   15   16 1   
    30   15   35 1   
    31   15   36 1   
    32   16   17 ar  
    33   16   18 ar  
    34   17   21 ar  
    35   17   37 1   
    36   18   19 ar  
    37   18   38 1   
    38   19   20 ar  
    39   19   39 1   
    40   20   21 ar  
    41   20   40 1   
    42   21   22 1   
    43   22   41 1   
@<TRIPOS>SUBSTRUCTURE
     1 RB1         1 TEMP              0 ****  ****    0 ROOT
