@<TRIPOS>MOLECULE
RB1
   42    44     1     0     0
SMALL
bcc


@<TRIPOS>ATOM
      1 C20        -0.0590    0.1330    0.7500 c3        1 RB1     -0.112767
      2 C19         1.4480    0.0530    0.4600 c3        1 RB1      0.091700
      3 C21         2.1990    0.2160    1.7870 c3        1 RB1     -0.112767
      4 C22         1.7490   -1.3310   -0.1290 c3        1 RB1     -0.112767
      5 N7          1.8700    1.1230   -0.5040 na        1 RB1      0.043200
      6 N8          1.0340    2.0300   -1.0210 nc        1 RB1     -0.438100
      7 C3          3.1790    1.3260   -0.9720 ca        1 RB1      0.459800
      8 N2          4.3470    0.6640   -0.7240 nb        1 RB1     -0.626000
      9 C1          5.4190    1.1580   -1.3730 ca        1 RB1      0.679900
     10 N6          5.4770    2.2220   -2.2400 nb        1 RB1     -0.698000
     11 C5          4.3160    2.8670   -2.4780 ca        1 RB1      0.560200
     12 N10         4.3300    4.0060   -3.4170 n4        1 RB1     -0.830300
     13 C4          3.1020    2.4910   -1.8770 ca        1 RB1     -0.431500
     14 C9          1.7070    2.8760   -1.8460 cd        1 RB1      0.349900
     15 C11         1.0760    4.0250   -2.5430 c3        1 RB1     -0.063400
     16 C12         1.2750    3.9900   -4.0200 ca        1 RB1     -0.079300
     17 C13         1.9140    5.0630   -4.6550 ca        1 RB1     -0.251000
     18 C17         0.7850    2.9230   -4.7790 ca        1 RB1     -0.151000
     19 C16         0.9240    2.9240   -6.1690 ca        1 RB1     -0.066000
     20 C15         1.5720    3.9730   -6.8150 ca        1 RB1     -0.200000
     21 C14         2.0670    5.0410   -6.0510 ca        1 RB1      0.133100
     22 O18         2.7620    6.0920   -6.5950 oh        1 RB1     -0.500100
     23 H201       -0.3160   -0.6840    1.4670 hc        1 RB1      0.063478
     24 H202       -0.3320    1.1100    1.2140 hc        1 RB1      0.063478
     25 H203       -0.6590   -0.0110   -0.1800 hc        1 RB1      0.063478
     26 H211        3.2980    0.0740    1.6600 hc        1 RB1      0.063478
     27 H212        1.8270   -0.5660    2.4940 hc        1 RB1      0.063478
     28 H213        2.0070    1.2190    2.2370 hc        1 RB1      0.063478
     29 H221        1.3780   -2.1010    0.5910 hc        1 RB1      0.063478
     30 H222        2.8440   -1.4890   -0.2730 hc        1 RB1      0.063478
     31 H223        1.2240   -1.4760   -1.1030 hc        1 RB1      0.063478
     32 H1          6.3930    0.6450   -1.1940 h5        1 RB1      0.097100
     33 H101        3.8490    4.8030   -2.9800 hn        1 RB1      0.478133
     34 H102        3.8040    3.7450   -4.2690 hn        1 RB1      0.478133
     35 H111       -0.0350    4.0450   -2.3370 hc        1 RB1      0.089700
     36 H112        1.4990    4.9740   -2.1080 hc        1 RB1      0.089700
     37 H13         2.2120    5.9640   -4.0990 ha        1 RB1      0.150000
     38 H17         0.2670    2.0890   -4.2800 ha        1 RB1      0.158000
     39 H16         0.5130    2.0890   -6.7600 ha        1 RB1      0.161000
     40 H15         1.6760    3.9780   -7.9110 ha        1 RB1      0.160000
     41 H18         2.6250    6.0880   -7.5560 ho        1 RB1      0.445000
     42 H103        5.2900    4.2720   -3.6700 hn        1 RB1      0.478133
@<TRIPOS>BOND
     1    1    2 1   
     2    1   23 1   
     3    1   24 1   
     4    1   25 1   
     5    2    3 1   
     6    2    4 1   
     7    2    5 1   
     8    3   26 1   
     9    3   27 1   
    10    3   28 1   
    11    4   29 1   
    12    4   30 1   
    13    4   31 1   
    14    5    6 1   
    15    5    7 1   
    16    6   14 2   
    17    7    8 ar  
    18    7   13 ar  
    19    8    9 ar  
    20    9   10 ar  
    21    9   32 1   
    22   10   11 ar  
    23   11   12 1   
    24   11   13 ar  
    25   12   33 1   
    26   12   34 1   
    27   12   42 1   
    28   13   14 1   
    29   14   15 1   
    30   15   16 1   
    31   15   35 1   
    32   15   36 1   
    33   16   17 ar  
    34   16   18 ar  
    35   17   21 ar  
    36   17   37 1   
    37   18   19 ar  
    38   18   38 1   
    39   19   20 ar  
    40   19   39 1   
    41   20   21 ar  
    42   20   40 1   
    43   21   22 1   
    44   22   41 1   
@<TRIPOS>SUBSTRUCTURE
     1 RB1         1 TEMP              0 ****  ****    0 ROOT
