@<TRIPOS>MOLECULE
RB1
   41    43     1     0     0
SMALL
bcc


@<TRIPOS>ATOM
      1 C20        -0.1340    0.2160    0.5290 c3        1 RB1     -0.105433
      2 C19         1.3870    0.1020    0.3270 c3        1 RB1      0.099700
      3 C21         2.0480    0.1950    1.7110 c3        1 RB1     -0.105433
      4 C22         1.6750   -1.2870   -0.2640 c3        1 RB1     -0.105433
      5 N7          1.9010    1.1650   -0.5690 na        1 RB1      0.003200
      6 N8          1.1280    2.1300   -1.1020 nc        1 RB1     -0.516100
      7 C3          3.2480    1.3390   -0.9470 ca        1 RB1      0.474800
      8 N2          4.3680    0.6110   -0.6380 nb        1 RB1     -0.742000
      9 C1          5.4890    1.1000   -1.2090 ca        1 RB1      0.690900
     10 N6          5.6570    2.1730   -2.0310 nb        1 RB1     -0.798000
     11 C5          4.5390    2.9110   -2.3370 ca        1 RB1      0.748200
     12 N10         4.6480    4.0510   -3.1090 nv        1 RB1     -0.942500
     13 C4          3.2750    2.5180   -1.8020 ca        1 RB1     -0.492500
     14 C9          1.8970    2.9640   -1.8460 cd        1 RB1      0.376900
     15 C11         1.3750    4.1670   -2.5420 c3        1 RB1     -0.053400
     16 C12         1.3380    4.0160   -4.0260 ca        1 RB1     -0.052300
     17 C13         1.8280    5.0450   -4.8340 ca        1 RB1     -0.179000
     18 C17         0.7810    2.8730   -4.6130 ca        1 RB1     -0.150000
     19 C16         0.7150    2.7550   -5.9990 ca        1 RB1     -0.086000
     20 C15         1.2020    3.7700   -6.8210 ca        1 RB1     -0.213000
     21 C14         1.7560    4.9130   -6.2300 ca        1 RB1      0.126100
     22 O18         2.2640    5.9600   -6.9670 oh        1 RB1     -0.499100
     23 H201       -0.4600   -0.6120    1.2040 hc        1 RB1      0.051589
     24 H202       -0.6760    0.1190   -0.4420 hc        1 RB1      0.051589
     25 H203       -0.4050    1.1890    1.0010 hc        1 RB1      0.051589
     26 H211        1.6090   -0.5960    2.3660 hc        1 RB1      0.051589
     27 H212        3.1490    0.0300    1.6480 hc        1 RB1      0.051589
     28 H213        1.8550    1.1910    2.1770 hc        1 RB1      0.051589
     29 H221        1.2370   -2.0570    0.4160 hc        1 RB1      0.051589
     30 H222        2.7720   -1.4740   -0.3480 hc        1 RB1      0.051589
     31 H223        1.2090   -1.3940   -1.2720 hc        1 RB1      0.051589
     32 H1          6.4220    0.5400   -0.9840 h5        1 RB1      0.050100
     33 H101        5.5030    4.2180   -3.5870 hn        1 RB1      0.432300
     34 H102        3.8160    4.3700   -3.5500 hn        1 RB1      0.432300
     35 H111        0.3300    4.4010   -2.1910 hc        1 RB1      0.074200
     36 H112        2.0210    5.0430   -2.2530 hc        1 RB1      0.074200
     37 H13         2.2530    5.9620   -4.4000 ha        1 RB1      0.150000
     38 H17         0.3950    2.0670   -3.9700 ha        1 RB1      0.149000
     39 H16         0.2760    1.8530   -6.4520 ha        1 RB1      0.137000
     40 H15         1.1510    3.6780   -7.9150 ha        1 RB1      0.136000
     41 H18         2.1290    5.7570   -7.9040 ho        1 RB1      0.421000
@<TRIPOS>BOND
     1    1    2 1   
     2    1   23 1   
     3    1   24 1   
     4    1   25 1   
     5    2    3 1   
     6    2    4 1   
     7    2    5 1   
     8    3   26 1   
     9    3   27 1   
    10    3   28 1   
    11    4   29 1   
    12    4   30 1   
    13    4   31 1   
    14    5    6 1   
    15    5    7 1   
    16    6   14 2   
    17    7    8 ar  
    18    7   13 ar  
    19    8    9 ar  
    20    9   10 ar  
    21    9   32 1   
    22   10   11 ar  
    23   11   12 1   
    24   11   13 ar  
    25   12   33 1   
    26   12   34 1   
    27   13   14 1   
    28   14   15 1   
    29   15   16 1   
    30   15   35 1   
    31   15   36 1   
    32   16   17 ar  
    33   16   18 ar  
    34   17   21 ar  
    35   17   37 1   
    36   18   19 ar  
    37   18   38 1   
    38   19   20 ar  
    39   19   39 1   
    40   20   21 ar  
    41   20   40 1   
    42   21   22 1   
    43   22   41 1   
@<TRIPOS>SUBSTRUCTURE
     1 RB1         1 TEMP              0 ****  ****    0 ROOT
