@<TRIPOS>MOLECULE
RB2
   38    38     1     0     0
SMALL
bcc


@<TRIPOS>ATOM
      1 O17         0.6630    0.8240    0.1410 oh        1 RB2     -0.625800
      2 C15         2.0410    0.5950    0.2780 c3        1 RB2      0.344900
      3 O16         2.6110    1.8650    0.4020 oh        1 RB2     -0.625800
      4 C13         2.3500   -0.1580    1.6280 c3        1 RB2      0.307300
      5 O14         3.4500   -0.9740    1.3440 oh        1 RB2     -0.570800
      6 N12         1.1960   -1.0600    2.0590 n4        1 RB2     -0.801000
      7 C6          0.6670   -0.7720    3.4380 c3        1 RB2      0.137500
      8 C5          1.1190   -1.8260    4.4660 c3        1 RB2     -0.078700
      9 C8          2.6470   -1.9980    4.5210 c3        1 RB2      0.316900
     10 O10         3.2780   -0.7690    4.2240 oh        1 RB2     -0.653800
     11 O9          3.0290   -2.8180    3.4270 os        1 RB2     -0.490600
     12 C11         4.2230   -3.5660    3.6380 c3        1 RB2      0.111700
     13 C4          0.6150   -1.4190    5.8450 c3        1 RB2     -0.089400
     14 C3         -0.8980   -1.2910    5.8520 c3        1 RB2      0.034700
     15 CL         -1.4460   -0.7970    7.4470 cl        1 RB2     -0.135400
     16 C2         -1.3680   -0.2970    4.8050 c3        1 RB2     -0.088400
     17 C1         -0.8680   -0.6930    3.4310 c3        1 RB2     -0.104400
     18 H17         0.4750    1.7600    0.3180 ho        1 RB2      0.459500
     19 H15         2.3970   -0.0160   -0.5960 h2        1 RB2      0.113700
     20 H16         3.2130    2.0190   -0.3390 ho        1 RB2      0.459500
     21 H13         2.5660    0.5830    2.4540 hx        1 RB2      0.130700
     22 H14         3.9040   -1.1960    2.1780 ho        1 RB2      0.459000
     23 H12         1.5310   -2.0350    2.0180 hn        1 RB2      0.465300
     24 H6          1.0770    0.2330    3.7640 hx        1 RB2      0.117700
     25 H5          0.6810   -2.8280    4.1920 hc        1 RB2      0.092700
     26 H8          2.9710   -2.4260    5.5090 h2        1 RB2      0.084700
     27 H10         4.1110   -0.7250    4.7100 ho        1 RB2      0.440000
     28 H111        5.0800   -2.8730    3.8220 h1        1 RB2      0.056700
     29 H112        4.3660   -4.1310    2.6820 h1        1 RB2      0.056700
     30 H113        4.0940   -4.2690    4.4970 h1        1 RB2      0.056700
     31 H41         1.0880   -0.4460    6.1460 hc        1 RB2      0.080200
     32 H42         0.9270   -2.1950    6.5950 hc        1 RB2      0.080200
     33 H3         -1.3700   -2.2930    5.6700 h1        1 RB2      0.084700
     34 H21        -1.0060    0.7330    5.0630 hc        1 RB2      0.082700
     35 H22        -2.4910   -0.2640    4.7890 hc        1 RB2      0.082700
     36 H11        -1.2130    0.0710    2.6830 hc        1 RB2      0.071200
     37 H12A       -1.3040   -1.6850    3.1400 hc        1 RB2      0.071200
     38 H122        0.4310   -0.9450    1.3800 hn        1 RB2      0.465300
@<TRIPOS>BOND
     1    1    2 1   
     2    1   18 1   
     3    2    3 1   
     4    2    4 1   
     5    2   19 1   
     6    3   20 1   
     7    4    5 1   
     8    4    6 1   
     9    4   21 1   
    10    5   22 1   
    11    6    7 1   
    12    6   23 1   
    13    6   38 1   
    14    7    8 1   
    15    7   17 1   
    16    7   24 1   
    17    8    9 1   
    18    8   13 1   
    19    8   25 1   
    20    9   10 1   
    21    9   11 1   
    22    9   26 1   
    23   10   27 1   
    24   11   12 1   
    25   12   28 1   
    26   12   29 1   
    27   12   30 1   
    28   13   14 1   
    29   13   31 1   
    30   13   32 1   
    31   14   15 1   
    32   14   16 1   
    33   14   33 1   
    34   16   17 1   
    35   16   34 1   
    36   16   35 1   
    37   17   36 1   
    38   17   37 1   
@<TRIPOS>SUBSTRUCTURE
     1 RB2         1 TEMP              0 ****  ****    0 ROOT
