@<TRIPOS>MOLECULE
RB2
   38    38     1     0     0
SMALL
bcc


@<TRIPOS>ATOM
      1 O17         0.6360    0.8170    0.1440 oh        1 RB2     -0.626300
      2 C15         2.0170    0.6120    0.2830 c3        1 RB2      0.344900
      3 O16         2.5650    1.8910    0.4130 oh        1 RB2     -0.626300
      4 C13         2.3370   -0.1410    1.6320 c3        1 RB2      0.307300
      5 O14         3.4510   -0.9370    1.3460 oh        1 RB2     -0.570800
      6 N12         1.1980   -1.0630    2.0580 ny        1 RB2     -0.802000
      7 C6          0.6620   -0.7880    3.4370 c3        1 RB2      0.137500
      8 C5          1.1300   -1.8380    4.4620 c3        1 RB2     -0.078700
      9 C8          2.6610   -1.9850    4.5190 c3        1 RB2      0.316900
     10 O10         3.2710   -0.7450    4.2270 oh        1 RB2     -0.653800
     11 O9          3.0580   -2.7950    3.4220 os        1 RB2     -0.490600
     12 C11         4.2630   -3.5240    3.6320 c3        1 RB2      0.111700
     13 C4          0.6180   -1.4450    5.8420 c3        1 RB2     -0.089400
     14 C3         -0.8970   -1.3420    5.8470 c3        1 RB2      0.034700
     15 Cl         -1.4560   -0.8630    7.4430 cl        1 RB2     -0.135400
     16 C2         -1.3820   -0.3530    4.8030 c3        1 RB2     -0.088400
     17 C1         -0.8740   -0.7350    3.4280 c3        1 RB2     -0.104400
     18 H17         0.4310    1.7500    0.3240 ho        1 RB2      0.459500
     19 H15         2.3860    0.0100   -0.5920 h2        1 RB2      0.113700
     20 H16         3.1640    2.0590   -0.3270 ho        1 RB2      0.459500
     21 H13         2.5390    0.6010    2.4610 hx        1 RB2      0.130700
     22 H14         3.9070   -1.1540    2.1800 ho        1 RB2      0.459000
     23 H12         0.4320   -0.9580    1.3780 hn        1 RB2      0.465300
     24 H6          1.0550    0.2220    3.7670 hx        1 RB2      0.117700
     25 H5          0.7100   -2.8470    4.1840 hc        1 RB2      0.092700
     26 H8          2.9910   -2.4110    5.5060 h2        1 RB2      0.084700
     27 H10         4.1030   -0.6890    4.7140 ho        1 RB2      0.440000
     28 H111        5.1090   -2.8180    3.8210 h1        1 RB2      0.056700
     29 H112        4.1440   -4.2330    4.4880 h1        1 RB2      0.056700
     30 H113        4.4180   -4.0830    2.6750 h1        1 RB2      0.056700
     31 H41         0.9420   -2.2180    6.5890 hc        1 RB2      0.080200
     32 H42         1.0740   -0.4650    6.1470 hc        1 RB2      0.080200
     33 H3         -1.3520   -2.3510    5.6610 h1        1 RB2      0.084700
     34 H21        -2.5050   -0.3380    4.7850 hc        1 RB2      0.082700
     35 H22        -1.0380    0.6830    5.0650 hc        1 RB2      0.082700
     36 H11        -1.2300    0.0260    2.6830 hc        1 RB2      0.071200
     37 H12A       -1.2930   -1.7330    3.1330 hc        1 RB2      0.071200
     38 H122        1.5490   -2.0320    2.0140 hn        1 RB2      0.465300
@<TRIPOS>BOND
     1    1    2 1   
     2    1   18 1   
     3    2    3 1   
     4    2    4 1   
     5    2   19 1   
     6    3   20 1   
     7    4    5 1   
     8    4    6 1   
     9    4   21 1   
    10    5   22 1   
    11    6    7 1   
    12    6   23 1   
    13    6   38 1   
    14    7    8 1   
    15    7   17 1   
    16    7   24 1   
    17    8    9 1   
    18    8   13 1   
    19    8   25 1   
    20    9   10 1   
    21    9   11 1   
    22    9   26 1   
    23   10   27 1   
    24   11   12 1   
    25   12   28 1   
    26   12   29 1   
    27   12   30 1   
    28   13   14 1   
    29   13   31 1   
    30   13   32 1   
    31   14   15 1   
    32   14   16 1   
    33   14   33 1   
    34   16   17 1   
    35   16   34 1   
    36   16   35 1   
    37   17   36 1   
    38   17   37 1   
@<TRIPOS>SUBSTRUCTURE
     1 RB2         1 TEMP              0 ****  ****    0 ROOT
