@<TRIPOS>MOLECULE
RB2
   38    38     1     0     0
SMALL
bcc


@<TRIPOS>ATOM
      1 O17         0.8110   -0.0490   -0.3450 oh        1 RB2     -0.622300
      2 C15         2.0190    0.5060    0.1030 c3        1 RB2      0.355900
      3 O16         1.9410    1.8560   -0.2450 oh        1 RB2     -0.622300
      4 C13         2.0710    0.4390    1.6790 c3        1 RB2      0.288300
      5 O14         3.4350    0.4710    1.9940 oh        1 RB2     -0.562800
      6 N12         1.4730   -0.8560    2.2040 n4        1 RB2     -0.804000
      7 C6          0.8790   -0.6970    3.5780 c3        1 RB2      0.136500
      8 C5          1.1380   -1.9310    4.4640 c3        1 RB2     -0.075700
      9 C8          2.6370   -2.2730    4.5610 c3        1 RB2      0.319900
     10 O10         3.3910   -1.0950    4.3500 oh        1 RB2     -0.659800
     11 O9          2.9540   -3.0880    3.4440 os        1 RB2     -0.487600
     12 C11         4.0650   -3.9570    3.6350 c3        1 RB2      0.115700
     13 C4          0.5910   -1.6630    5.8590 c3        1 RB2     -0.088400
     14 C3         -0.8930   -1.3450    5.8060 c3        1 RB2      0.034700
     15 CL         -1.4910   -1.0200    7.4260 cl        1 RB2     -0.136400
     16 C2         -1.1670   -0.1570    4.9000 c3        1 RB2     -0.088400
     17 C1         -0.6250   -0.4120    3.5070 c3        1 RB2     -0.101400
     18 H17         0.2550    0.6540   -0.7230 ho        1 RB2      0.464000
     19 H15         2.8820   -0.0590   -0.3400 h2        1 RB2      0.107700
     20 H16         2.7790    2.1370   -0.6370 ho        1 RB2      0.464000
     21 H13         1.4940    1.3030    2.1200 hx        1 RB2      0.112700
     22 H14         3.5450    0.6880    2.9360 ho        1 RB2      0.453000
     23 H12         2.2290   -1.5600    2.2320 hn        1 RB2      0.474300
     24 H6          1.4050    0.1820    4.0640 hx        1 RB2      0.108700
     25 H5          0.6160   -2.8270    4.0240 hc        1 RB2      0.096700
     26 H8          2.8910   -2.7680    5.5380 h2        1 RB2      0.083700
     27 H10         4.3180   -1.2940    4.5340 ho        1 RB2      0.440000
     28 H111        4.9920   -3.3630    3.8240 h1        1 RB2      0.055367
     29 H112        4.1450   -4.5180    2.6700 h1        1 RB2      0.055367
     30 H113        3.8680   -4.6580    4.4830 h1        1 RB2      0.055367
     31 H41         1.1530   -0.8120    6.3280 hc        1 RB2      0.081700
     32 H42         0.7560   -2.5710    6.4980 hc        1 RB2      0.081700
     33 H3         -1.4660   -2.2410    5.4480 h1        1 RB2      0.084700
     34 H21        -2.2730    0.0230    4.8330 hc        1 RB2      0.081700
     35 H22        -0.7010    0.7690    5.3300 hc        1 RB2      0.081700
     36 H11        -0.8180    0.4910    2.8690 hc        1 RB2      0.069700
     37 H12A       -1.1620   -1.2840    3.0470 hc        1 RB2      0.069700
     38 H122        0.7490   -1.1710    1.5450 hn        1 RB2      0.474300
@<TRIPOS>BOND
     1    1    2 1   
     2    1   18 1   
     3    2    3 1   
     4    2    4 1   
     5    2   19 1   
     6    3   20 1   
     7    4    5 1   
     8    4    6 1   
     9    4   21 1   
    10    5   22 1   
    11    6    7 1   
    12    6   23 1   
    13    6   38 1   
    14    7    8 1   
    15    7   17 1   
    16    7   24 1   
    17    8    9 1   
    18    8   13 1   
    19    8   25 1   
    20    9   10 1   
    21    9   11 1   
    22    9   26 1   
    23   10   27 1   
    24   11   12 1   
    25   12   28 1   
    26   12   29 1   
    27   12   30 1   
    28   13   14 1   
    29   13   31 1   
    30   13   32 1   
    31   14   15 1   
    32   14   16 1   
    33   14   33 1   
    34   16   17 1   
    35   16   34 1   
    36   16   35 1   
    37   17   36 1   
    38   17   37 1   
@<TRIPOS>SUBSTRUCTURE
     1 RB2         1 TEMP              0 ****  ****    0 ROOT
