@<TRIPOS>MOLECULE
RB2
   37    37     1     0     0
SMALL
bcc


@<TRIPOS>ATOM
      1 O17        -3.2430    2.3550   -2.4980 oh        1 RB2     -0.635300
      2 C15        -1.9940    1.7040   -2.5220 c3        1 RB2      0.271900
      3 O16        -1.0540    2.5150   -3.1890 oh        1 RB2     -0.635300
      4 C13        -1.5290    1.4520   -1.1070 c3        1 RB2      0.373300
      5 O14        -0.8490    2.5870   -0.6280 oh        1 RB2     -0.602800
      6 N12        -0.6540    0.3340   -1.0870 n3        1 RB2     -0.881200
      7 C6         -0.5100   -0.1360    0.2560 c3        1 RB2      0.193500
      8 C5          0.7590   -0.9710    0.3520 c3        1 RB2     -0.072700
      9 C8          1.9640   -0.0620    0.1370 c3        1 RB2      0.345900
     10 O10         2.2200    0.0580   -1.2370 oh        1 RB2     -0.619800
     11 O9          3.0830   -0.6130    0.7750 os        1 RB2     -0.429600
     12 C11         4.2300    0.2060    0.7230 c3        1 RB2      0.120700
     13 C4          0.8990   -1.6610    1.6960 c3        1 RB2     -0.079400
     14 C3         -0.3440   -2.4480    2.0770 c3        1 RB2      0.056700
     15 CL         -0.1680   -3.0230    3.7270 cl        1 RB2     -0.198400
     16 C2         -1.6140   -1.6120    1.9810 c3        1 RB2     -0.083400
     17 C1         -1.7540   -0.9230    0.6380 c3        1 RB2     -0.115400
     18 H17        -3.5540    2.4320   -3.3270 ho        1 RB2      0.428500
     19 H15        -2.0810    0.8500   -2.9940 h2        1 RB2      0.076700
     20 H16        -1.2980    2.6140   -4.0380 ho        1 RB2      0.428500
     21 H13        -2.3030    1.2710   -0.5360 h2        1 RB2      0.096700
     22 H14        -1.4380    3.1760   -0.3160 ho        1 RB2      0.420000
     23 H12        -1.0010   -0.3340   -1.6080 hn        1 RB2      0.396800
     24 H6         -0.4270    0.6340    0.8530 h1        1 RB2      0.062700
     25 H5          0.7450   -1.6480   -0.3510 hc        1 RB2      0.078700
     26 H8          1.7760    0.8220    0.5130 h2        1 RB2      0.040700
     27 H10         2.7680    0.7430   -1.3770 ho        1 RB2      0.417000
     28 H111        4.8670   -0.0780    1.4130 h1        1 RB2      0.037033
     29 H112        4.6490    0.1270   -0.1610 h1        1 RB2      0.037033
     30 H113        3.9730    1.1400    0.8800 h1        1 RB2      0.037033
     31 H41         1.6620   -2.2730    1.6600 hc        1 RB2      0.072700
     32 H42         1.0680   -0.9850    2.3820 hc        1 RB2      0.072700
     33 H3         -0.4270   -3.2160    1.4810 h1        1 RB2      0.073700
     34 H21        -2.3870   -2.1950    2.1190 hc        1 RB2      0.058700
     35 H22        -1.5990   -0.9330    2.6850 hc        1 RB2      0.058700
     36 H11        -2.5160   -0.3110    0.6740 hc        1 RB2      0.046700
     37 H12A       -1.9230   -1.5990   -0.0480 hc        1 RB2      0.046700
@<TRIPOS>BOND
     1    1    2 1   
     2    1   18 1   
     3    2    3 1   
     4    2    4 1   
     5    2   19 1   
     6    3   20 1   
     7    4    5 1   
     8    4    6 1   
     9    4   21 1   
    10    5   22 1   
    11    6    7 1   
    12    6   23 1   
    13    7    8 1   
    14    7   17 1   
    15    7   24 1   
    16    8    9 1   
    17    8   13 1   
    18    8   25 1   
    19    9   10 1   
    20    9   11 1   
    21    9   26 1   
    22   10   27 1   
    23   11   12 1   
    24   12   28 1   
    25   12   29 1   
    26   12   30 1   
    27   13   14 1   
    28   13   31 1   
    29   13   32 1   
    30   14   15 1   
    31   14   16 1   
    32   14   33 1   
    33   16   17 1   
    34   16   34 1   
    35   16   35 1   
    36   17   36 1   
    37   17   37 1   
@<TRIPOS>SUBSTRUCTURE
     1 RB2         1 TEMP              0 ****  ****    0 ROOT
