@<TRIPOS>MOLECULE
RB2
   37    37     1     0     0
SMALL
bcc


@<TRIPOS>ATOM
      1 O17         4.0810   -1.7590    0.5750 oh        1 RB2     -0.632300
      2 C15         3.8760   -0.3790    0.4770 c3        1 RB2      0.303900
      3 O16         4.8080    0.0710   -0.4860 oh        1 RB2     -0.632300
      4 C13         2.4820    0.0520   -0.0850 c3        1 RB2      0.367300
      5 O14         2.4570    1.4840   -0.1160 oh        1 RB2     -0.646800
      6 N12         1.4140   -0.4660    0.7340 n3        1 RB2     -0.837200
      7 C6          0.0920   -0.5380    0.1180 c3        1 RB2      0.193500
      8 C5         -0.9540    0.4230    0.7280 c3        1 RB2     -0.106700
      9 C8         -0.5090    1.8900    0.5950 c3        1 RB2      0.322900
     10 O10        -1.2870    2.7630    1.3780 oh        1 RB2     -0.624800
     11 O9         -0.7200    2.3080   -0.7450 os        1 RB2     -0.456600
     12 C11         0.0390    3.4540   -1.1070 c3        1 RB2      0.118700
     13 C4         -2.3110    0.2300    0.0660 c3        1 RB2     -0.081400
     14 C3         -2.7800   -1.2060    0.1830 c3        1 RB2      0.059700
     15 CL         -4.3620   -1.3940   -0.5880 cl        1 RB2     -0.201400
     16 C2         -1.7700   -2.1460   -0.4460 c3        1 RB2     -0.088400
     17 C1         -0.4290   -1.9860    0.2340 c3        1 RB2     -0.075400
     18 H17         3.6090   -2.1950   -0.1460 ho        1 RB2      0.424500
     19 H15         4.0830    0.0540    1.4930 h2        1 RB2      0.083700
     20 H16         5.6680   -0.3020   -0.2570 ho        1 RB2      0.424500
     21 H13         2.3850   -0.3430   -1.1400 h2        1 RB2      0.064700
     22 H14         3.2380    1.7670   -0.6080 ho        1 RB2      0.433000
     23 H12         1.3850   -0.0170    1.6290 hn        1 RB2      0.385800
     24 H6          0.1690   -0.2800   -0.9810 h1        1 RB2      0.067700
     25 H5         -1.0500    0.2150    1.8300 hc        1 RB2      0.068700
     26 H8          0.5530    2.0520    0.9350 h2        1 RB2      0.099700
     27 H10        -2.1800    2.7830    1.0120 ho        1 RB2      0.414000
     28 H111       -0.2000    4.3070   -0.4270 h1        1 RB2      0.040367
     29 H112        1.1320    3.2190   -1.0660 h1        1 RB2      0.040367
     30 H113       -0.2810    3.6780   -2.1550 h1        1 RB2      0.040367
     31 H41        -3.0570    0.9110    0.5550 hc        1 RB2      0.067700
     32 H42        -2.2430    0.5250   -1.0160 hc        1 RB2      0.067700
     33 H3         -2.9490   -1.4780    1.2580 h1        1 RB2      0.071700
     34 H21        -2.1180   -3.2070   -0.3430 hc        1 RB2      0.058700
     35 H22        -1.6760   -1.9260   -1.5420 hc        1 RB2      0.058700
     36 H11        -0.5170   -2.2690    1.3160 hc        1 RB2      0.052700
     37 H12A        0.3080   -2.6860   -0.2390 hc        1 RB2      0.052700
@<TRIPOS>BOND
     1    1    2 1   
     2    1   18 1   
     3    2    3 1   
     4    2    4 1   
     5    2   19 1   
     6    3   20 1   
     7    4    5 1   
     8    4    6 1   
     9    4   21 1   
    10    5   22 1   
    11    6    7 1   
    12    6   23 1   
    13    7    8 1   
    14    7   17 1   
    15    7   24 1   
    16    8    9 1   
    17    8   13 1   
    18    8   25 1   
    19    9   10 1   
    20    9   11 1   
    21    9   26 1   
    22   10   27 1   
    23   11   12 1   
    24   12   28 1   
    25   12   29 1   
    26   12   30 1   
    27   13   14 1   
    28   13   31 1   
    29   13   32 1   
    30   14   15 1   
    31   14   16 1   
    32   14   33 1   
    33   16   17 1   
    34   16   34 1   
    35   16   35 1   
    36   17   36 1   
    37   17   37 1   
@<TRIPOS>SUBSTRUCTURE
     1 RB2         1 TEMP              0 ****  ****    0 ROOT
