@<TRIPOS>MOLECULE
RB3
   42    41     1     0     0
SMALL
bcc


@<TRIPOS>ATOM
      1 O1M         0.1880   -0.1250   -0.5310 os        1 RB3     -0.439900
      2 C1A         0.9570    0.9840   -0.7670 c         1 RB3      0.641100
      3 O1A         0.7380    1.9900   -0.0900 o         1 RB3     -0.542000
      4 C2A         1.9380    0.7800   -1.8780 c3        1 RB3     -0.155400
      5 C3A         3.3930    0.9360   -1.4480 c3        1 RB3      0.159100
      6 C4A         3.7030    2.2930   -0.8480 c3        1 RB3     -0.107100
      7 O3A         3.7180   -0.0310   -0.4310 os        1 RB3     -0.440900
      8 C1B         4.0480   -1.2970   -0.8350 c         1 RB3      0.640100
      9 O1B         4.0320   -1.5560   -2.0390 o         1 RB3     -0.543000
     10 C2B         4.4130   -2.1800    0.3170 c3        1 RB3     -0.133400
     11 C3B         4.1440   -3.6510    0.0130 c3        1 RB3      0.154100
     12 C4B         4.9490   -4.5530    0.9270 c3        1 RB3     -0.121100
     13 O3B         2.7350   -3.8370    0.2640 os        1 RB3     -0.452900
     14 C1C         2.1150   -4.8960   -0.3450 c         1 RB3      0.647100
     15 O1C         2.7920   -5.6650   -1.0270 o         1 RB3     -0.533000
     16 C2C         0.6370   -4.9340   -0.1080 c3        1 RB3     -0.125400
     17 C3C         0.2570   -4.7320    1.3560 c3        1 RB3      0.144100
     18 C4C        -1.1940   -4.2980    1.4770 c3        1 RB3     -0.132100
     19 O3C         0.4640   -5.9870    1.9980 oh        1 RB3     -0.599800
     20 C1         -0.7910   -0.0190    0.5030 c3        1 RB3      0.125700
     21 H2A1        1.8020   -0.2460   -2.3160 hc        1 RB3      0.093700
     22 H2A2        1.7150    1.5440   -2.6700 hc        1 RB3      0.093700
     23 H3A         4.0410    0.7480   -2.3520 h1        1 RB3      0.076700
     24 H4A1        4.7660    2.3280   -0.5130 hc        1 RB3      0.058033
     25 H4A2        3.5320    3.0800   -1.6190 hc        1 RB3      0.058033
     26 H4A3        3.0420    2.4960    0.0310 hc        1 RB3      0.058033
     27 H2B1        5.5070   -2.0390    0.5220 hc        1 RB3      0.094200
     28 H2B2        3.8380   -1.8630    1.2280 hc        1 RB3      0.094200
     29 H3B         4.3590   -3.8830   -1.0680 h1        1 RB3      0.095700
     30 H4B1        4.6780   -5.6180    0.7260 hc        1 RB3      0.053367
     31 H4B2        6.0390   -4.4130    0.7330 hc        1 RB3      0.053367
     32 H4B3        4.7340   -4.3230    1.9970 hc        1 RB3      0.053367
     33 H2C1        0.2560   -5.9290   -0.4640 hc        1 RB3      0.092700
     34 H2C2        0.1720   -4.1200   -0.7250 hc        1 RB3      0.092700
     35 H1          0.9280   -3.9580    1.8260 h1        1 RB3      0.056700
     36 H4C1       -1.4780   -4.2080    2.5530 hc        1 RB3      0.045700
     37 H4C2       -1.3400   -3.3070    0.9840 hc        1 RB3      0.045700
     38 H4C3       -1.8660   -5.0470    0.9940 hc        1 RB3      0.045700
     39 H3C         0.2100   -5.8720    2.9210 ho        1 RB3      0.404000
     40 H11        -1.5360    0.7700    0.2420 h1        1 RB3      0.049033
     41 H12        -0.2970    0.2270    1.4730 h1        1 RB3      0.049033
     42 H13        -1.2600   -1.0340    0.5280 h1        1 RB3      0.049033
@<TRIPOS>BOND
     1    1    2 1   
     2    1   20 1   
     3    2    3 2   
     4    2    4 1   
     5    4    5 1   
     6    4   21 1   
     7    4   22 1   
     8    5    6 1   
     9    5    7 1   
    10    5   23 1   
    11    6   24 1   
    12    6   25 1   
    13    6   26 1   
    14    7    8 1   
    15    8    9 2   
    16    8   10 1   
    17   10   11 1   
    18   10   27 1   
    19   10   28 1   
    20   11   12 1   
    21   11   13 1   
    22   11   29 1   
    23   12   30 1   
    24   12   31 1   
    25   12   32 1   
    26   13   14 1   
    27   14   15 2   
    28   14   16 1   
    29   16   17 1   
    30   16   33 1   
    31   16   34 1   
    32   17   18 1   
    33   17   19 1   
    34   17   35 1   
    35   18   36 1   
    36   18   37 1   
    37   18   38 1   
    38   19   39 1   
    39   20   40 1   
    40   20   41 1   
    41   20   42 1   
@<TRIPOS>SUBSTRUCTURE
     1 RB3         1 TEMP              0 ****  ****    0 ROOT
