@<TRIPOS>MOLECULE
RB3
   42    41     1     0     0
SMALL
bcc


@<TRIPOS>ATOM
      1 O1M         0.2010   -0.1130   -0.5330 os        1 RB3     -0.439900
      2 C1A         0.9770    0.9880   -0.7810 c         1 RB3      0.641100
      3 O1A         0.7710    2.0010   -0.1100 o         1 RB3     -0.542000
      4 C2A         1.9500    0.7690   -1.8960 c3        1 RB3     -0.155400
      5 C3A         3.4090    0.9150   -1.4770 c3        1 RB3      0.159100
      6 C4A         3.7340    2.2730   -0.8870 c3        1 RB3     -0.107100
      7 O3A         3.7320   -0.0480   -0.4550 os        1 RB3     -0.440900
      8 C1B         4.0490   -1.3190   -0.8530 c         1 RB3      0.640100
      9 O1B         4.0240   -1.5860   -2.0560 o         1 RB3     -0.543000
     10 C2B         4.4140   -2.1970    0.3030 c3        1 RB3     -0.133400
     11 C3B         4.1300   -3.6680    0.0100 c3        1 RB3      0.154100
     12 C4B         4.9340   -4.5710    0.9240 c3        1 RB3     -0.121100
     13 O3B         2.7220   -3.8400    0.2720 os        1 RB3     -0.452900
     14 C1C         2.0880   -4.8970   -0.3250 c         1 RB3      0.647100
     15 O1C         2.7540   -5.6770   -1.0070 o         1 RB3     -0.533000
     16 C2C         0.6120   -4.9220   -0.0790 c3        1 RB3     -0.125400
     17 C3C         0.2430   -4.7080    1.3870 c3        1 RB3      0.144100
     18 C4C        -1.2020   -4.2600    1.5150 c3        1 RB3     -0.132100
     19 O3C         0.4440   -5.9600    2.0360 oh        1 RB3     -0.599800
     20 C1         -0.7700    0.0080    0.5060 c3        1 RB3      0.125700
     21 H2A1        1.7280    1.5290   -2.6920 hc        1 RB3      0.093700
     22 H2A2        1.8030   -0.2600   -2.3260 hc        1 RB3      0.093700
     23 H3A         4.0500    0.7160   -2.3840 h1        1 RB3      0.076700
     24 H4A1        3.5640    3.0570   -1.6630 hc        1 RB3      0.058033
     25 H4A2        4.8000    2.3020   -0.5590 hc        1 RB3      0.058033
     26 H4A3        3.0800    2.4880   -0.0060 hc        1 RB3      0.058033
     27 H2B1        5.5110   -2.0650    0.4990 hc        1 RB3      0.094200
     28 H2B2        3.8480   -1.8690    1.2150 hc        1 RB3      0.094200
     29 H3B         4.3360   -3.9100   -1.0710 h1        1 RB3      0.095700
     30 H4B1        4.6520   -5.6350    0.7330 hc        1 RB3      0.053367
     31 H4B2        6.0240   -4.4410    0.7220 hc        1 RB3      0.053367
     32 H4B3        4.7290   -4.3320    1.9950 hc        1 RB3      0.053367
     33 H2C1        0.1500   -4.1080   -0.6970 hc        1 RB3      0.092700
     34 H2C2        0.2200   -5.9150   -0.4250 hc        1 RB3      0.092700
     35 H1          0.9250   -3.9370    1.8470 h1        1 RB3      0.056700
     36 H4C1       -1.8840   -5.0060    1.0420 hc        1 RB3      0.045700
     37 H4C2       -1.4780   -4.1610    2.5920 hc        1 RB3      0.045700
     38 H4C3       -1.3430   -3.2710    1.0170 hc        1 RB3      0.045700
     39 H3C         0.1980   -5.8370    2.9600 ho        1 RB3      0.404000
     40 H11        -1.2480   -1.0030    0.5420 h1        1 RB3      0.049033
     41 H12        -0.2680    0.2570    1.4720 h1        1 RB3      0.049033
     42 H13        -1.5100    0.8010    0.2450 h1        1 RB3      0.049033
@<TRIPOS>BOND
     1    1    2 1   
     2    1   20 1   
     3    2    3 2   
     4    2    4 1   
     5    4    5 1   
     6    4   21 1   
     7    4   22 1   
     8    5    6 1   
     9    5    7 1   
    10    5   23 1   
    11    6   24 1   
    12    6   25 1   
    13    6   26 1   
    14    7    8 1   
    15    8    9 2   
    16    8   10 1   
    17   10   11 1   
    18   10   27 1   
    19   10   28 1   
    20   11   12 1   
    21   11   13 1   
    22   11   29 1   
    23   12   30 1   
    24   12   31 1   
    25   12   32 1   
    26   13   14 1   
    27   14   15 2   
    28   14   16 1   
    29   16   17 1   
    30   16   33 1   
    31   16   34 1   
    32   17   18 1   
    33   17   19 1   
    34   17   35 1   
    35   18   36 1   
    36   18   37 1   
    37   18   38 1   
    38   19   39 1   
    39   20   40 1   
    40   20   41 1   
    41   20   42 1   
@<TRIPOS>SUBSTRUCTURE
     1 RB3         1 TEMP              0 ****  ****    0 ROOT
