@<TRIPOS>MOLECULE
RB3
   42    41     1     0     0
SMALL
bcc


@<TRIPOS>ATOM
      1 O1M        -1.4460    0.7090   -6.3380 os        1 RB3     -0.444900
      2 C1A        -0.5800    1.1460   -5.3670 c         1 RB3      0.642100
      3 O1A         0.1930    2.0580   -5.6620 o         1 RB3     -0.539000
      4 C2A        -0.7040    0.3690   -4.0950 c3        1 RB3     -0.154400
      5 C3A        -0.8990    1.2290   -2.8510 c3        1 RB3      0.159100
      6 C4A         0.1970    2.2530   -2.6400 c3        1 RB3     -0.106100
      7 O3A        -2.1260    1.9770   -2.9500 os        1 RB3     -0.435900
      8 C1B        -3.2910    1.3390   -2.6220 c         1 RB3      0.639100
      9 O1B        -3.2400    0.1620   -2.2580 o         1 RB3     -0.545000
     10 C2B        -4.4900    2.2260   -2.7500 c3        1 RB3     -0.134400
     11 C3B        -5.6110    1.5260   -3.5140 c3        1 RB3      0.154100
     12 C4B        -6.9300    2.2500   -3.3360 c3        1 RB3     -0.119100
     13 O3B        -5.2160    1.5820   -4.9000 os        1 RB3     -0.447900
     14 C1C        -5.6810    0.6060   -5.7390 c         1 RB3      0.650100
     15 O1C        -6.4600   -0.2400   -5.2980 o         1 RB3     -0.534000
     16 C2C        -5.1150    0.7170   -7.1200 c3        1 RB3     -0.169400
     17 C3C        -5.5520    2.0040   -7.8190 c3        1 RB3      0.143100
     18 C4C        -4.7680    2.1850   -9.1070 c3        1 RB3     -0.132100
     19 O3C        -6.9470    2.0170   -8.0640 oh        1 RB3     -0.589800
     20 C1         -1.3580    1.3510   -7.6100 c3        1 RB3      0.121700
     21 H2A1        0.2420   -0.2240   -3.9750 hc        1 RB3      0.094200
     22 H2A2       -1.5680   -0.3460   -4.1750 hc        1 RB3      0.094200
     23 H3A        -0.9650    0.5350   -1.9630 h1        1 RB3      0.076700
     24 H4A1        0.2570    2.9540   -3.5090 hc        1 RB3      0.058700
     25 H4A2        1.1740    1.7250   -2.5330 hc        1 RB3      0.058700
     26 H4A3       -0.0070    2.8450   -1.7160 hc        1 RB3      0.058700
     27 H2B1       -4.2060    3.1790   -3.2710 hc        1 RB3      0.093700
     28 H2B2       -4.8490    2.4710   -1.7160 hc        1 RB3      0.093700
     29 H3B        -5.7000    0.4500   -3.1930 h1        1 RB3      0.094700
     30 H4B1       -6.8430    3.3140   -3.6590 hc        1 RB3      0.053700
     31 H4B2       -7.2390    2.2160   -2.2640 hc        1 RB3      0.053700
     32 H4B3       -7.7130    1.7490   -3.9570 hc        1 RB3      0.053700
     33 H2C1       -5.4490   -0.1780   -7.7060 hc        1 RB3      0.087200
     34 H2C2       -3.9930    0.7030   -7.0420 hc        1 RB3      0.087200
     35 H1         -5.3920    2.8840   -7.1300 h1        1 RB3      0.095700
     36 H4C1       -4.8970    1.3000   -9.7750 hc        1 RB3      0.046367
     37 H4C2       -3.6820    2.3110   -8.8800 hc        1 RB3      0.046367
     38 H4C3       -5.1350    3.0920   -9.6450 hc        1 RB3      0.046367
     39 H3C        -7.1440    1.2900   -8.6680 ho        1 RB3      0.400000
     40 H11        -2.0470    0.7550   -8.2580 h1        1 RB3      0.050367
     41 H12        -0.3090    1.3150   -7.9910 h1        1 RB3      0.050367
     42 H13        -1.6960    2.4120   -7.5190 h1        1 RB3      0.050367
@<TRIPOS>BOND
     1    1    2 1   
     2    1   20 1   
     3    2    3 2   
     4    2    4 1   
     5    4    5 1   
     6    4   21 1   
     7    4   22 1   
     8    5    6 1   
     9    5    7 1   
    10    5   23 1   
    11    6   24 1   
    12    6   25 1   
    13    6   26 1   
    14    7    8 1   
    15    8    9 2   
    16    8   10 1   
    17   10   11 1   
    18   10   27 1   
    19   10   28 1   
    20   11   12 1   
    21   11   13 1   
    22   11   29 1   
    23   12   30 1   
    24   12   31 1   
    25   12   32 1   
    26   13   14 1   
    27   14   15 2   
    28   14   16 1   
    29   16   17 1   
    30   16   33 1   
    31   16   34 1   
    32   17   18 1   
    33   17   19 1   
    34   17   35 1   
    35   18   36 1   
    36   18   37 1   
    37   18   38 1   
    38   19   39 1   
    39   20   40 1   
    40   20   41 1   
    41   20   42 1   
@<TRIPOS>SUBSTRUCTURE
     1 RB3         1 TEMP              0 ****  ****    0 ROOT
