@<TRIPOS>MOLECULE
RB4
   59    62     1     0     0
SMALL
bcc


@<TRIPOS>ATOM
      1 C1          0.0050   -0.9610    0.6030 cc        1 RB4     -0.111600
      2 N1         -0.3940   -2.7240    2.3650 n4        1 RB4     -0.461200
      3 O1         -2.3200   -1.4540    0.8510 o         1 RB4     -0.678000
      4 S1          2.0620   -1.4960    2.0260 ss        1 RB4      0.365200
      5 C2         -1.3840   -1.0280    0.1350 c         1 RB4      0.685700
      6 N2         -2.8270   -1.0580    4.8750 n4        1 RB4     -0.763000
      7 O2         -1.6280   -0.6540   -1.1260 os        1 RB4     -0.364900
      8 C3         -2.9970   -0.6970   -1.6120 c3        1 RB4      0.137400
      9 N3         -7.7950    2.0920    5.8310 na        1 RB4     -0.157400
     10 O3         -0.3660   -2.4310    4.6880 o         1 RB4     -0.402100
     11 C4         -3.7480    0.5360   -1.1880 c3        1 RB4     -0.130100
     12 C5          1.0590   -0.1510    0.1150 cc        1 RB4      0.067000
     13 C6          1.0270    0.8170   -0.9650 ca        1 RB4     -0.105000
     14 C7          2.2310   -0.3850    0.8630 cd        1 RB4     -0.182100
     15 C8          0.4440   -1.7610    1.7020 cd        1 RB4     -0.235500
     16 C9         -0.9740   -2.2010    3.6510 c         1 RB4      0.520100
     17 C10        -2.2850   -1.4430    3.5470 c3        1 RB4      0.030800
     18 C11        -4.1300   -0.3120    4.7400 c3        1 RB4      0.099800
     19 C12        -4.7410    0.0260    6.1070 c3        1 RB4      0.005800
     20 C13        -6.0640    0.6050    5.8760 cc        1 RB4     -0.244400
     21 C14         0.6400    0.4500   -2.2610 ca        1 RB4     -0.090000
     22 C15         0.6820    1.3870   -3.2930 ca        1 RB4     -0.124000
     23 C16         1.1040    2.6920   -3.0400 ca        1 RB4     -0.079000
     24 C17         1.4900    3.0630   -1.7500 ca        1 RB4     -0.124000
     25 C18         1.4610    2.1300   -0.7170 ca        1 RB4     -0.090000
     26 C19        -7.2350   -0.1010    5.4010 ca        1 RB4     -0.086800
     27 C20        -8.3080    0.8650    5.3860 ca        1 RB4     -0.049200
     28 C21        -6.4550    1.9280    6.1350 cd        1 RB4     -0.038100
     29 C22        -7.4960   -1.4160    5.0080 ca        1 RB4     -0.127000
     30 C23        -8.7780   -1.7560    4.6070 ca        1 RB4     -0.117000
     31 C24        -9.8160   -0.8040    4.5880 ca        1 RB4     -0.103000
     32 C25        -9.6030    0.5100    4.9740 ca        1 RB4     -0.109000
     33 HN1         0.1600   -3.5720    2.5720 hn        1 RB4      0.492800
     34 HN2        -2.1500   -0.4660    5.3750 hn        1 RB4      0.464300
     35 H3         -3.4910   -1.6360   -1.2530 h1        1 RB4      0.088200
     36 H3A        -2.8350   -0.7310   -2.7260 h1        1 RB4      0.088200
     37 H4         -3.8880    0.5500   -0.0810 hc        1 RB4      0.062367
     38 H4A        -3.2010    1.4610   -1.4930 hc        1 RB4      0.062367
     39 H4B        -4.7530    0.5380   -1.6790 hc        1 RB4      0.062367
     40 H7          3.1730    0.1410    0.6440 h4        1 RB4      0.237000
     41 H10        -2.1260   -0.5100    2.9150 hx        1 RB4      0.177700
     42 H10A       -3.0570   -2.0690    2.9950 hx        1 RB4      0.177700
     43 H11        -3.9290    0.6300    4.1570 hx        1 RB4      0.117700
     44 H11A       -4.8490   -0.9630    4.1600 hx        1 RB4      0.117700
     45 H12        -4.0810    0.7470    6.6600 hc        1 RB4      0.069200
     46 H12A       -4.8400   -0.9090    6.7260 hc        1 RB4      0.069200
     47 H14         0.3060   -0.5790   -2.4670 ha        1 RB4      0.136500
     48 H15         0.3880    1.0900   -4.3120 ha        1 RB4      0.158500
     49 H16         1.1390    3.4300   -3.8590 ha        1 RB4      0.162000
     50 H17         1.8270    4.0930   -1.5500 ha        1 RB4      0.158500
     51 H18         1.7790    2.4230    0.2950 ha        1 RB4      0.136500
     52 H21        -5.8610    2.7590    6.5270 h4        1 RB4      0.178000
     53 H22        -6.7010   -2.1740    5.0400 ha        1 RB4      0.105000
     54 H23        -9.0030   -2.7910    4.3050 ha        1 RB4      0.145000
     55 H24       -10.8220   -1.1170    4.2660 ha        1 RB4      0.157000
     56 H25       -10.4200    1.2460    4.9660 ha        1 RB4      0.157000
     57 H121       -1.1790   -2.9700    1.7250 hn        1 RB4      0.492800
     58 H221       -2.9830   -1.8980    5.4500 hn        1 RB4      0.464300
     59 HN3        -8.3280    2.9120    5.9790 hn        1 RB4      0.323700
@<TRIPOS>BOND
     1    1    5 1   
     2    1   12 1   
     3    1   15 2   
     4    2   15 1   
     5    2   16 1   
     6    2   33 1   
     7    2   57 1   
     8    3    5 2   
     9    4   14 1   
    10    4   15 1   
    11    5    7 1   
    12    6   17 1   
    13    6   18 1   
    14    6   34 1   
    15    6   58 1   
    16    7    8 1   
    17    8   11 1   
    18    8   35 1   
    19    8   36 1   
    20    9   27 1   
    21    9   28 1   
    22    9   59 1   
    23   10   16 2   
    24   11   37 1   
    25   11   38 1   
    26   11   39 1   
    27   12   13 1   
    28   12   14 2   
    29   13   21 ar  
    30   13   25 ar  
    31   14   40 1   
    32   16   17 1   
    33   17   41 1   
    34   17   42 1   
    35   18   19 1   
    36   18   43 1   
    37   18   44 1   
    38   19   20 1   
    39   19   45 1   
    40   19   46 1   
    41   20   26 1   
    42   20   28 2   
    43   21   22 ar  
    44   21   47 1   
    45   22   23 ar  
    46   22   48 1   
    47   23   24 ar  
    48   23   49 1   
    49   24   25 ar  
    50   24   50 1   
    51   25   51 1   
    52   26   27 ar  
    53   26   29 ar  
    54   27   32 ar  
    55   28   52 1   
    56   29   30 ar  
    57   29   53 1   
    58   30   31 ar  
    59   30   54 1   
    60   31   32 ar  
    61   31   55 1   
    62   32   56 1   
@<TRIPOS>SUBSTRUCTURE
     1 RB4         1 TEMP              0 ****  ****    0 ROOT
