@<TRIPOS>MOLECULE
RB4
   57    60     1     0     0
SMALL
bcc


@<TRIPOS>ATOM
      1 C1          3.5980    0.0920    0.4160 cc        1 RB4     -0.214600
      2 N1          1.1300    0.0840    0.2780 n         1 RB4     -0.432100
      3 O1          4.5280   -2.0920    0.9600 o         1 RB4     -0.538000
      4 S1          2.5300    2.4090    0.5720 ss        1 RB4      0.163200
      5 C2          3.7790   -1.3500    0.3210 c         1 RB4      0.679700
      6 N2         -2.3120    0.3930   -0.6960 n3        1 RB4     -0.821200
      7 O2          2.9580   -1.9500   -0.6070 os        1 RB4     -0.463900
      8 C3          3.1130   -3.3710   -0.7740 c3        1 RB4      0.138400
      9 N3         -7.9140   -1.2870   -1.6350 na        1 RB4     -0.193400
     10 O3         -0.1960    1.9440    0.5360 o         1 RB4     -0.594100
     11 C4          2.1420   -3.7760   -1.8560 c3        1 RB4     -0.101100
     12 C5          4.6710    1.0380    0.5410 cc        1 RB4      0.018000
     13 C6          6.0950    0.7400    0.5390 ca        1 RB4     -0.039000
     14 C7          4.1810    2.3290    0.6280 cd        1 RB4     -0.242100
     15 C8          2.3460    0.7360    0.4010 cd        1 RB4      0.071500
     16 C9         -0.1030    0.7170    0.3430 c         1 RB4      0.653100
     17 C10        -1.3460   -0.1700    0.2220 c3        1 RB4      0.108800
     18 C11        -3.6370   -0.1770   -0.5310 c3        1 RB4      0.162800
     19 C12        -4.6990    0.5470   -1.3660 c3        1 RB4     -0.007200
     20 C13        -6.0120   -0.0890   -1.1980 cc        1 RB4     -0.145400
     21 C14         6.6520   -0.1970    1.4190 ca        1 RB4     -0.103000
     22 C15         8.0270   -0.4270    1.4170 ca        1 RB4     -0.137500
     23 C16         8.8570    0.2710    0.5410 ca        1 RB4     -0.123000
     24 C17         8.3080    1.2060   -0.3380 ca        1 RB4     -0.137500
     25 C18         6.9360    1.4440   -0.3380 ca        1 RB4     -0.103000
     26 C19        -6.8650   -0.0150   -0.0290 ca        1 RB4     -0.088800
     27 C20        -8.0550   -0.7780   -0.3420 ca        1 RB4     -0.046200
     28 C21        -6.6860   -0.8630   -2.1450 cd        1 RB4     -0.098100
     29 C22        -6.7580    0.6010    1.2190 ca        1 RB4     -0.085000
     30 C23        -7.7950    0.4640    2.1280 ca        1 RB4     -0.156000
     31 C24        -8.9470   -0.2810    1.8160 ca        1 RB4     -0.113000
     32 C25        -9.0970   -0.9090    0.5900 ca        1 RB4     -0.145000
     33 HN1         1.1670   -0.8830    0.0240 hn        1 RB4      0.348500
     34 HN2        -2.3380    1.3950   -0.6160 hn        1 RB4      0.379800
     35 H3          4.1750   -3.5860   -1.0620 h1        1 RB4      0.053200
     36 H3A         2.8900   -3.8750    0.2020 h1        1 RB4      0.053200
     37 H4          1.0940   -3.5390   -1.5550 hc        1 RB4      0.047033
     38 H4A         2.3640   -3.2350   -2.8070 hc        1 RB4      0.047033
     39 H4B         2.2320   -4.8750   -2.0310 hc        1 RB4      0.047033
     40 H7          4.8100    3.2140    0.7340 h4        1 RB4      0.182000
     41 H10        -1.7400   -0.2840    1.2770 h1        1 RB4      0.057200
     42 H10A       -1.0890   -1.2000   -0.1580 h1        1 RB4      0.057200
     43 H11        -3.5830   -1.2530   -0.8590 h1        1 RB4      0.037200
     44 H11A       -3.9750   -0.1720    0.5490 h1        1 RB4      0.037200
     45 H12        -4.7640    1.6220   -1.0440 hc        1 RB4      0.054200
     46 H12A       -4.4020    0.5360   -2.4490 hc        1 RB4      0.054200
     47 H14         5.9980   -0.7630    2.1020 ha        1 RB4      0.146000
     48 H15         8.4550   -1.1670    2.1100 ha        1 RB4      0.131500
     49 H16         9.9400    0.0850    0.5400 ha        1 RB4      0.129000
     50 H17         8.9590    1.7570   -1.0320 ha        1 RB4      0.131500
     51 H18         6.5040    2.1830   -1.0280 ha        1 RB4      0.146000
     52 H21        -6.3750   -1.1430   -3.1530 h4        1 RB4      0.167000
     53 H22        -5.8600    1.1860    1.4660 ha        1 RB4      0.133000
     54 H23        -7.7240    0.9460    3.1140 ha        1 RB4      0.130000
     55 H24        -9.7480   -0.3640    2.5670 ha        1 RB4      0.130000
     56 H25        -9.9990   -1.4880    0.3530 ha        1 RB4      0.132000
     57 HN3        -8.5870   -1.8200   -2.1160 hn        1 RB4      0.299700
@<TRIPOS>BOND
     1    1    5 1   
     2    1   12 1   
     3    1   15 2   
     4    2   15 1   
     5    2   16 1   
     6    2   33 1   
     7    3    5 2   
     8    4   14 1   
     9    4   15 1   
    10    5    7 1   
    11    6   17 1   
    12    6   18 1   
    13    6   34 1   
    14    7    8 1   
    15    8   11 1   
    16    8   35 1   
    17    8   36 1   
    18    9   27 1   
    19    9   28 1   
    20    9   57 1   
    21   10   16 2   
    22   11   37 1   
    23   11   38 1   
    24   11   39 1   
    25   12   13 1   
    26   12   14 2   
    27   13   21 ar  
    28   13   25 ar  
    29   14   40 1   
    30   16   17 1   
    31   17   41 1   
    32   17   42 1   
    33   18   19 1   
    34   18   43 1   
    35   18   44 1   
    36   19   20 1   
    37   19   45 1   
    38   19   46 1   
    39   20   26 1   
    40   20   28 2   
    41   21   22 ar  
    42   21   47 1   
    43   22   23 ar  
    44   22   48 1   
    45   23   24 ar  
    46   23   49 1   
    47   24   25 ar  
    48   24   50 1   
    49   25   51 1   
    50   26   27 ar  
    51   26   29 ar  
    52   27   32 ar  
    53   28   52 1   
    54   29   30 ar  
    55   29   53 1   
    56   30   31 ar  
    57   30   54 1   
    58   31   32 ar  
    59   31   55 1   
    60   32   56 1   
@<TRIPOS>SUBSTRUCTURE
     1 RB4         1 TEMP              0 ****  ****    0 ROOT
