@<TRIPOS>MOLECULE
RB4
   58    61     1     0     0
SMALL
bcc


@<TRIPOS>ATOM
      1 C1         -0.0380   -1.1170    0.3010 cc        1 RB4     -0.175600
      2 N1         -1.1180   -2.8610    1.7430 n         1 RB4     -0.380100
      3 O1         -2.2940   -0.4270    0.8200 o         1 RB4     -0.689000
      4 S1          1.5390   -2.8920    1.2300 ss        1 RB4      0.264200
      5 C2         -1.2800   -0.3790    0.0910 c         1 RB4      0.715700
      6 N2         -3.7330   -0.9760    3.3020 n4        1 RB4     -0.757000
      7 O2         -1.3390    0.3870   -1.0230 os        1 RB4     -0.392900
      8 C3         -2.5220    1.1780   -1.2500 c3        1 RB4      0.137400
      9 N3         -9.3550    0.3380    4.7450 na        1 RB4     -0.171400
     10 O3         -0.9930   -1.6070    3.7090 o         1 RB4     -0.537100
     11 C4         -2.4870    2.4460   -0.4360 c3        1 RB4     -0.127100
     12 C5          1.2650   -0.8020   -0.1910 cc        1 RB4      0.031000
     13 C6          1.6470    0.3190   -1.0340 ca        1 RB4     -0.058000
     14 C7          2.1950   -1.7280    0.2780 cd        1 RB4     -0.217100
     15 C8         -0.0060   -2.2750    1.1130 cd        1 RB4     -0.054500
     16 C9         -1.6550   -2.2210    2.8580 c         1 RB4      0.648100
     17 C10        -3.1790   -2.3400    3.0820 c3        1 RB4      0.024800
     18 C11        -5.1500   -1.0160    3.7670 c3        1 RB4      0.098800
     19 C12        -5.7300    0.3850    3.9930 c3        1 RB4     -0.004200
     20 C13        -7.0810    0.2540    4.5450 cc        1 RB4     -0.211400
     21 C14         1.1080    0.4790   -2.3170 ca        1 RB4     -0.098500
     22 C15         1.5340    1.5310   -3.1280 ca        1 RB4     -0.133000
     23 C16         2.4930    2.4300   -2.6650 ca        1 RB4     -0.108000
     24 C17         3.0300    2.2780   -1.3860 ca        1 RB4     -0.133000
     25 C18         2.6160    1.2250   -0.5740 ca        1 RB4     -0.098500
     26 C19        -7.4220   -0.1910    5.8800 ca        1 RB4     -0.087800
     27 C20        -8.8630   -0.1240    5.9720 ca        1 RB4     -0.047200
     28 C21        -8.2810    0.5730    3.8970 cd        1 RB4     -0.059100
     29 C22        -6.6860   -0.6200    6.9870 ca        1 RB4     -0.111000
     30 C23        -7.3610   -0.9790    8.1430 ca        1 RB4     -0.129000
     31 C24        -8.7650   -0.9170    8.2210 ca        1 RB4     -0.106000
     32 C25        -9.5340   -0.4930    7.1490 ca        1 RB4     -0.123000
     33 HN1        -1.7890   -3.2200    1.0900 hn        1 RB4      0.314500
     34 HN2        -3.6650   -0.4410    2.4210 hn        1 RB4      0.474300
     35 H3         -2.4540    1.3900   -2.3530 h1        1 RB4      0.069200
     36 H3A        -3.4340    0.5670   -1.0270 h1        1 RB4      0.069200
     37 H4         -2.5350    2.2090    0.6540 hc        1 RB4      0.054367
     38 H4A        -1.5450    3.0130   -0.6330 hc        1 RB4      0.054367
     39 H4B        -3.3580    3.0880   -0.7090 hc        1 RB4      0.054367
     40 H7          3.2600   -1.6840    0.0290 h4        1 RB4      0.202000
     41 H10        -3.3540   -2.9680    4.0030 hx        1 RB4      0.118700
     42 H10A       -3.7160   -2.8040    2.2100 hx        1 RB4      0.118700
     43 H11        -5.1910   -1.5970    4.7340 hx        1 RB4      0.106200
     44 H11A       -5.7560   -1.5630    2.9900 hx        1 RB4      0.106200
     45 H12        -5.7540    0.9530    3.0250 hc        1 RB4      0.065700
     46 H12A       -5.0830    0.9550    4.7160 hc        1 RB4      0.065700
     47 H14         0.3420   -0.2220   -2.6800 ha        1 RB4      0.137500
     48 H15         1.1130    1.6450   -4.1380 ha        1 RB4      0.141500
     49 H16         2.8290    3.2580   -3.3080 ha        1 RB4      0.143000
     50 H17         3.7880    2.9870   -1.0190 ha        1 RB4      0.141500
     51 H18         3.0470    1.1000    0.4300 ha        1 RB4      0.137500
     52 H21        -8.4390    0.9580    2.8860 h4        1 RB4      0.173000
     53 H22        -5.5890   -0.6580    6.9420 ha        1 RB4      0.118000
     54 H23        -6.7940   -1.3140    9.0260 ha        1 RB4      0.142000
     55 H24        -9.2610   -1.2100    9.1600 ha        1 RB4      0.147000
     56 H25       -10.6300   -0.4420    7.2180 ha        1 RB4      0.147000
     57 H221       -3.1490   -0.4940    4.0020 hn        1 RB4      0.474300
     58 HN3       -10.3040    0.5240    4.5450 hn        1 RB4      0.314700
@<TRIPOS>BOND
     1    1    5 1   
     2    1   12 1   
     3    1   15 2   
     4    2   15 1   
     5    2   16 1   
     6    2   33 1   
     7    3    5 2   
     8    4   14 1   
     9    4   15 1   
    10    5    7 1   
    11    6   17 1   
    12    6   18 1   
    13    6   34 1   
    14    6   57 1   
    15    7    8 1   
    16    8   11 1   
    17    8   35 1   
    18    8   36 1   
    19    9   27 1   
    20    9   28 1   
    21    9   58 1   
    22   10   16 2   
    23   11   37 1   
    24   11   38 1   
    25   11   39 1   
    26   12   13 1   
    27   12   14 2   
    28   13   21 ar  
    29   13   25 ar  
    30   14   40 1   
    31   16   17 1   
    32   17   41 1   
    33   17   42 1   
    34   18   19 1   
    35   18   43 1   
    36   18   44 1   
    37   19   20 1   
    38   19   45 1   
    39   19   46 1   
    40   20   26 1   
    41   20   28 2   
    42   21   22 ar  
    43   21   47 1   
    44   22   23 ar  
    45   22   48 1   
    46   23   24 ar  
    47   23   49 1   
    48   24   25 ar  
    49   24   50 1   
    50   25   51 1   
    51   26   27 ar  
    52   26   29 ar  
    53   27   32 ar  
    54   28   52 1   
    55   29   30 ar  
    56   29   53 1   
    57   30   31 ar  
    58   30   54 1   
    59   31   32 ar  
    60   31   55 1   
    61   32   56 1   
@<TRIPOS>SUBSTRUCTURE
     1 RB4         1 TEMP              0 ****  ****    0 ROOT
