@<TRIPOS>MOLECULE
RB4
   58    61     1     0     0
SMALL
bcc


@<TRIPOS>ATOM
      1 C1         -0.0270   -1.1150    0.3210 cc        1 RB4     -0.175600
      2 N1         -1.1010   -2.8540    1.7730 ns        1 RB4     -0.380100
      3 O1         -2.2880   -0.4350    0.8230 o         1 RB4     -0.689000
      4 S1          1.5580   -2.8720    1.2710 ss        1 RB4      0.264200
      5 C2         -1.2720   -0.3880    0.0980 c         1 RB4      0.715700
      6 N2         -3.7350   -0.9710    3.3040 ny        1 RB4     -0.757000
      7 O2         -1.3310    0.3690   -1.0230 os        1 RB4     -0.392900
      8 C3         -2.5180    1.1500   -1.2620 c3        1 RB4      0.137400
      9 N3         -9.3690    0.3190    4.7220 na        1 RB4     -0.171400
     10 O3         -0.9930   -1.5800    3.7280 o         1 RB4     -0.537100
     11 C4         -2.4950    2.4250   -0.4580 c3        1 RB4     -0.127100
     12 C5          1.2760   -0.7960   -0.1690 cc        1 RB4      0.031000
     13 C6          1.6550    0.3200   -1.0200 ca        1 RB4     -0.058000
     14 C7          2.2110   -1.7120    0.3120 cd        1 RB4     -0.217100
     15 C8          0.0100   -2.2660    1.1430 cd        1 RB4     -0.054500
     16 C9         -1.6470   -2.2060    2.8800 c         1 RB4      0.648100
     17 C10        -3.1710   -2.3330    3.1000 c3        1 RB4      0.024800
     18 C11        -5.1530   -1.0160    3.7650 c3        1 RB4      0.098800
     19 C12        -5.7430    0.3830    3.9740 c3        1 RB4     -0.004200
     20 C13        -7.0940    0.2490    4.5260 cc        1 RB4     -0.211400
     21 C14         1.1210    0.4650   -2.3070 ca        1 RB4     -0.098500
     22 C15         1.5440    1.5120   -3.1250 ca        1 RB4     -0.133000
     23 C16         2.4950    2.4220   -2.6660 ca        1 RB4     -0.108000
     24 C17         3.0280    2.2840   -1.3830 ca        1 RB4     -0.133000
     25 C18         2.6160    1.2350   -0.5640 ca        1 RB4     -0.098500
     26 C19        -7.4330   -0.1820    5.8660 ca        1 RB4     -0.087800
     27 C20        -8.8740   -0.1260    5.9550 ca        1 RB4     -0.047200
     28 C21        -8.2960    0.5510    3.8730 cd        1 RB4     -0.059100
     29 C22        -6.6950   -0.5930    6.9780 ca        1 RB4     -0.111000
     30 C23        -7.3690   -0.9430    8.1380 ca        1 RB4     -0.129000
     31 C24        -8.7740   -0.8910    8.2130 ca        1 RB4     -0.106000
     32 C25        -9.5440   -0.4850    7.1360 ca        1 RB4     -0.123000
     33 HN1        -1.7680   -3.2220    1.1210 hn        1 RB4      0.314500
     34 HN2        -3.1560   -0.4770    4.0000 hn        1 RB4      0.474300
     35 H3         -2.4460    1.3540   -2.3660 h1        1 RB4      0.069200
     36 H3A        -3.4270    0.5350   -1.0380 h1        1 RB4      0.069200
     37 H4         -2.5470    2.1970    0.6340 hc        1 RB4      0.054367
     38 H4A        -3.3690    3.0590   -0.7410 hc        1 RB4      0.054367
     39 H4B        -1.5560    2.9970   -0.6550 hc        1 RB4      0.054367
     40 H7          3.2760   -1.6640    0.0670 h4        1 RB4      0.202000
     41 H10        -3.7020   -2.8090    2.2300 hx        1 RB4      0.118700
     42 H10A       -3.3460   -2.9530    4.0260 hx        1 RB4      0.118700
     43 H11        -5.1920   -1.5860    4.7390 hx        1 RB4      0.106200
     44 H11A       -5.7530   -1.5750    2.9930 hx        1 RB4      0.106200
     45 H12        -5.1020    0.9670    4.6910 hc        1 RB4      0.065700
     46 H12A       -5.7700    0.9400    2.9990 hc        1 RB4      0.065700
     47 H14         0.3610   -0.2450   -2.6670 ha        1 RB4      0.137500
     48 H15         1.1280    1.6150   -4.1390 ha        1 RB4      0.141500
     49 H16         2.8290    3.2460   -3.3150 ha        1 RB4      0.143000
     50 H17         3.7790    3.0010   -1.0190 ha        1 RB4      0.141500
     51 H18         3.0440    1.1220    0.4430 ha        1 RB4      0.137500
     52 H21        -8.4550    0.9230    2.8580 h4        1 RB4      0.173000
     53 H22        -5.5980   -0.6230    6.9350 ha        1 RB4      0.118000
     54 H23        -6.8010   -1.2640    9.0250 ha        1 RB4      0.142000
     55 H24        -9.2680   -1.1770    9.1550 ha        1 RB4      0.147000
     56 H25       -10.6400   -0.4410    7.2030 ha        1 RB4      0.147000
     57 H221       -3.6680   -0.4440    2.4170 hn        1 RB4      0.474300
     58 HN3       -10.3180    0.4960    4.5190 hn        1 RB4      0.314700
@<TRIPOS>BOND
     1    1    5 1   
     2    1   12 1   
     3    1   15 2   
     4    2   15 1   
     5    2   16 1   
     6    2   33 1   
     7    3    5 2   
     8    4   14 1   
     9    4   15 1   
    10    5    7 1   
    11    6   17 1   
    12    6   18 1   
    13    6   34 1   
    14    6   57 1   
    15    7    8 1   
    16    8   11 1   
    17    8   35 1   
    18    8   36 1   
    19    9   27 1   
    20    9   28 1   
    21    9   58 1   
    22   10   16 2   
    23   11   37 1   
    24   11   38 1   
    25   11   39 1   
    26   12   13 1   
    27   12   14 2   
    28   13   21 ar  
    29   13   25 ar  
    30   14   40 1   
    31   16   17 1   
    32   17   41 1   
    33   17   42 1   
    34   18   19 1   
    35   18   43 1   
    36   18   44 1   
    37   19   20 1   
    38   19   45 1   
    39   19   46 1   
    40   20   26 1   
    41   20   28 2   
    42   21   22 ar  
    43   21   47 1   
    44   22   23 ar  
    45   22   48 1   
    46   23   24 ar  
    47   23   49 1   
    48   24   25 ar  
    49   24   50 1   
    50   25   51 1   
    51   26   27 ar  
    52   26   29 ar  
    53   27   32 ar  
    54   28   52 1   
    55   29   30 ar  
    56   29   53 1   
    57   30   31 ar  
    58   30   54 1   
    59   31   32 ar  
    60   31   55 1   
    61   32   56 1   
@<TRIPOS>SUBSTRUCTURE
     1 RB4         1 TEMP              0 ****  ****    0 ROOT
