@<TRIPOS>MOLECULE
RB5
   20    19     1     0     0
SMALL
bcc


@<TRIPOS>ATOM
      1 C1         -2.0430    0.1000   -0.9840 c3        1 RB5      0.100400
      2 O1         -3.4040   -0.2280   -0.8030 oh        1 RB5     -0.591800
      3 C2         -1.3950    0.5000    0.3440 c3        1 RB5      0.075100
      4 O2         -1.4910   -0.5510    1.2860 oh        1 RB5     -0.606800
      5 C3          0.0570    0.9630    0.1470 c3        1 RB5      0.095100
      6 O3          0.4120    1.9230    1.1250 oh        1 RB5     -0.593800
      7 C4          1.0710   -0.2010    0.2030 c3        1 RB5     -0.013900
      8 O4          0.6280   -1.2960   -0.5740 oh        1 RB5     -0.600800
      9 C5          2.4340    0.3090   -0.2110 c         1 RB5      0.546900
     10 O5          3.0020   -0.1220   -1.2140 o         1 RB5     -0.518100
     11 H1         -1.4920   -0.7710   -1.4310 h1        1 RB5      0.058200
     12 H1A        -2.0430    0.9630   -1.7020 h1        1 RB5      0.058200
     13 HO1        -3.4530   -0.8480   -0.0620 ho        1 RB5      0.411000
     14 H2         -1.9850    1.3410    0.8150 h1        1 RB5      0.099700
     15 HO2        -1.0990   -1.3410    0.8880 ho        1 RB5      0.421000
     16 H3          0.1480    1.5100   -0.8340 h1        1 RB5      0.085700
     17 HO3         0.1530    1.5670    1.9860 ho        1 RB5      0.415000
     18 H4          1.1250   -0.5940    1.2600 h1        1 RB5      0.097700
     19 HO4         1.0250   -1.2210   -1.4550 ho        1 RB5      0.430000
     20 H5          2.8600    1.0970    0.4440 h4        1 RB5      0.033200
@<TRIPOS>BOND
     1    1    2 1   
     2    1    3 1   
     3    1   11 1   
     4    1   12 1   
     5    2   13 1   
     6    3    4 1   
     7    3    5 1   
     8    3   14 1   
     9    4   15 1   
    10    5    6 1   
    11    5    7 1   
    12    5   16 1   
    13    6   17 1   
    14    7    8 1   
    15    7    9 1   
    16    7   18 1   
    17    8   19 1   
    18    9   10 2   
    19    9   20 1   
@<TRIPOS>SUBSTRUCTURE
     1 RB5         1 TEMP              0 ****  ****    0 ROOT
