@<TRIPOS>MOLECULE
RB6
   59    62     1     0     0
SMALL
bcc


@<TRIPOS>ATOM
      1 OAX         4.3850   -2.4050    1.5600 o         1 RB6     -0.585100
      2 CAW         4.4170   -1.7020    0.5340 c         1 RB6      0.582800
      3 CAY         5.6820   -0.9580    0.1530 ce        1 RB6      0.287300
      4 CBB         5.4960    0.5100    0.0110 cc        1 RB6      0.570700
      5 NBF         6.2140    1.2680   -0.8290 nd        1 RB6     -0.514100
      6 SBE         5.6830    2.8130   -0.7520 ss        1 RB6      0.033700
      7 CBD         4.4360    2.4360    0.4490 cd        1 RB6      0.653300
      8 NBG         3.6410    3.4030    1.0310 nh        1 RB6     -0.886500
      9 NBC         4.4730    1.1230    0.7640 nc        1 RB6     -0.714000
     10 NAZ         6.8720   -1.4730   -0.0080 n2        1 RB6     -0.372200
     11 OBA         6.9780   -2.7720    0.0950 oh        1 RB6     -0.321500
     12 N           3.3620   -1.5750   -0.3400 n         1 RB6     -0.524900
     13 CA          2.0230   -1.9800    0.0130 c3        1 RB6     -0.025300
     14 C           1.3020   -2.7300   -1.0990 c         1 RB6      0.572900
     15 O           1.7390   -2.8770   -2.2400 o         1 RB6     -0.537100
     16 CB          1.1590   -0.7520    0.4790 c3        1 RB6      0.299600
     17 SAS         1.2290    0.5490   -0.7760 ss        1 RB6     -0.431200
     18 CAR        -0.1910    0.1470   -1.7760 c3        1 RB6      0.090900
     19 NAC        -0.1510   -1.1590    0.8950 nh        1 RB6     -0.730000
     20 CAD        -1.3190   -0.7160    0.2720 ce        1 RB6      0.064800
     21 CBH        -2.5870   -0.9150    1.1520 c         1 RB6      0.916800
     22 OBI        -3.5320   -1.6040    0.6990 o         1 RB6     -0.808300
     23 OBJ        -2.5560   -0.3580    2.2840 o         1 RB6     -0.808300
     24 CAE        -1.3840   -0.1420   -0.9610 c2        1 RB6     -0.268400
     25 CAF        -2.6940    0.2080   -1.5820 c3        1 RB6      0.045000
     26 CAG        -3.3980    1.3030   -0.8900 ce        1 RB6     -0.149400
     27 CAH        -4.9060    1.3150   -0.8330 c         1 RB6      0.678700
     28 OAI        -5.6830    0.6420   -1.5200 o         1 RB6     -0.601500
     29 CAQ        -2.9340    2.3030   -0.1090 c2        1 RB6     -0.149200
     30 CAP        -4.0900    3.0010    0.5770 c3        1 RB6      0.061200
     31 NAJ        -5.3180    2.3360    0.1020 n         1 RB6     -0.422800
     32 CAK        -6.2530    1.9510    1.1470 c3        1 RB6      0.050700
     33 CAL        -5.7490    0.8800    2.1460 c3        1 RB6     -0.144400
     34 CAM        -6.5350   -0.4010    1.8200 c3        1 RB6      0.133800
     35 NAN        -7.5120   -0.1250    0.7650 n3        1 RB6     -0.804200
     36 CAO        -7.5680    1.3190    0.5840 c3        1 RB6      0.151800
     37 H1          3.3240    4.0990    0.3910 hn        1 RB6      0.417800
     38 H2          2.9200    3.0610    1.6350 hn        1 RB6      0.417800
     39 H3          7.9340   -2.9500   -0.0310 ho        1 RB6      0.441000
     40 H4          3.4230   -0.9210   -1.0910 hn        1 RB6      0.331500
     41 H5          2.0940   -2.6960    0.8920 h1        1 RB6      0.110700
     42 H6          0.3240   -3.1580   -0.7810 h4        1 RB6      0.040200
     43 H7          1.7140   -0.2850    1.3470 h2        1 RB6      0.081700
     44 H8         -0.3450    1.0370   -2.4350 h1        1 RB6      0.064700
     45 H9          0.0720   -0.7310   -2.4190 h1        1 RB6      0.064700
     46 H10        -0.2550   -1.1830    1.8950 hn        1 RB6      0.432800
     47 H12        -2.5530    0.4800   -2.6640 hc        1 RB6      0.070700
     48 H13        -3.3620   -0.7040   -1.5450 hc        1 RB6      0.070700
     49 H14        -1.9030    2.5830    0.0940 ha        1 RB6      0.154000
     50 H15        -3.9690    2.9270    1.6930 h1        1 RB6      0.060200
     51 H16        -4.1480    4.0830    0.2840 h1        1 RB6      0.060200
     52 H17        -6.5040    2.9010    1.6970 h1        1 RB6      0.045700
     53 H18        -4.6470    0.6750    2.0640 hc        1 RB6      0.074700
     54 H19        -5.9610    1.2170    3.1890 hc        1 RB6      0.074700
     55 H20        -5.8170   -1.2160    1.5190 h1        1 RB6      0.064700
     56 H21        -7.1030   -0.7450    2.7260 h1        1 RB6      0.064700
     57 H22        -7.2070   -0.5540   -0.0940 hn        1 RB6      0.366800
     58 H24        -8.4220    1.7130    1.1990 h1        1 RB6      0.048200
     59 H25        -7.7430    1.5900   -0.4890 h1        1 RB6      0.048200
@<TRIPOS>BOND
     1    1    2 2   
     2    2    3 1   
     3    2   12 1   
     4    3    4 1   
     5    3   10 2   
     6    4    5 2   
     7    4    9 1   
     8    5    6 1   
     9    6    7 1   
    10    7    8 1   
    11    7    9 2   
    12    8   37 1   
    13    8   38 1   
    14   10   11 1   
    15   11   39 1   
    16   12   13 1   
    17   12   40 1   
    18   13   14 1   
    19   13   16 1   
    20   13   41 1   
    21   14   15 2   
    22   14   42 1   
    23   16   17 1   
    24   16   19 1   
    25   16   43 1   
    26   17   18 1   
    27   18   24 1   
    28   18   44 1   
    29   18   45 1   
    30   19   20 1   
    31   19   46 1   
    32   20   21 1   
    33   20   24 2   
    34   21   22 1   
    35   21   23 1   
    36   24   25 1   
    37   25   26 1   
    38   25   47 1   
    39   25   48 1   
    40   26   27 1   
    41   26   29 2   
    42   27   28 2   
    43   27   31 1   
    44   29   30 1   
    45   29   49 1   
    46   30   31 1   
    47   30   50 1   
    48   30   51 1   
    49   31   32 1   
    50   32   33 1   
    51   32   36 1   
    52   32   52 1   
    53   33   34 1   
    54   33   53 1   
    55   33   54 1   
    56   34   35 1   
    57   34   55 1   
    58   34   56 1   
    59   35   36 1   
    60   35   57 1   
    61   36   58 1   
    62   36   59 1   
@<TRIPOS>SUBSTRUCTURE
     1 RB6         1 TEMP              0 ****  ****    0 ROOT
