@<TRIPOS>MOLECULE
RB6
   59    62     1     0     0
SMALL
bcc


@<TRIPOS>ATOM
      1 OAX         4.3620   -1.2300   -1.4300 o         1 RB6     -0.592100
      2 CAW         3.4290   -0.4240   -1.2570 c         1 RB6      0.573800
      3 CAY         3.4430    0.5090   -0.0610 ce        1 RB6      0.305300
      4 CBB         3.7230    1.9240   -0.4330 cc        1 RB6      0.577700
      5 NBF         4.7630    2.6090    0.0530 nd        1 RB6     -0.520100
      6 SBE         4.8130    4.0830   -0.6680 ss        1 RB6     -0.007300
      7 CBD         3.3660    3.7680   -1.6590 cd        1 RB6      0.688300
      8 NBG         2.7980    4.7100   -2.4790 nh        1 RB6     -0.887500
      9 NBC         2.8880    2.5320   -1.3890 nc        1 RB6     -0.733000
     10 NAZ         3.2860    0.1980    1.1950 n2        1 RB6     -0.390200
     11 OBA         3.0320   -1.0580    1.4710 oh        1 RB6     -0.334500
     12 N           2.3170   -0.3520   -2.0700 n         1 RB6     -0.521900
     13 CA          2.3680   -0.8280   -3.4350 c3        1 RB6     -0.025300
     14 C           3.3050   -0.0530   -4.3590 c         1 RB6      0.567900
     15 O           3.9050    0.9730   -4.0340 o         1 RB6     -0.550100
     16 CB          0.9190   -0.9140   -4.0390 c3        1 RB6      0.314600
     17 SAS        -0.0990    0.4880   -3.5020 ss        1 RB6     -0.393200
     18 CAR         0.4800    1.7300   -4.6280 c3        1 RB6      0.069900
     19 NAC         0.9340   -1.1180   -5.4520 nh        1 RB6     -0.737000
     20 CAD         0.7510   -0.0670   -6.3600 ce        1 RB6      0.056800
     21 CBH         0.6640   -0.5660   -7.8310 c         1 RB6      0.925800
     22 OBI         1.3720    0.0020   -8.7030 o         1 RB6     -0.815800
     23 OBJ        -0.1170   -1.5320   -8.0390 o         1 RB6     -0.815800
     24 CAE         0.6270    1.2440   -6.0170 c2        1 RB6     -0.253400
     25 CAF         0.6270    2.3300   -7.0400 c3        1 RB6      0.053000
     26 CAG         1.9840    2.8660   -7.2740 ce        1 RB6     -0.158400
     27 CAH         2.6500    3.8950   -6.4000 c         1 RB6      0.699700
     28 OAI         2.2110    4.4260   -5.3660 o         1 RB6     -0.662500
     29 CAQ         2.8430    2.5110   -8.2580 c2        1 RB6     -0.121200
     30 CAP         4.1290    3.2990   -8.1260 c3        1 RB6      0.075200
     31 NAJ         3.8990    4.2210   -7.0030 n         1 RB6     -0.460800
     32 CAK         5.0560    4.6870   -6.2930 c3        1 RB6      0.088700
     33 CAL         5.6980    3.7120   -5.2750 c3        1 RB6     -0.140400
     34 CAM         6.1560    4.5890   -4.1010 c3        1 RB6      0.140800
     35 NAN         5.7090    5.9670   -4.3040 n3        1 RB6     -0.807200
     36 CAO         4.8280    5.9930   -5.4650 c3        1 RB6      0.130800
     37 H1          2.0950    4.3780   -3.1160 hn        1 RB6      0.439300
     38 H2          3.4500    5.3370   -2.9050 hn        1 RB6      0.439300
     39 H3          2.9780   -1.0850    2.4480 ho        1 RB6      0.437000
     40 H4          1.6670    0.4000   -1.9170 hn        1 RB6      0.346500
     41 H5          2.7830   -1.8840   -3.4100 h1        1 RB6      0.092700
     42 H6          3.4350   -0.5110   -5.3650 h4        1 RB6      0.038200
     43 H7          0.4220   -1.7920   -3.5310 h2        1 RB6      0.078700
     44 H8         -0.2840    2.5470   -4.5740 h1        1 RB6      0.073200
     45 H9          1.4530    2.1470   -4.2560 h1        1 RB6      0.073200
     46 H10         0.4910   -1.9640   -5.7610 hn        1 RB6      0.439800
     47 H12        -0.0460    3.1670   -6.7080 hc        1 RB6      0.063700
     48 H13         0.2340    1.9250   -8.0160 hc        1 RB6      0.063700
     49 H14         2.6850    1.7500   -9.0310 ha        1 RB6      0.213000
     50 H15         4.9970    2.6140   -7.9270 h1        1 RB6      0.057700
     51 H16         4.3380    3.8970   -9.0530 h1        1 RB6      0.057700
     52 H17         5.8300    4.9180   -7.0860 h1        1 RB6      0.041700
     53 H18         4.9680    2.9390   -4.9210 hc        1 RB6      0.071700
     54 H19         6.5620    3.1790   -5.7370 hc        1 RB6      0.071700
     55 H20         7.2710    4.5320   -3.9790 h1        1 RB6      0.045200
     56 H21         5.6940    4.2240   -3.1390 h1        1 RB6      0.045200
     57 H22         6.5010    6.5640   -4.4590 hn        1 RB6      0.340800
     58 H24         3.7690    6.0410   -5.0860 h1        1 RB6      0.064200
     59 H25         5.0120    6.8920   -6.1090 h1        1 RB6      0.064200
@<TRIPOS>BOND
     1    1    2 2   
     2    2    3 1   
     3    2   12 1   
     4    3    4 1   
     5    3   10 2   
     6    4    5 2   
     7    4    9 1   
     8    5    6 1   
     9    6    7 1   
    10    7    8 1   
    11    7    9 2   
    12    8   37 1   
    13    8   38 1   
    14   10   11 1   
    15   11   39 1   
    16   12   13 1   
    17   12   40 1   
    18   13   14 1   
    19   13   16 1   
    20   13   41 1   
    21   14   15 2   
    22   14   42 1   
    23   16   17 1   
    24   16   19 1   
    25   16   43 1   
    26   17   18 1   
    27   18   24 1   
    28   18   44 1   
    29   18   45 1   
    30   19   20 1   
    31   19   46 1   
    32   20   21 1   
    33   20   24 2   
    34   21   22 1   
    35   21   23 1   
    36   24   25 1   
    37   25   26 1   
    38   25   47 1   
    39   25   48 1   
    40   26   27 1   
    41   26   29 2   
    42   27   28 2   
    43   27   31 1   
    44   29   30 1   
    45   29   49 1   
    46   30   31 1   
    47   30   50 1   
    48   30   51 1   
    49   31   32 1   
    50   32   33 1   
    51   32   36 1   
    52   32   52 1   
    53   33   34 1   
    54   33   53 1   
    55   33   54 1   
    56   34   35 1   
    57   34   55 1   
    58   34   56 1   
    59   35   36 1   
    60   35   57 1   
    61   36   58 1   
    62   36   59 1   
@<TRIPOS>SUBSTRUCTURE
     1 RB6         1 TEMP              0 ****  ****    0 ROOT
