@<TRIPOS>MOLECULE
RB6
   60    63     1     0     0
SMALL
bcc


@<TRIPOS>ATOM
      1 OAX         0.2950    0.1270    0.3900 o         1 RB6     -0.414100
      2 CAW         1.3800   -0.0180   -0.1540 c         1 RB6      0.474800
      3 CAY         2.6970   -0.1850    0.5440 ce        1 RB6      0.250300
      4 CBB         3.6520    0.9320    0.3430 cc        1 RB6      0.576700
      5 NBF         3.5320    1.7490   -0.7220 nd        1 RB6     -0.637100
      6 SBE         4.6940    2.8770   -0.6840 ss        1 RB6      0.163700
      7 CBD         5.3940    2.2490    0.8130 cd        1 RB6      0.659300
      8 NBG         6.4310    2.8420    1.4690 nv        1 RB6     -0.915500
      9 NBC         4.6940    1.1610    1.2460 nc        1 RB6     -0.702000
     10 NAZ         3.0070   -1.1980    1.3170 n2        1 RB6     -0.281200
     11 OBA         2.1160   -2.1270    1.4640 oh        1 RB6     -0.319500
     12 N           1.4430   -0.0330   -1.6450 ny        1 RB6     -0.651800
     13 CA          0.3360   -0.8050   -2.2960 c3        1 RB6     -0.015500
     14 C           0.5280   -2.3160   -2.2370 c         1 RB6      0.572900
     15 O           1.4040   -2.8410   -1.5560 o         1 RB6     -0.501100
     16 CB          0.2080   -0.3570   -3.7860 c3        1 RB6      0.261600
     17 SAS        -0.0860    1.4170   -3.7070 ss        1 RB6     -0.372200
     18 CAR         1.0590    2.1220   -4.8890 c3        1 RB6      0.079900
     19 NAC         1.3990   -0.7300   -4.5140 nu        1 RB6     -0.731000
     20 CAD         1.5910   -0.1280   -5.7870 ce        1 RB6     -0.004200
     21 CBH         2.0030   -1.1450   -6.8950 c         1 RB6      0.923800
     22 OBI         2.7670   -0.7560   -7.8080 o         1 RB6     -0.796300
     23 OBJ         1.5310   -2.3060   -6.7530 o         1 RB6     -0.796300
     24 CAE         1.4260    1.2030   -5.9840 c2        1 RB6     -0.172400
     25 CAF         1.6170    1.8500   -7.3150 c3        1 RB6      0.038000
     26 CAG         2.9400    2.4880   -7.4390 ce        1 RB6     -0.176400
     27 CAH         3.2200    3.8930   -6.9770 c         1 RB6      0.680700
     28 OAI         2.4290    4.6700   -6.4220 o         1 RB6     -0.632500
     29 CAQ         4.0670    1.9690   -7.9770 c2        1 RB6     -0.109200
     30 CAP         5.1760    3.0000   -7.9210 c3        1 RB6      0.073200
     31 NAJ         4.6020    4.1490   -7.2060 n         1 RB6     -0.456800
     32 CAK         5.1530    5.4460   -7.4880 c3        1 RB6      0.083700
     33 CAL         4.8350    6.5430   -6.4460 c3        1 RB6     -0.110400
     34 CAM         4.5050    7.8050   -7.2600 c3        1 RB6      0.141800
     35 NAN         4.6680    7.5350   -8.6870 n7        1 RB6     -0.784200
     36 CAO         4.7230    6.0900   -8.8520 c3        1 RB6      0.111800
     37 H1          6.8160    2.3910    2.2680 hn        1 RB6      0.445300
     38 H2          7.0340    3.4270    0.9400 hn        1 RB6      0.445300
     39 H3          2.5450   -2.8150    2.0240 ho        1 RB6      0.481000
     40 H4          2.3450   -0.4210   -1.9520 hn        1 RB6      0.494800
     41 H5         -0.6310   -0.5470   -1.7620 hx        1 RB6      0.138700
     42 H6         -0.1980   -2.8800   -2.8610 h4        1 RB6      0.066200
     43 H7         -0.7340   -0.8300   -4.1860 h2        1 RB6      0.098700
     44 H8          1.9730    2.4290   -4.3210 h1        1 RB6      0.088700
     45 H9          0.5610    3.0510   -5.2720 h1        1 RB6      0.088700
     46 H10         1.4320   -1.7390   -4.6330 hn        1 RB6      0.420800
     47 H12         0.8160    2.6260   -7.4680 hc        1 RB6      0.079200
     48 H13         1.5170    1.0710   -8.1260 hc        1 RB6      0.079200
     49 H14         4.2080    0.9560   -8.3720 ha        1 RB6      0.209000
     50 H15         5.5130    3.2800   -8.9570 h1        1 RB6      0.062700
     51 H16         6.0580    2.6130   -7.3430 h1        1 RB6      0.062700
     52 H17         6.2750    5.3010   -7.5160 h1        1 RB6      0.046700
     53 H18         3.9650    6.2650   -5.8000 hc        1 RB6      0.063700
     54 H19         5.7210    6.7090   -5.7880 hc        1 RB6      0.063700
     55 H20         5.1430    8.6680   -6.9330 h1        1 RB6      0.050200
     56 H21         3.4290    8.0900   -7.0970 h1        1 RB6      0.050200
     57 H22         5.5190    7.9510   -9.0200 hn        1 RB6      0.341800
     58 H24         5.4320    5.7920   -9.6670 h1        1 RB6      0.056700
     59 H25         3.6910    5.7440   -9.1360 h1        1 RB6      0.056700
     60 H23         1.3600    0.9560   -2.0140 hn        1 RB6      0.494800
@<TRIPOS>BOND
     1    1    2 2   
     2    2    3 1   
     3    2   12 1   
     4    3    4 1   
     5    3   10 2   
     6    4    5 2   
     7    4    9 1   
     8    5    6 1   
     9    6    7 1   
    10    7    8 1   
    11    7    9 2   
    12    8   37 1   
    13    8   38 1   
    14   10   11 1   
    15   11   39 1   
    16   12   13 1   
    17   12   40 1   
    18   12   60 1   
    19   13   14 1   
    20   13   16 1   
    21   13   41 1   
    22   14   15 2   
    23   14   42 1   
    24   16   17 1   
    25   16   19 1   
    26   16   43 1   
    27   17   18 1   
    28   18   24 1   
    29   18   44 1   
    30   18   45 1   
    31   19   20 1   
    32   19   46 1   
    33   20   21 1   
    34   20   24 2   
    35   21   22 1   
    36   21   23 1   
    37   24   25 1   
    38   25   26 1   
    39   25   47 1   
    40   25   48 1   
    41   26   27 1   
    42   26   29 2   
    43   27   28 2   
    44   27   31 1   
    45   29   30 1   
    46   29   49 1   
    47   30   31 1   
    48   30   50 1   
    49   30   51 1   
    50   31   32 1   
    51   32   33 1   
    52   32   36 1   
    53   32   52 1   
    54   33   34 1   
    55   33   53 1   
    56   33   54 1   
    57   34   35 1   
    58   34   55 1   
    59   34   56 1   
    60   35   36 1   
    61   35   57 1   
    62   36   58 1   
    63   36   59 1   
@<TRIPOS>SUBSTRUCTURE
     1 RB6         1 TEMP              0 ****  ****    0 ROOT
