@<TRIPOS>MOLECULE
RB9
   67    71     1     0     0
SMALL
bcc


@<TRIPOS>ATOM
      1 C1         -0.2550    0.3580    0.1150 cc        1 RB9     -0.284600
      2 N1         -0.6880    0.6240   -2.3400 n4        1 RB9     -0.665800
      3 O1         -2.4520    0.5990   -0.8090 o         1 RB9     -0.510100
      4 S1          0.7530    0.0630    2.4460 ss        1 RB9      0.321200
      5 C2         -1.2270    0.5290   -0.9370 c         1 RB9      0.603700
      6 N2         -1.9170    0.2840    1.9670 n         1 RB9     -0.410100
      7 O2         -1.3670   -0.0060    4.1870 o         1 RB9     -0.567100
      8 C3         -1.7180    0.8150   -3.4190 c3        1 RB9      0.178100
      9 N3         -3.9230   -0.0160    5.1320 n4        1 RB9     -0.754000
     10 C4         -1.8860    2.2500   -3.7780 ca        1 RB9     -0.191300
     11 N4         -9.0880    0.3570    8.0770 na        1 RB9     -0.161400
     12 C5          1.1730    0.2750   -0.0440 cc        1 RB9      0.011000
     13 C6          1.9030    0.3400   -1.3040 ca        1 RB9     -0.123000
     14 C7          1.7990    0.1150    1.1760 cd        1 RB9     -0.209100
     15 C8         -0.6130    0.2470    1.4900 cd        1 RB9      0.045500
     16 C9         -2.2320    0.1480    3.3040 c         1 RB9      0.636100
     17 C10        -3.7220    0.2010    3.6750 c3        1 RB9      0.028800
     18 C11        -5.3680    0.0870    5.5200 c3        1 RB9      0.097800
     19 C12        -5.5890   -0.2000    7.0110 c3        1 RB9      0.002800
     20 C13        -7.0300   -0.2120    7.2660 cc        1 RB9     -0.234400
     21 C14         2.3930    1.5690   -1.7720 ca        1 RB9     -0.136000
     22 C15         3.1610    1.6150   -2.9340 ca        1 RB9     -0.118000
     23 C16         3.4460    0.4420   -3.6350 ca        1 RB9     -0.095000
     24 C17         2.9580   -0.7820   -3.1740 ca        1 RB9     -0.118000
     25 C18         2.1900   -0.8370   -2.0120 ca        1 RB9     -0.136000
     26 C19        -1.0890    2.8180   -4.7800 ca        1 RB9     -0.098500
     27 C20        -1.2880    4.1440   -5.1570 ca        1 RB9     -0.121000
     28 C21        -2.2820    4.9060   -4.5380 ca        1 RB9     -0.073000
     29 C22        -3.0760    4.3410   -3.5390 ca        1 RB9     -0.121000
     30 C23        -2.8810    3.0160   -3.1570 ca        1 RB9     -0.098500
     31 C24        -7.7510    0.7160    8.0330 cd        1 RB9     -0.043100
     32 C25        -9.2570   -0.8300    7.3510 ca        1 RB9     -0.048200
     33 C26        -7.9710   -1.2190    6.8220 ca        1 RB9     -0.086800
     34 C27        -7.8700   -2.3880    6.0630 ca        1 RB9     -0.123000
     35 C28        -9.0110   -3.1390    5.8320 ca        1 RB9     -0.122000
     36 C29       -10.2630   -2.7470    6.3450 ca        1 RB9     -0.104000
     37 C30       -10.4070   -1.5990    7.1070 ca        1 RB9     -0.113000
     38 HN1        -0.0200    1.4140   -2.3650 hn        1 RB9      0.472300
     39 HN2        -2.6510    0.4080    1.2950 hn        1 RB9      0.365500
     40 H3         -1.3610    0.2260   -4.3140 hx        1 RB9      0.114700
     41 H3A        -2.6950    0.3750   -3.0630 hx        1 RB9      0.114700
     42 HN3        -3.3700    0.6760    5.6580 hn        1 RB9      0.465300
     43 H7          2.8860    0.0290    1.2970 h4        1 RB9      0.222000
     44 H10        -4.2900   -0.5970    3.1120 hx        1 RB9      0.135700
     45 H10A       -4.1450    1.2120    3.3990 hx        1 RB9      0.135700
     46 H11        -5.7230    1.1260    5.2690 hx        1 RB9      0.112200
     47 H11A       -5.9520   -0.6610    4.9070 hx        1 RB9      0.112200
     48 H12        -5.0820    0.5830    7.6360 hc        1 RB9      0.068200
     49 H12A       -5.1510   -1.2010    7.2790 hc        1 RB9      0.068200
     50 H14         2.2050    2.4920   -1.2010 ha        1 RB9      0.150500
     51 H15         3.5620    2.5800   -3.2880 ha        1 RB9      0.165000
     52 H16         4.0710    0.4800   -4.5430 ha        1 RB9      0.168000
     53 H17         3.2000   -1.7110   -3.7160 ha        1 RB9      0.165000
     54 H18         1.8460   -1.8100   -1.6270 ha        1 RB9      0.150500
     55 H19        -0.3210    2.2150   -5.2880 ha        1 RB9      0.139500
     56 H20        -0.6690    4.5880   -5.9540 ha        1 RB9      0.160000
     57 H21        -2.4440    5.9530   -4.8460 ha        1 RB9      0.164000
     58 H22        -3.8660    4.9410   -3.0600 ha        1 RB9      0.160000
     59 H23        -3.5150    2.5640   -2.3780 ha        1 RB9      0.139500
     60 H24        -7.3900    1.6060    8.5570 h4        1 RB9      0.177000
     61 H27        -6.8960   -2.7150    5.6760 ha        1 RB9      0.108000
     62 H28        -8.9470   -4.0680    5.2450 ha        1 RB9      0.143000
     63 H29       -11.1440   -3.3760    6.1400 ha        1 RB9      0.154000
     64 H30       -11.3850   -1.3020    7.5130 ha        1 RB9      0.155000
     65 H121       -0.1500   -0.2370   -2.5200 hn        1 RB9      0.472300
     66 H32        -3.5620   -0.9440    5.3910 hn        1 RB9      0.465300
     67 HN4        -9.7950    0.8130    8.5960 hn        1 RB9      0.321700
@<TRIPOS>BOND
     1    1    5 1   
     2    1   12 1   
     3    1   15 2   
     4    2    5 1   
     5    2    8 1   
     6    2   38 1   
     7    2   65 1   
     8    3    5 2   
     9    4   14 1   
    10    4   15 1   
    11    6   15 1   
    12    6   16 1   
    13    6   39 1   
    14    7   16 2   
    15    8   10 1   
    16    8   40 1   
    17    8   41 1   
    18    9   17 1   
    19    9   18 1   
    20    9   42 1   
    21    9   66 1   
    22   10   26 ar  
    23   10   30 ar  
    24   11   31 1   
    25   11   32 1   
    26   11   67 1   
    27   12   13 1   
    28   12   14 2   
    29   13   21 ar  
    30   13   25 ar  
    31   14   43 1   
    32   16   17 1   
    33   17   44 1   
    34   17   45 1   
    35   18   19 1   
    36   18   46 1   
    37   18   47 1   
    38   19   20 1   
    39   19   48 1   
    40   19   49 1   
    41   20   31 2   
    42   20   33 1   
    43   21   22 ar  
    44   21   50 1   
    45   22   23 ar  
    46   22   51 1   
    47   23   24 ar  
    48   23   52 1   
    49   24   25 ar  
    50   24   53 1   
    51   25   54 1   
    52   26   27 ar  
    53   26   55 1   
    54   27   28 ar  
    55   27   56 1   
    56   28   29 ar  
    57   28   57 1   
    58   29   30 ar  
    59   29   58 1   
    60   30   59 1   
    61   31   60 1   
    62   32   33 ar  
    63   32   37 ar  
    64   33   34 ar  
    65   34   35 ar  
    66   34   61 1   
    67   35   36 ar  
    68   35   62 1   
    69   36   37 ar  
    70   36   63 1   
    71   37   64 1   
@<TRIPOS>SUBSTRUCTURE
     1 RB9         1 TEMP              0 ****  ****    0 ROOT
