@<TRIPOS>MOLECULE
RB9
   68    72     1     0     0
SMALL
bcc


@<TRIPOS>ATOM
      1 C1         -0.9610   -0.0980   -0.1780 cc        1 RB9     -0.182600
      2 N1         -1.0050    1.6590   -1.9970 n4        1 RB9     -0.661800
      3 O1         -2.9030    1.1640   -0.7260 o         1 RB9     -0.507100
      4 S1         -0.4060   -1.9950    1.4320 ss        1 RB9      0.459200
      5 C2         -1.7100    0.9080   -0.9270 c         1 RB9      0.594700
      6 N2         -2.9330   -0.9090    1.2060 n4        1 RB9     -0.479200
      7 O2         -2.3780    0.5390    2.9900 o         1 RB9     -0.352100
      8 C3         -1.9120    2.5710   -2.8050 c3        1 RB9      0.198100
      9 N3         -4.8230    0.2350    4.3960 n4        1 RB9     -0.765000
     10 C4         -1.1290    3.2580   -3.8600 ca        1 RB9     -0.219300
     11 N4         -9.6890   -0.2350    7.7940 na        1 RB9     -0.146400
     12 C5          0.4160   -0.3980   -0.3470 cc        1 RB9      0.060000
     13 C6          1.3430    0.2530   -1.2590 ca        1 RB9     -0.178000
     14 C7          0.7960   -1.4440    0.5100 cd        1 RB9     -0.172100
     15 C8         -1.5460   -0.9410    0.8190 cd        1 RB9     -0.201500
     16 C9         -3.2170   -0.2070    2.5180 c         1 RB9      0.497100
     17 C10        -4.5820   -0.5040    3.1310 c3        1 RB9      0.025800
     18 C11        -6.1520   -0.1440    5.0180 c3        1 RB9      0.095800
     19 C12        -6.3720    0.5560    6.3710 c3        1 RB9      0.014800
     20 C13        -7.5760   -0.0260    6.9570 cc        1 RB9     -0.263400
     21 C14         1.9810    1.4460   -0.8780 ca        1 RB9     -0.126500
     22 C15         2.9540    2.0070   -1.7020 ca        1 RB9     -0.107000
     23 C16         3.2980    1.3870   -2.9070 ca        1 RB9     -0.065000
     24 C17         2.6600    0.2050   -3.2910 ca        1 RB9     -0.107000
     25 C18         1.6880   -0.3660   -2.4700 ca        1 RB9     -0.126500
     26 C19        -1.0320    2.6930   -5.1400 ca        1 RB9     -0.094000
     27 C20        -0.3690    3.3800   -6.1540 ca        1 RB9     -0.115500
     28 C21         0.2000    4.6300   -5.8960 ca        1 RB9     -0.053000
     29 C22         0.1080    5.1930   -4.6200 ca        1 RB9     -0.115500
     30 C23        -0.5540    4.5110   -3.6020 ca        1 RB9     -0.094000
     31 C24        -8.8090    0.6200    7.1630 cd        1 RB9     -0.023100
     32 C25        -9.0400   -1.4580    8.0300 ca        1 RB9     -0.051200
     33 C26        -7.6960   -1.3590    7.5100 ca        1 RB9     -0.085800
     34 C27        -6.8340   -2.4500    7.6350 ca        1 RB9     -0.138000
     35 C28        -7.2960   -3.6030    8.2530 ca        1 RB9     -0.110000
     36 C29        -8.6110   -3.6920    8.7490 ca        1 RB9     -0.101000
     37 C30        -9.4980   -2.6320    8.6500 ca        1 RB9     -0.099000
     38 HN1        -0.5420    0.9860   -2.6340 hn        1 RB9      0.482800
     39 HN2        -3.4710   -0.4070    0.4670 hn        1 RB9      0.490300
     40 H3         -2.7260    1.9260   -3.2440 hx        1 RB9      0.112200
     41 H3A        -2.3730    3.3050   -2.0830 hx        1 RB9      0.112200
     42 HN3        -4.0750    0.0320    5.0760 hn        1 RB9      0.470300
     43 H7          1.8290   -1.8360    0.5350 h4        1 RB9      0.258000
     44 H10        -4.6660   -1.6150    3.3500 hx        1 RB9      0.159200
     45 H10A       -5.4000   -0.2260    2.3960 hx        1 RB9      0.159200
     46 H11        -6.1560   -1.2620    5.1780 hx        1 RB9      0.118200
     47 H11A       -6.9650    0.1410    4.2940 hx        1 RB9      0.118200
     48 H12        -6.4870    1.6630    6.2220 hc        1 RB9      0.071700
     49 H12A       -5.4910    0.3750    7.0470 hc        1 RB9      0.071700
     50 H14         1.7540    1.9130    0.0940 ha        1 RB9      0.149000
     51 H15         3.4720    2.9310   -1.3910 ha        1 RB9      0.179500
     52 H16         4.0870    1.8220   -3.5460 ha        1 RB9      0.185000
     53 H17         2.9420   -0.2930   -4.2350 ha        1 RB9      0.179500
     54 H18         1.2200   -1.3200   -2.7620 ha        1 RB9      0.149000
     55 H19        -1.5030    1.7220   -5.3580 ha        1 RB9      0.137000
     56 H20        -0.3060    2.9440   -7.1650 ha        1 RB9      0.173500
     57 H21         0.7140    5.1790   -6.7050 ha        1 RB9      0.178000
     58 H22         0.5470    6.1860   -4.4230 ha        1 RB9      0.173500
     59 H23        -0.6480    4.9730   -2.6070 ha        1 RB9      0.137000
     60 H24        -9.1010    1.6440    6.9080 h4        1 RB9      0.182000
     61 H27        -5.7980   -2.3840    7.2780 ha        1 RB9      0.097000
     62 H28        -6.6250   -4.4680    8.3730 ha        1 RB9      0.147000
     63 H29        -8.9350   -4.6260    9.2380 ha        1 RB9      0.164000
     64 H30       -10.5200   -2.7040    9.0500 ha        1 RB9      0.164000
     65 H121       -0.2480    2.2210   -1.5690 hn        1 RB9      0.482800
     66 H221       -3.2860   -1.8780    1.2570 hn        1 RB9      0.490300
     67 H32        -4.8150    1.2500    4.2230 hn        1 RB9      0.470300
     68 HN4       -10.6010   -0.0080    8.1050 hn        1 RB9      0.330700
@<TRIPOS>BOND
     1    1    5 1   
     2    1   12 1   
     3    1   15 2   
     4    2    5 1   
     5    2    8 1   
     6    2   38 1   
     7    2   65 1   
     8    3    5 2   
     9    4   14 1   
    10    4   15 1   
    11    6   15 1   
    12    6   16 1   
    13    6   39 1   
    14    6   66 1   
    15    7   16 2   
    16    8   10 1   
    17    8   40 1   
    18    8   41 1   
    19    9   17 1   
    20    9   18 1   
    21    9   42 1   
    22    9   67 1   
    23   10   26 ar  
    24   10   30 ar  
    25   11   31 1   
    26   11   32 1   
    27   11   68 1   
    28   12   13 1   
    29   12   14 2   
    30   13   21 ar  
    31   13   25 ar  
    32   14   43 1   
    33   16   17 1   
    34   17   44 1   
    35   17   45 1   
    36   18   19 1   
    37   18   46 1   
    38   18   47 1   
    39   19   20 1   
    40   19   48 1   
    41   19   49 1   
    42   20   31 2   
    43   20   33 1   
    44   21   22 ar  
    45   21   50 1   
    46   22   23 ar  
    47   22   51 1   
    48   23   24 ar  
    49   23   52 1   
    50   24   25 ar  
    51   24   53 1   
    52   25   54 1   
    53   26   27 ar  
    54   26   55 1   
    55   27   28 ar  
    56   27   56 1   
    57   28   29 ar  
    58   28   57 1   
    59   29   30 ar  
    60   29   58 1   
    61   30   59 1   
    62   31   60 1   
    63   32   33 ar  
    64   32   37 ar  
    65   33   34 ar  
    66   34   35 ar  
    67   34   61 1   
    68   35   36 ar  
    69   35   62 1   
    70   36   37 ar  
    71   36   63 1   
    72   37   64 1   
@<TRIPOS>SUBSTRUCTURE
     1 RB9         1 TEMP              0 ****  ****    0 ROOT
