@<TRIPOS>MOLECULE
RB9
   65    69     1     0     0
SMALL
bcc


@<TRIPOS>ATOM
      1 C1          1.7110    0.1600    0.2580 cc        1 RB9     -0.240600
      2 N1          3.6510   -1.2490    0.7550 n         1 RB9     -0.551900
      3 O1          1.5460   -2.0830    1.0630 o         1 RB9     -0.658100
      4 S1          0.1220    1.8410   -0.8390 ss        1 RB9      0.148200
      5 C2          2.2780   -1.1240    0.7150 c         1 RB9      0.706700
      6 N2         -0.4210   -0.8140   -0.5320 n         1 RB9     -0.435100
      7 O2         -2.0250    0.3460   -1.6950 o         1 RB9     -0.605100
      8 C3          4.3040   -2.4970    1.0410 c3        1 RB9      0.131300
      9 N3         -3.7970   -1.8850   -1.7860 n3        1 RB9     -0.804200
     10 C4          5.1020   -3.0460   -0.1090 ca        1 RB9     -0.114300
     11 N4         -8.7290   -0.2110    1.0640 na        1 RB9     -0.194400
     12 C5          2.3430    1.4460    0.3260 cc        1 RB9     -0.014000
     13 C6          3.6210    1.7450    0.9520 ca        1 RB9     -0.037000
     14 C7          1.5580    2.4220   -0.2610 cd        1 RB9     -0.233100
     15 C8          0.4440    0.2490   -0.3520 cd        1 RB9      0.086500
     16 C9         -1.6370   -0.7300   -1.1960 c         1 RB9      0.609100
     17 C10        -2.4510   -2.0300   -1.3040 c3        1 RB9      0.108800
     18 C11        -4.7170   -1.3070   -0.8200 c3        1 RB9      0.153800
     19 C12        -6.0880   -0.9870   -1.4260 c3        1 RB9     -0.007200
     20 C13        -6.9880   -0.4300   -0.4090 cc        1 RB9     -0.141400
     21 C14         4.6070    2.4350    0.2310 ca        1 RB9     -0.113000
     22 C15         5.8180    2.7640    0.8370 ca        1 RB9     -0.135000
     23 C16         6.0540    2.4160    2.1670 ca        1 RB9     -0.126000
     24 C17         5.0760    1.7340    2.8900 ca        1 RB9     -0.135000
     25 C18         3.8650    1.3980    2.2890 ca        1 RB9     -0.113000
     26 C19         6.2510   -2.3780   -0.5460 ca        1 RB9     -0.117500
     27 C20         7.0060   -2.8970   -1.5970 ca        1 RB9     -0.131500
     28 C21         6.6180   -4.0860   -2.2150 ca        1 RB9     -0.125000
     29 C22         5.4730   -4.7540   -1.7820 ca        1 RB9     -0.131500
     30 C23         4.7130   -4.2340   -0.7330 ca        1 RB9     -0.117500
     31 C24        -8.1060   -1.0570    0.1440 cd        1 RB9     -0.101100
     32 C25        -8.0140    0.9880    1.1140 ca        1 RB9     -0.046200
     33 C26        -6.9020    0.8860    0.1940 ca        1 RB9     -0.089800
     34 C27        -6.0250    1.9640    0.0570 ca        1 RB9     -0.082000
     35 C28        -6.2460    3.1070    0.8090 ca        1 RB9     -0.158000
     36 C29        -7.3290    3.1980    1.7020 ca        1 RB9     -0.112000
     37 C30        -8.2230    2.1520    1.8690 ca        1 RB9     -0.147000
     38 HN1         4.2120   -0.5200    0.3790 hn        1 RB9      0.321500
     39 HN2        -0.1530   -1.6820   -0.1070 hn        1 RB9      0.362500
     40 H3          5.0090   -2.3280    1.9090 h1        1 RB9      0.069200
     41 H3A         3.5290   -3.2520    1.3650 h1        1 RB9      0.069200
     42 HN3        -3.8100   -1.3560   -2.6410 hn        1 RB9      0.375800
     43 H7          1.8380    3.4740   -0.3280 h4        1 RB9      0.179000
     44 H10        -2.4760   -2.5320   -0.2950 h1        1 RB9      0.081200
     45 H10A       -1.9010   -2.7000   -2.0260 h1        1 RB9      0.081200
     46 H11        -4.8490   -2.0560    0.0110 h1        1 RB9      0.043200
     47 H11A       -4.3040   -0.3590   -0.3640 h1        1 RB9      0.043200
     48 H12        -5.9660   -0.2430   -2.2600 hc        1 RB9      0.052700
     49 H12A       -6.5350   -1.9190   -1.8660 hc        1 RB9      0.052700
     50 H14         4.4170    2.7180   -0.8150 ha        1 RB9      0.142000
     51 H15         6.5870    3.3040    0.2650 ha        1 RB9      0.134000
     52 H16         7.0090    2.6810    2.6450 ha        1 RB9      0.133000
     53 H17         5.2570    1.4620    3.9410 ha        1 RB9      0.134000
     54 H18         3.0930    0.8590    2.8600 ha        1 RB9      0.142000
     55 H19         6.5610   -1.4430   -0.0560 ha        1 RB9      0.134500
     56 H20         7.9080   -2.3690   -1.9370 ha        1 RB9      0.132500
     57 H21         7.2140   -4.4960   -3.0430 ha        1 RB9      0.132000
     58 H22         5.1650   -5.6910   -2.2680 ha        1 RB9      0.132500
     59 H23         3.8070   -4.7600   -0.3970 ha        1 RB9      0.134500
     60 H24        -8.5060   -2.0540   -0.0560 h4        1 RB9      0.165000
     61 H27        -5.1760    1.8970   -0.6390 ha        1 RB9      0.141000
     62 H28        -5.5630    3.9640    0.7120 ha        1 RB9      0.130000
     63 H29        -7.4670    4.1240    2.2800 ha        1 RB9      0.128000
     64 H30        -9.0660    2.2310    2.5680 ha        1 RB9      0.131000
     65 HN4        -9.5410   -0.4150    1.5800 hn        1 RB9      0.298700
@<TRIPOS>BOND
     1    1    5 1   
     2    1   12 1   
     3    1   15 2   
     4    2    5 1   
     5    2    8 1   
     6    2   38 1   
     7    3    5 2   
     8    4   14 1   
     9    4   15 1   
    10    6   15 1   
    11    6   16 1   
    12    6   39 1   
    13    7   16 2   
    14    8   10 1   
    15    8   40 1   
    16    8   41 1   
    17    9   17 1   
    18    9   18 1   
    19    9   42 1   
    20   10   26 ar  
    21   10   30 ar  
    22   11   31 1   
    23   11   32 1   
    24   11   65 1   
    25   12   13 1   
    26   12   14 2   
    27   13   21 ar  
    28   13   25 ar  
    29   14   43 1   
    30   16   17 1   
    31   17   44 1   
    32   17   45 1   
    33   18   19 1   
    34   18   46 1   
    35   18   47 1   
    36   19   20 1   
    37   19   48 1   
    38   19   49 1   
    39   20   31 2   
    40   20   33 1   
    41   21   22 ar  
    42   21   50 1   
    43   22   23 ar  
    44   22   51 1   
    45   23   24 ar  
    46   23   52 1   
    47   24   25 ar  
    48   24   53 1   
    49   25   54 1   
    50   26   27 ar  
    51   26   55 1   
    52   27   28 ar  
    53   27   56 1   
    54   28   29 ar  
    55   28   57 1   
    56   29   30 ar  
    57   29   58 1   
    58   30   59 1   
    59   31   60 1   
    60   32   33 ar  
    61   32   37 ar  
    62   33   34 ar  
    63   34   35 ar  
    64   34   61 1   
    65   35   36 ar  
    66   35   62 1   
    67   36   37 ar  
    68   36   63 1   
    69   37   64 1   
@<TRIPOS>SUBSTRUCTURE
     1 RB9         1 TEMP              0 ****  ****    0 ROOT
