@<TRIPOS>MOLECULE
RB9
   67    71     1     0     0
SMALL
bcc


@<TRIPOS>ATOM
      1 C1         -0.2450    0.3710    0.1260 cc        1 RB9     -0.284600
      2 N1         -0.6710    0.6210   -2.3320 ny        1 RB9     -0.665800
      3 O1         -2.4410    0.5870   -0.8080 o         1 RB9     -0.510100
      4 S1          0.7560    0.0970    2.4620 ss        1 RB9      0.321200
      5 C2         -1.2150    0.5280   -0.9310 c         1 RB9      0.603700
      6 N2         -1.9150    0.2890    1.9710 ns        1 RB9     -0.410100
      7 O2         -1.3710    0.0130    4.1950 o         1 RB9     -0.567100
      8 C3         -1.7000    0.7950   -3.4160 c3        1 RB9      0.178100
      9 N3         -3.9310   -0.0230    5.1290 ny        1 RB9     -0.754000
     10 C4         -1.8800    2.2270   -3.7840 ca        1 RB9     -0.191300
     11 N4         -9.1020    0.3500    8.0620 na        1 RB9     -0.161400
     12 C5          1.1840    0.3020   -0.0270 cc        1 RB9      0.011000
     13 C6          1.9180    0.3680   -1.2840 ca        1 RB9     -0.123000
     14 C7          1.8060    0.1540    1.1960 cd        1 RB9     -0.209100
     15 C8         -0.6080    0.2630    1.5000 cd        1 RB9      0.045500
     16 C9         -2.2330    0.1560    3.3080 c         1 RB9      0.636100
     17 C10        -3.7250    0.1970    3.6720 c3        1 RB9      0.028800
     18 C11        -5.3770    0.0800    5.5130 c3        1 RB9      0.097800
     19 C12        -5.6030   -0.2150    7.0020 c3        1 RB9      0.002800
     20 C13        -7.0440   -0.2220    7.2530 cc        1 RB9     -0.234400
     21 C14         2.3970    1.6000   -1.7560 ca        1 RB9     -0.136000
     22 C15         3.1690    1.6490   -2.9160 ca        1 RB9     -0.118000
     23 C16         3.4700    0.4760   -3.6100 ca        1 RB9     -0.095000
     24 C17         2.9930   -0.7510   -3.1440 ca        1 RB9     -0.118000
     25 C18         2.2210   -0.8090   -1.9850 ca        1 RB9     -0.136000
     26 C19        -1.0870    2.7950   -4.7890 ca        1 RB9     -0.098000
     27 C20        -1.2990    4.1170   -5.1750 ca        1 RB9     -0.121000
     28 C21        -2.2990    4.8740   -4.5610 ca        1 RB9     -0.073000
     29 C22        -3.0900    4.3080   -3.5580 ca        1 RB9     -0.121000
     30 C23        -2.8820    2.9870   -3.1680 ca        1 RB9     -0.098000
     31 C24        -7.7630    0.7040    8.0230 cd        1 RB9     -0.043100
     32 C25        -9.2740   -0.8330    7.3300 ca        1 RB9     -0.048200
     33 C26        -7.9870   -1.2230    6.8010 ca        1 RB9     -0.086800
     34 C27        -7.8890   -2.3890    6.0360 ca        1 RB9     -0.123000
     35 C28        -9.0330   -3.1340    5.7990 ca        1 RB9     -0.122000
     36 C29       -10.2840   -2.7400    6.3120 ca        1 RB9     -0.104000
     37 C30       -10.4260   -1.5960    7.0790 ca        1 RB9     -0.113000
     38 HN1        -0.0120    1.4170   -2.3580 hn        1 RB9      0.472300
     39 HN2        -2.6470    0.4040    1.2960 hn        1 RB9      0.365500
     40 H3         -1.3330    0.2050   -4.3060 hx        1 RB9      0.114700
     41 H3A        -2.6730    0.3470   -3.0610 hx        1 RB9      0.114700
     42 HN3        -3.5710   -0.9530    5.3870 hn        1 RB9      0.465800
     43 H7          2.8930    0.0790    1.3220 h4        1 RB9      0.222000
     44 H10        -4.2850   -0.6050    3.1060 hx        1 RB9      0.135200
     45 H10A       -4.1540    1.2050    3.3970 hx        1 RB9      0.135200
     46 H11        -5.7290    1.1210    5.2660 hx        1 RB9      0.112200
     47 H11A       -5.9600   -0.6640    4.8940 hx        1 RB9      0.112200
     48 H12        -5.1690   -1.2190    7.2660 hc        1 RB9      0.068200
     49 H12A       -5.0950    0.5640    7.6320 hc        1 RB9      0.068200
     50 H14         2.1960    2.5240   -1.1910 ha        1 RB9      0.150500
     51 H15         3.5610    2.6160   -3.2720 ha        1 RB9      0.165000
     52 H16         4.0980    0.5150   -4.5160 ha        1 RB9      0.168000
     53 H17         3.2470   -1.6810   -3.6810 ha        1 RB9      0.165000
     54 H18         1.8850   -1.7840   -1.5970 ha        1 RB9      0.150500
     55 H19        -0.3130    2.1970   -5.2930 ha        1 RB9      0.139500
     56 H20        -0.6830    4.5620   -5.9730 ha        1 RB9      0.160000
     57 H21        -2.4710    5.9170   -4.8740 ha        1 RB9      0.164000
     58 H22        -3.8850    4.9030   -3.0830 ha        1 RB9      0.160000
     59 H23        -3.5130    2.5330   -2.3870 ha        1 RB9      0.139500
     60 H24        -7.4010    1.5900    8.5530 h4        1 RB9      0.177000
     61 H27        -6.9150   -2.7180    5.6500 ha        1 RB9      0.108000
     62 H28        -8.9700   -4.0600    5.2060 ha        1 RB9      0.143000
     63 H29       -11.1670   -3.3650    6.1010 ha        1 RB9      0.154000
     64 H30       -11.4040   -1.2980    7.4840 ha        1 RB9      0.155000
     65 H121       -0.1240   -0.2360   -2.5060 hn        1 RB9      0.472300
     66 H32        -3.3790    0.6670    5.6580 hn        1 RB9      0.465800
     67 HN4        -9.8090    0.8060    8.5820 hn        1 RB9      0.321700
@<TRIPOS>BOND
     1    1    5 1   
     2    1   12 1   
     3    1   15 2   
     4    2    5 1   
     5    2    8 1   
     6    2   38 1   
     7    2   65 1   
     8    3    5 2   
     9    4   14 1   
    10    4   15 1   
    11    6   15 1   
    12    6   16 1   
    13    6   39 1   
    14    7   16 2   
    15    8   10 1   
    16    8   40 1   
    17    8   41 1   
    18    9   17 1   
    19    9   18 1   
    20    9   42 1   
    21    9   66 1   
    22   10   26 ar  
    23   10   30 ar  
    24   11   31 1   
    25   11   32 1   
    26   11   67 1   
    27   12   13 1   
    28   12   14 2   
    29   13   21 ar  
    30   13   25 ar  
    31   14   43 1   
    32   16   17 1   
    33   17   44 1   
    34   17   45 1   
    35   18   19 1   
    36   18   46 1   
    37   18   47 1   
    38   19   20 1   
    39   19   48 1   
    40   19   49 1   
    41   20   31 2   
    42   20   33 1   
    43   21   22 ar  
    44   21   50 1   
    45   22   23 ar  
    46   22   51 1   
    47   23   24 ar  
    48   23   52 1   
    49   24   25 ar  
    50   24   53 1   
    51   25   54 1   
    52   26   27 ar  
    53   26   55 1   
    54   27   28 ar  
    55   27   56 1   
    56   28   29 ar  
    57   28   57 1   
    58   29   30 ar  
    59   29   58 1   
    60   30   59 1   
    61   31   60 1   
    62   32   33 ar  
    63   32   37 ar  
    64   33   34 ar  
    65   34   35 ar  
    66   34   61 1   
    67   35   36 ar  
    68   35   62 1   
    69   36   37 ar  
    70   36   63 1   
    71   37   64 1   
@<TRIPOS>SUBSTRUCTURE
     1 RB9         1 TEMP              0 ****  ****    0 ROOT
