@<TRIPOS>MOLECULE
RBC
   70    74     1     0     0
SMALL
bcc


@<TRIPOS>ATOM
      1 N0         -0.1070   -0.1360   -0.0620 n3        1 RBC     -0.817200
      2 C11         1.3040    0.1720    0.0080 c3        1 RBC      0.129800
      3 C1          1.8410    0.1730    1.4530 c3        1 RBC      0.150100
      4 O0          3.2690    0.2420    1.4110 os        1 RBC     -0.417600
      5 C12         3.7560    1.5360    1.0530 c3        1 RBC      0.176700
      6 C13         5.2070    1.6150    1.3970 ca        1 RBC     -0.090300
      7 C14         6.0240    2.4970    0.6390 ca        1 RBC     -0.121000
      8 C15         7.3560    2.6360    0.9330 ca        1 RBC     -0.120000
      9 C16         7.9440    1.8990    1.9980 ca        1 RBC     -0.035000
     10 C17         9.3220    2.0240    2.3240 ca        1 RBC     -0.117000
     11 C23         9.8610    1.3020    3.3590 ca        1 RBC     -0.129000
     12 C25         9.0500    0.4230    4.1170 ca        1 RBC     -0.139000
     13 C24         7.7160    0.2820    3.8220 ca        1 RBC     -0.113000
     14 C18         7.1310    1.0170    2.7540 ca        1 RBC     -0.038000
     15 C19         5.7530    0.8890    2.4310 ca        1 RBC     -0.087000
     16 C2          1.4970   -1.1360    2.1830 c3        1 RBC     -0.017400
     17 C3          1.9240   -1.0740    3.6170 ca        1 RBC     -0.058300
     18 C1B         2.8960   -1.9640    4.0920 ca        1 RBC     -0.129500
     19 C1A         3.3080   -1.9150    5.4220 ca        1 RBC     -0.106000
     20 C6          2.7560   -0.9750    6.2970 ca        1 RBC     -0.098300
     21 C5          1.7900   -0.0820    5.8260 ca        1 RBC     -0.106000
     22 C4          1.3750   -0.1330    4.4970 ca        1 RBC     -0.129500
     23 C7          3.1880   -0.9350    7.7240 c3        1 RBC      0.184700
     24 O8          4.3740   -0.1170    7.7760 os        1 RBC     -0.434900
     25 C9          5.0780   -0.1340    8.9520 c         1 RBC      0.646700
     26 OI          4.6580   -0.8470    9.8650 o         1 RBC     -0.523000
     27 CA          6.2860    0.7100    8.8950 ca        1 RBC     -0.119600
     28 CB          7.0220    0.7350    7.7020 ca        1 RBC     -0.070000
     29 CC          8.1910    1.4840    7.6060 ca        1 RBC     -0.143000
     30 CH          8.6320    2.2270    8.7020 ca        1 RBC     -0.094000
     31 CE          7.9010    2.2250    9.8880 ca        1 RBC     -0.141000
     32 CD          6.7240    1.4710    9.9890 ca        1 RBC      0.063400
     33 CL          5.8560    1.5310   11.4450 cl        1 RBC     -0.061400
     34 C1C        -0.0030   -1.4170    2.0620 c3        1 RBC     -0.059700
     35 C21        -0.3280   -2.7870    2.6510 c3        1 RBC      0.127400
     36 O31        -1.7510   -2.8910    2.6990 os        1 RBC     -0.423600
     37 C41        -2.1840   -4.0870    3.3250 c3        1 RBC      0.116700
     38 C1D        -0.4540   -1.3790    0.5960 c3        1 RBC      0.161800
     39 HN0        -0.4060   -0.1590   -1.0190 hn        1 RBC      0.367800
     40 H111        1.4480    1.2020   -0.4270 h1        1 RBC      0.037200
     41 H112        1.9410   -0.5440   -0.5910 h1        1 RBC      0.037200
     42 H1          1.4260    1.0510    2.0220 h1        1 RBC      0.055700
     43 H121        3.1910    2.3330    1.6110 h1        1 RBC      0.039200
     44 H122        3.6020    1.6840   -0.0510 h1        1 RBC      0.039200
     45 H14         5.5710    3.0650   -0.1880 ha        1 RBC      0.131000
     46 H15         7.9940    3.3170    0.3490 ha        1 RBC      0.133000
     47 H17         9.9440    2.7090    1.7290 ha        1 RBC      0.132000
     48 H23        10.9280    1.3940    3.6120 ha        1 RBC      0.131000
     49 H25         9.5050   -0.1470    4.9410 ha        1 RBC      0.130000
     50 H24         7.0760   -0.3980    4.4050 ha        1 RBC      0.134000
     51 H19         5.1250    0.1970    3.0150 ha        1 RBC      0.155000
     52 H2          2.0600   -1.9670    1.6670 hc        1 RBC      0.068700
     53 H1B         3.3450   -2.7010    3.4090 ha        1 RBC      0.136500
     54 H1A         4.0740   -2.6170    5.7850 ha        1 RBC      0.135500
     55 H5          1.3580    0.6680    6.5070 ha        1 RBC      0.135500
     56 H4          0.6120    0.5740    4.1380 ha        1 RBC      0.136500
     57 H71         3.4310   -1.9610    8.1110 h1        1 RBC      0.060700
     58 H72         2.4140   -0.4630    8.3850 h1        1 RBC      0.060700
     59 HB          6.6590    0.1600    6.8330 ha        1 RBC      0.156000
     60 HC          8.7590    1.4920    6.6620 ha        1 RBC      0.148000
     61 HH          9.5560    2.8200    8.6320 ha        1 RBC      0.141000
     62 HE          8.2460    2.8190   10.7490 ha        1 RBC      0.152000
     63 H1C        -0.5740   -0.6370    2.6370 hc        1 RBC      0.079700
     64 H211        0.0950   -2.8760    3.6870 h1        1 RBC      0.034200
     65 H212        0.0840   -3.6120    2.0110 h1        1 RBC      0.034200
     66 H411       -1.8270   -4.1310    4.3830 h1        1 RBC      0.033367
     67 H412       -3.3000   -4.0320    3.2880 h1        1 RBC      0.033367
     68 H413       -1.8170   -4.9810    2.7630 h1        1 RBC      0.033367
     69 H1D1       -0.0140   -2.2760    0.0670 h1        1 RBC      0.040700
     70 H1D2       -1.5760   -1.4820    0.5720 h1        1 RBC      0.040700
@<TRIPOS>BOND
     1    1    2 1   
     2    1   38 1   
     3    1   39 1   
     4    2    3 1   
     5    2   40 1   
     6    2   41 1   
     7    3    4 1   
     8    3   16 1   
     9    3   42 1   
    10    4    5 1   
    11    5    6 1   
    12    5   43 1   
    13    5   44 1   
    14    6    7 ar  
    15    6   15 ar  
    16    7    8 ar  
    17    7   45 1   
    18    8    9 ar  
    19    8   46 1   
    20    9   10 ar  
    21    9   14 ar  
    22   10   11 ar  
    23   10   47 1   
    24   11   12 ar  
    25   11   48 1   
    26   12   13 ar  
    27   12   49 1   
    28   13   14 ar  
    29   13   50 1   
    30   14   15 ar  
    31   15   51 1   
    32   16   17 1   
    33   16   34 1   
    34   16   52 1   
    35   17   18 ar  
    36   17   22 ar  
    37   18   19 ar  
    38   18   53 1   
    39   19   20 ar  
    40   19   54 1   
    41   20   21 ar  
    42   20   23 1   
    43   21   22 ar  
    44   21   55 1   
    45   22   56 1   
    46   23   24 1   
    47   23   57 1   
    48   23   58 1   
    49   24   25 1   
    50   25   26 2   
    51   25   27 1   
    52   27   28 ar  
    53   27   32 ar  
    54   28   29 ar  
    55   28   59 1   
    56   29   30 ar  
    57   29   60 1   
    58   30   31 ar  
    59   30   61 1   
    60   31   32 ar  
    61   31   62 1   
    62   32   33 1   
    63   34   35 1   
    64   34   38 1   
    65   34   63 1   
    66   35   36 1   
    67   35   64 1   
    68   35   65 1   
    69   36   37 1   
    70   37   66 1   
    71   37   67 1   
    72   37   68 1   
    73   38   69 1   
    74   38   70 1   
@<TRIPOS>SUBSTRUCTURE
     1 RBC         1 TEMP              0 ****  ****    0 ROOT
