@<TRIPOS>MOLECULE
RBC
   70    74     1     0     0
SMALL
bcc


@<TRIPOS>ATOM
      1 N0         -0.1160   -0.1240   -0.0520 n3        1 RBC     -0.817200
      2 C11         1.2960    0.1790    0.0130 c3        1 RBC      0.129800
      3 C1          1.8390    0.1760    1.4560 c3        1 RBC      0.150100
      4 O0          3.2670    0.2400    1.4090 os        1 RBC     -0.417600
      5 C12         3.7570    1.5310    1.0440 c3        1 RBC      0.175700
      6 C13         5.2080    1.6080    1.3880 ca        1 RBC     -0.090300
      7 C14         6.0270    2.4840    0.6260 ca        1 RBC     -0.121000
      8 C15         7.3600    2.6210    0.9190 ca        1 RBC     -0.120000
      9 C16         7.9460    1.8890    1.9880 ca        1 RBC     -0.035000
     10 C17         9.3240    2.0120    2.3130 ca        1 RBC     -0.117000
     11 C23         9.8620    1.2940    3.3530 ca        1 RBC     -0.129000
     12 C25         9.0480    0.4220    4.1150 ca        1 RBC     -0.139000
     13 C24         7.7140    0.2810    3.8200 ca        1 RBC     -0.113000
     14 C18         7.1310    1.0120    2.7490 ca        1 RBC     -0.038000
     15 C19         5.7520    0.8870    2.4260 ca        1 RBC     -0.087000
     16 C2          1.4920   -1.1330    2.1860 c3        1 RBC     -0.017400
     17 C3          1.9250   -1.0740    3.6190 ca        1 RBC     -0.058300
     18 C1B         2.8940   -1.9690    4.0900 ca        1 RBC     -0.129500
     19 C1A         3.3100   -1.9240    5.4180 ca        1 RBC     -0.106000
     20 C6          2.7650   -0.9820    6.2960 ca        1 RBC     -0.098300
     21 C5          1.8010   -0.0830    5.8290 ca        1 RBC     -0.106000
     22 C4          1.3830   -0.1310    4.5010 ca        1 RBC     -0.129500
     23 C7          3.2000   -0.9460    7.7230 c3        1 RBC      0.184700
     24 O8          4.3830   -0.1230    7.7740 os        1 RBC     -0.434900
     25 C9          5.0890   -0.1410    8.9500 c         1 RBC      0.646700
     26 OI          4.6720   -0.8580    9.8610 o         1 RBC     -0.523000
     27 CA          6.2940    0.7070    8.8930 ca        1 RBC     -0.119600
     28 CB          7.0300    0.7370    7.7000 ca        1 RBC     -0.070000
     29 CC          8.1960    1.4900    7.6060 ca        1 RBC     -0.143000
     30 CH          8.6340    2.2320    8.7030 ca        1 RBC     -0.094000
     31 CE          7.9030    2.2270    9.8890 ca        1 RBC     -0.141000
     32 CD          6.7290    1.4690    9.9890 ca        1 RBC      0.063400
     33 CL          5.8610    1.5240   11.4450 cl        1 RBC     -0.061400
     34 C1C        -0.0090   -1.4080    2.0690 c3        1 RBC     -0.059700
     35 C21        -0.3370   -2.7770    2.6580 c3        1 RBC      0.127400
     36 O31        -1.7600   -2.8770    2.7120 os        1 RBC     -0.423600
     37 C41        -2.1950   -4.0710    3.3370 c3        1 RBC      0.116700
     38 C1D        -0.4650   -1.3660    0.6060 c3        1 RBC      0.161800
     39 HN0        -0.4180   -0.1450   -1.0080 hn        1 RBC      0.367800
     40 H111        1.9280   -0.5380   -0.5890 h1        1 RBC      0.037200
     41 H112        1.4420    1.2080   -0.4220 h1        1 RBC      0.037200
     42 H1          1.4290    1.0550    2.0270 h1        1 RBC      0.055700
     43 H121        3.1950    2.3320    1.5980 h1        1 RBC      0.039200
     44 H122        3.6040    1.6730   -0.0600 h1        1 RBC      0.039200
     45 H14         5.5760    3.0490   -0.2040 ha        1 RBC      0.131000
     46 H15         7.9990    3.2980    0.3320 ha        1 RBC      0.133000
     47 H17         9.9480    2.6930    1.7150 ha        1 RBC      0.132000
     48 H23        10.9280    1.3850    3.6050 ha        1 RBC      0.131000
     49 H25         9.5020   -0.1450    4.9420 ha        1 RBC      0.130000
     50 H24         7.0720   -0.3940    4.4070 ha        1 RBC      0.134000
     51 H19         5.1230    0.1990    3.0140 ha        1 RBC      0.155000
     52 H2          2.0500   -1.9640    1.6670 hc        1 RBC      0.068700
     53 H1B         3.3370   -2.7070    3.4050 ha        1 RBC      0.136500
     54 H1A         4.0740   -2.6290    5.7790 ha        1 RBC      0.135500
     55 H5          1.3750    0.6670    6.5120 ha        1 RBC      0.135500
     56 H4          0.6220    0.5800    4.1450 ha        1 RBC      0.136500
     57 H71         2.4260   -0.4800    8.3870 h1        1 RBC      0.060700
     58 H72         3.4480   -1.9720    8.1050 h1        1 RBC      0.060700
     59 HB          6.6680    0.1620    6.8310 ha        1 RBC      0.156000
     60 HC          8.7630    1.5010    6.6620 ha        1 RBC      0.148000
     61 HH          9.5560    2.8290    8.6330 ha        1 RBC      0.141000
     62 HE          8.2460    2.8210   10.7500 ha        1 RBC      0.152000
     63 H1C        -0.5750   -0.6260    2.6480 hc        1 RBC      0.079700
     64 H211        0.0890   -2.8690    3.6930 h1        1 RBC      0.034200
     65 H212        0.0700   -3.6030    2.0170 h1        1 RBC      0.034200
     66 H411       -1.8350   -4.1170    4.3950 h1        1 RBC      0.033367
     67 H412       -1.8330   -4.9660    2.7740 h1        1 RBC      0.033367
     68 H413       -3.3120   -4.0120    3.3050 h1        1 RBC      0.033367
     69 H1D1       -1.5870   -1.4660    0.5860 h1        1 RBC      0.040700
     70 H1D2       -0.0300   -2.2650    0.0740 h1        1 RBC      0.040700
@<TRIPOS>BOND
     1    1    2 1   
     2    1   38 1   
     3    1   39 1   
     4    2    3 1   
     5    2   40 1   
     6    2   41 1   
     7    3    4 1   
     8    3   16 1   
     9    3   42 1   
    10    4    5 1   
    11    5    6 1   
    12    5   43 1   
    13    5   44 1   
    14    6    7 ar  
    15    6   15 ar  
    16    7    8 ar  
    17    7   45 1   
    18    8    9 ar  
    19    8   46 1   
    20    9   10 ar  
    21    9   14 ar  
    22   10   11 ar  
    23   10   47 1   
    24   11   12 ar  
    25   11   48 1   
    26   12   13 ar  
    27   12   49 1   
    28   13   14 ar  
    29   13   50 1   
    30   14   15 ar  
    31   15   51 1   
    32   16   17 1   
    33   16   34 1   
    34   16   52 1   
    35   17   18 ar  
    36   17   22 ar  
    37   18   19 ar  
    38   18   53 1   
    39   19   20 ar  
    40   19   54 1   
    41   20   21 ar  
    42   20   23 1   
    43   21   22 ar  
    44   21   55 1   
    45   22   56 1   
    46   23   24 1   
    47   23   57 1   
    48   23   58 1   
    49   24   25 1   
    50   25   26 2   
    51   25   27 1   
    52   27   28 ar  
    53   27   32 ar  
    54   28   29 ar  
    55   28   59 1   
    56   29   30 ar  
    57   29   60 1   
    58   30   31 ar  
    59   30   61 1   
    60   31   32 ar  
    61   31   62 1   
    62   32   33 1   
    63   34   35 1   
    64   34   38 1   
    65   34   63 1   
    66   35   36 1   
    67   35   64 1   
    68   35   65 1   
    69   36   37 1   
    70   37   66 1   
    71   37   67 1   
    72   37   68 1   
    73   38   69 1   
    74   38   70 1   
@<TRIPOS>SUBSTRUCTURE
     1 RBC         1 TEMP              0 ****  ****    0 ROOT
