@<TRIPOS>MOLECULE
RBC
   70    74     1     0     0
SMALL
bcc


@<TRIPOS>ATOM
      1 N0         -0.1070   -0.1310   -0.0610 n7        1 RBC     -0.817200
      2 C11         1.3050    0.1730    0.0070 c3        1 RBC      0.129800
      3 C1          1.8430    0.1730    1.4520 c3        1 RBC      0.150100
      4 O0          3.2710    0.2380    1.4090 os        1 RBC     -0.417600
      5 C12         3.7610    1.5300    1.0460 c3        1 RBC      0.176700
      6 C13         5.2120    1.6070    1.3920 ca        1 RBC     -0.090300
      7 C14         6.0320    2.4840    0.6310 ca        1 RBC     -0.121000
      8 C15         7.3640    2.6210    0.9260 ca        1 RBC     -0.120000
      9 C16         7.9490    1.8880    1.9950 ca        1 RBC     -0.035000
     10 C17         9.3270    2.0110    2.3210 ca        1 RBC     -0.117000
     11 C23         9.8630    1.2910    3.3610 ca        1 RBC     -0.129000
     12 C25         9.0490    0.4180    4.1220 ca        1 RBC     -0.139000
     13 C24         7.7150    0.2780    3.8250 ca        1 RBC     -0.113000
     14 C18         7.1330    1.0100    2.7540 ca        1 RBC     -0.038000
     15 C19         5.7550    0.8850    2.4290 ca        1 RBC     -0.087000
     16 C2          1.4960   -1.1350    2.1830 c3        1 RBC     -0.017400
     17 C3          1.9240   -1.0730    3.6170 ca        1 RBC     -0.058300
     18 C1B         2.8930   -1.9650    4.0920 ca        1 RBC     -0.129500
     19 C1A         3.3070   -1.9170    5.4210 ca        1 RBC     -0.106000
     20 C6          2.7570   -0.9750    6.2960 ca        1 RBC     -0.098300
     21 C5          1.7930   -0.0790    5.8250 ca        1 RBC     -0.106000
     22 C4          1.3780   -0.1300    4.4960 ca        1 RBC     -0.129500
     23 C7          3.1900   -0.9350    7.7240 c3        1 RBC      0.184700
     24 O8          4.3750   -0.1160    7.7750 os        1 RBC     -0.434900
     25 C9          5.0770   -0.1310    8.9530 c         1 RBC      0.646700
     26 OI          4.6570   -0.8450    9.8650 o         1 RBC     -0.523000
     27 CA          6.2840    0.7130    8.8960 ca        1 RBC     -0.119600
     28 CB          7.0230    0.7380    7.7040 ca        1 RBC     -0.070000
     29 CC          8.1910    1.4890    7.6100 ca        1 RBC     -0.143000
     30 CH          8.6280    2.2330    8.7060 ca        1 RBC     -0.094000
     31 CE          7.8960    2.2320    9.8900 ca        1 RBC     -0.141000
     32 CD          6.7200    1.4770    9.9910 ca        1 RBC      0.063400
     33 Cl          5.8500    1.5380   11.4450 cl        1 RBC     -0.061400
     34 C1C        -0.0040   -1.4120    2.0630 c3        1 RBC     -0.059700
     35 C21        -0.3330   -2.7800    2.6530 c3        1 RBC      0.127400
     36 O31        -1.7560   -2.8810    2.7030 os        1 RBC     -0.423600
     37 C41        -2.1920   -4.0750    3.3290 c3        1 RBC      0.116700
     38 C1D        -0.4570   -1.3730    0.5980 c3        1 RBC      0.161800
     39 HN0        -0.4060   -0.1540   -1.0180 hn        1 RBC      0.367800
     40 H111        1.4510    1.2010   -0.4290 h1        1 RBC      0.037200
     41 H112        1.9390   -0.5450   -0.5920 h1        1 RBC      0.037200
     42 H1          1.4310    1.0520    2.0200 h1        1 RBC      0.055700
     43 H121        3.6090    1.6740   -0.0590 h1        1 RBC      0.039200
     44 H122        3.1980    2.3300    1.6010 h1        1 RBC      0.039200
     45 H14         5.5810    3.0500   -0.1980 ha        1 RBC      0.131000
     46 H15         8.0040    3.2990    0.3400 ha        1 RBC      0.133000
     47 H17         9.9520    2.6920    1.7240 ha        1 RBC      0.132000
     48 H23        10.9300    1.3820    3.6140 ha        1 RBC      0.131000
     49 H25         9.5020   -0.1490    4.9480 ha        1 RBC      0.130000
     50 H24         7.0730   -0.3980    4.4100 ha        1 RBC      0.134000
     51 H19         5.1250    0.1960    3.0160 ha        1 RBC      0.155000
     52 H2          2.0560   -1.9670    1.6680 hc        1 RBC      0.068700
     53 H1B         3.3400   -2.7040    3.4090 ha        1 RBC      0.136500
     54 H1A         4.0710   -2.6210    5.7850 ha        1 RBC      0.135500
     55 H5          1.3640    0.6720    6.5050 ha        1 RBC      0.135500
     56 H4          0.6170    0.5800    4.1370 ha        1 RBC      0.136500
     57 H71         2.4150   -0.4650    8.3850 h1        1 RBC      0.060700
     58 H72         3.4340   -1.9610    8.1100 h1        1 RBC      0.060700
     59 HB          6.6610    0.1620    6.8360 ha        1 RBC      0.156000
     60 HC          8.7600    1.4960    6.6670 ha        1 RBC      0.148000
     61 HH          9.5520    2.8280    8.6360 ha        1 RBC      0.141000
     62 HE          8.2390    2.8280   10.7510 ha        1 RBC      0.152000
     63 H1C        -0.5740   -0.6300    2.6380 hc        1 RBC      0.079700
     64 H211        0.0910   -2.8700    3.6890 h1        1 RBC      0.034200
     65 H212        0.0770   -3.6070    2.0140 h1        1 RBC      0.034200
     66 H411       -1.8340   -4.1190    4.3880 h1        1 RBC      0.033367
     67 H412       -3.3080   -4.0180    3.2940 h1        1 RBC      0.033367
     68 H413       -1.8270   -4.9710    2.7680 h1        1 RBC      0.033367
     69 H1D1       -0.0200   -2.2720    0.0690 h1        1 RBC      0.040700
     70 H1D2       -1.5790   -1.4730    0.5750 h1        1 RBC      0.040700
@<TRIPOS>BOND
     1    1    2 1   
     2    1   38 1   
     3    1   39 1   
     4    2    3 1   
     5    2   40 1   
     6    2   41 1   
     7    3    4 1   
     8    3   16 1   
     9    3   42 1   
    10    4    5 1   
    11    5    6 1   
    12    5   43 1   
    13    5   44 1   
    14    6    7 ar  
    15    6   15 ar  
    16    7    8 ar  
    17    7   45 1   
    18    8    9 ar  
    19    8   46 1   
    20    9   10 ar  
    21    9   14 ar  
    22   10   11 ar  
    23   10   47 1   
    24   11   12 ar  
    25   11   48 1   
    26   12   13 ar  
    27   12   49 1   
    28   13   14 ar  
    29   13   50 1   
    30   14   15 ar  
    31   15   51 1   
    32   16   17 1   
    33   16   34 1   
    34   16   52 1   
    35   17   18 ar  
    36   17   22 ar  
    37   18   19 ar  
    38   18   53 1   
    39   19   20 ar  
    40   19   54 1   
    41   20   21 ar  
    42   20   23 1   
    43   21   22 ar  
    44   21   55 1   
    45   22   56 1   
    46   23   24 1   
    47   23   57 1   
    48   23   58 1   
    49   24   25 1   
    50   25   26 2   
    51   25   27 1   
    52   27   28 ar  
    53   27   32 ar  
    54   28   29 ar  
    55   28   59 1   
    56   29   30 ar  
    57   29   60 1   
    58   30   31 ar  
    59   30   61 1   
    60   31   32 ar  
    61   31   62 1   
    62   32   33 1   
    63   34   35 1   
    64   34   38 1   
    65   34   63 1   
    66   35   36 1   
    67   35   64 1   
    68   35   65 1   
    69   36   37 1   
    70   37   66 1   
    71   37   67 1   
    72   37   68 1   
    73   38   69 1   
    74   38   70 1   
@<TRIPOS>SUBSTRUCTURE
     1 RBC         1 TEMP              0 ****  ****    0 ROOT
