@<TRIPOS>MOLECULE
RBC
   70    74     1     0     0
SMALL
bcc


@<TRIPOS>ATOM
      1 N0         -6.3960   -0.0820   -1.1510 n3        1 RBC     -0.817200
      2 C11        -5.4100   -1.0970   -0.8530 c3        1 RBC      0.129800
      3 C1         -3.9780   -0.5300   -0.7810 c3        1 RBC      0.150100
      4 O0         -3.1130   -1.5370   -0.2480 os        1 RBC     -0.417600
      5 C12        -2.8300   -2.5810   -1.1810 c3        1 RBC      0.176700
      6 C13        -1.6560   -3.3600   -0.6880 ca        1 RBC     -0.090300
      7 C14        -1.5540   -4.7250   -1.0700 ca        1 RBC     -0.121000
      8 C15        -0.4790   -5.4800   -0.6750 ca        1 RBC     -0.120000
      9 C16         0.5500   -4.9120    0.1260 ca        1 RBC     -0.035000
     10 C17         1.6740   -5.6710    0.5500 ca        1 RBC     -0.117000
     11 C23         2.6530   -5.0950    1.3210 ca        1 RBC     -0.129000
     12 C25         2.5560   -3.7360    1.7030 ca        1 RBC     -0.139000
     13 C24         1.4780   -2.9800    1.3090 ca        1 RBC     -0.113000
     14 C18         0.4490   -3.5510    0.5110 ca        1 RBC     -0.038000
     15 C19        -0.6740   -2.7880    0.0890 ca        1 RBC     -0.087000
     16 C2         -3.8920    0.6630    0.1870 c3        1 RBC     -0.017400
     17 C3         -2.5250    1.2730    0.1600 ca        1 RBC     -0.058300
     18 C1B        -1.7370    1.2650    1.3180 ca        1 RBC     -0.129500
     19 C1A        -0.4610    1.8230    1.3080 ca        1 RBC     -0.106500
     20 C6          0.0480    2.3970    0.1390 ca        1 RBC     -0.098300
     21 C5         -0.7330    2.4030   -1.0210 ca        1 RBC     -0.106500
     22 C4         -2.0100    1.8480   -1.0090 ca        1 RBC     -0.129500
     23 C7          1.4090    3.0070    0.1350 c3        1 RBC      0.184700
     24 O8          2.3420    1.9380   -0.1190 os        1 RBC     -0.434900
     25 C9          3.6700    2.2280    0.0680 c         1 RBC      0.646700
     26 OI          3.9640    3.3630    0.4460 o         1 RBC     -0.523000
     27 CA          4.5390    1.0650   -0.1880 ca        1 RBC     -0.119600
     28 CB          4.0910   -0.2010    0.2160 ca        1 RBC     -0.070000
     29 CC          4.8880   -1.3270    0.0320 ca        1 RBC     -0.143000
     30 CH          6.1410   -1.2000   -0.5690 ca        1 RBC     -0.094000
     31 CE          6.5920    0.0490   -0.9910 ca        1 RBC     -0.141000
     32 CD          5.7930    1.1850   -0.8070 ca        1 RBC      0.063400
     33 CL          6.3770    2.6750   -1.3700 cl        1 RBC     -0.061400
     34 C1C        -4.9680    1.6930   -0.1670 c3        1 RBC     -0.059700
     35 C21        -4.9890    2.8060    0.8770 c3        1 RBC      0.127400
     36 O31        -5.8530    3.8280    0.3790 os        1 RBC     -0.423600
     37 C41        -5.8790    4.9700    1.2170 c3        1 RBC      0.116700
     38 C1D        -6.3540    1.0410   -0.2370 c3        1 RBC      0.161800
     39 HN0        -7.3140   -0.4870   -1.1550 hn        1 RBC      0.367800
     40 H111       -5.6120   -1.6350    0.1190 h1        1 RBC      0.037200
     41 H112       -5.4500   -1.8610   -1.6800 h1        1 RBC      0.037200
     42 H1         -3.6300   -0.2200   -1.8040 h1        1 RBC      0.055700
     43 H121       -3.7360   -3.2420   -1.2660 h1        1 RBC      0.039200
     44 H122       -2.5980   -2.1470   -2.1920 h1        1 RBC      0.039200
     45 H14        -2.3510   -5.1670   -1.6870 ha        1 RBC      0.131000
     46 H15        -0.3950   -6.5370   -0.9690 ha        1 RBC      0.133000
     47 H17         1.7410   -6.7280    0.2480 ha        1 RBC      0.132000
     48 H23         3.5230   -5.6820    1.6530 ha        1 RBC      0.131000
     49 H25         3.3520   -3.2970    2.3230 ha        1 RBC      0.130000
     50 H24         1.3930   -1.9220    1.6010 ha        1 RBC      0.134000
     51 H19        -0.7540   -1.7330    0.3960 ha        1 RBC      0.155000
     52 H2         -4.0990    0.2710    1.2240 hc        1 RBC      0.068700
     53 H1B        -2.1240    0.8060    2.2410 ha        1 RBC      0.136500
     54 H1A         0.1520    1.8090    2.2220 ha        1 RBC      0.135500
     55 H5         -0.3350    2.8440   -1.9470 ha        1 RBC      0.135500
     56 H4         -2.6170    1.8600   -1.9270 ha        1 RBC      0.136500
     57 H71         1.5260    3.7690   -0.6810 h1        1 RBC      0.060700
     58 H72         1.6520    3.4820    1.1230 h1        1 RBC      0.060700
     59 HB          3.0920   -0.2960    0.6730 ha        1 RBC      0.156000
     60 HC          4.5220   -2.3140    0.3570 ha        1 RBC      0.148000
     61 HH          6.7760   -2.0870   -0.7150 ha        1 RBC      0.141000
     62 HE          7.5770    0.1450   -1.4730 ha        1 RBC      0.152000
     63 H1C        -4.7300    2.1490   -1.1680 hc        1 RBC      0.079700
     64 H211       -3.9570    3.2210    1.0260 h1        1 RBC      0.034200
     65 H212       -5.3830    2.4330    1.8610 h1        1 RBC      0.034200
     66 H411       -6.5870    5.6720    0.7090 h1        1 RBC      0.033367
     67 H412       -6.2550    4.7030    2.2360 h1        1 RBC      0.033367
     68 H413       -4.8620    5.4260    1.2950 h1        1 RBC      0.033367
     69 H1D1       -6.6610    0.7480    0.8110 h1        1 RBC      0.040700
     70 H1D2       -7.0860    1.8150   -0.6060 h1        1 RBC      0.040700
@<TRIPOS>BOND
     1    1    2 1   
     2    1   38 1   
     3    1   39 1   
     4    2    3 1   
     5    2   40 1   
     6    2   41 1   
     7    3    4 1   
     8    3   16 1   
     9    3   42 1   
    10    4    5 1   
    11    5    6 1   
    12    5   43 1   
    13    5   44 1   
    14    6    7 ar  
    15    6   15 ar  
    16    7    8 ar  
    17    7   45 1   
    18    8    9 ar  
    19    8   46 1   
    20    9   10 ar  
    21    9   14 ar  
    22   10   11 ar  
    23   10   47 1   
    24   11   12 ar  
    25   11   48 1   
    26   12   13 ar  
    27   12   49 1   
    28   13   14 ar  
    29   13   50 1   
    30   14   15 ar  
    31   15   51 1   
    32   16   17 1   
    33   16   34 1   
    34   16   52 1   
    35   17   18 ar  
    36   17   22 ar  
    37   18   19 ar  
    38   18   53 1   
    39   19   20 ar  
    40   19   54 1   
    41   20   21 ar  
    42   20   23 1   
    43   21   22 ar  
    44   21   55 1   
    45   22   56 1   
    46   23   24 1   
    47   23   57 1   
    48   23   58 1   
    49   24   25 1   
    50   25   26 2   
    51   25   27 1   
    52   27   28 ar  
    53   27   32 ar  
    54   28   29 ar  
    55   28   59 1   
    56   29   30 ar  
    57   29   60 1   
    58   30   31 ar  
    59   30   61 1   
    60   31   32 ar  
    61   31   62 1   
    62   32   33 1   
    63   34   35 1   
    64   34   38 1   
    65   34   63 1   
    66   35   36 1   
    67   35   64 1   
    68   35   65 1   
    69   36   37 1   
    70   37   66 1   
    71   37   67 1   
    72   37   68 1   
    73   38   69 1   
    74   38   70 1   
@<TRIPOS>SUBSTRUCTURE
     1 RBC         1 TEMP              0 ****  ****    0 ROOT
