@<TRIPOS>MOLECULE
RBE
   37    38     1     0     0
SMALL
bcc


@<TRIPOS>ATOM
      1 C1         -1.1800   -1.0370    0.6450 c2        1 RBE     -0.027000
      2 C2          2.2630    0.6190   -0.6410 c3        1 RBE     -0.171400
      3 C3          2.2850    0.3000    0.8510 c3        1 RBE      0.168100
      4 C4          1.3590    1.1450    1.7170 c3        1 RBE     -0.097400
      5 C5         -0.0410    0.5650    1.9040 c3        1 RBE      0.158500
      6 C6         -0.0160   -0.7990    2.6630 c3        1 RBE     -0.071200
      7 C7         -0.7630   -1.7160    1.7410 c2        1 RBE     -0.227200
      8 C9          5.5180    0.1010    2.6510 ce        1 RBE     -0.220500
      9 C10         6.0950   -0.4300    3.9440 c3        1 RBE     -0.008000
     10 C11         7.4800   -0.9700    3.6930 c2        1 RBE     -0.147200
     11 C12         8.2620   -0.5910    2.6560 ce        1 RBE     -0.146000
     12 C13         7.7960    0.5560    1.8550 ce        1 RBE     -0.160100
     13 C14         6.4710    0.6140    1.8810 c1        1 RBE      0.092200
     14 C15         2.2820    2.0820   -0.9660 c         1 RBE      0.632100
     15 N1         -0.7460    0.3220    0.6200 nu        1 RBE     -0.721000
     16 O1          3.6500    0.5370    1.2630 os        1 RBE     -0.421900
     17 O2          3.3690   -0.9760    2.8930 o         1 RBE     -0.569000
     18 O3          1.0950    2.7590   -1.0680 oh        1 RBE     -0.596100
     19 O4          3.2630    2.7840   -1.2050 o         1 RBE     -0.483000
     20 H1          1.3470    0.1470   -1.0860 hc        1 RBE      0.091200
     21 H2         -1.7480   -1.4090   -0.2140 h4        1 RBE      0.157000
     22 H3          3.1710    0.1530   -1.1150 hc        1 RBE      0.091200
     23 H41         2.0460   -0.7950    0.9840 h1        1 RBE      0.085700
     24 H42         1.2850    2.1830    1.2990 hc        1 RBE      0.065200
     25 H5          1.8190    1.2260    2.7400 hc        1 RBE      0.065200
     26 H61        -0.6190    1.3130    2.5220 h1        1 RBE      0.044700
     27 H62         1.0330   -1.1480    2.8400 hc        1 RBE      0.074200
     28 H71        -0.5270   -0.7130    3.6530 hc        1 RBE      0.074200
     29 H72        -0.9010   -2.7730    1.9610 ha        1 RBE      0.152000
     30 H10         5.4180   -1.2590    4.2900 hc        1 RBE      0.089200
     31 H11         6.1420    0.3410    4.7570 hc        1 RBE      0.089200
     32 H12         7.8320   -1.6970    4.4390 ha        1 RBE      0.141000
     33 H13         9.2520   -1.0140    2.4530 ha        1 RBE      0.148000
     34 H14         8.5000    1.2810    1.4390 ha        1 RBE      0.172000
     35 HN11        0.3590    2.1630   -0.8760 ho        1 RBE      0.432000
     36 HN12       -1.5070    0.9580    0.4850 hn        1 RBE      0.373800
     37 C8          4.1300   -0.1860    2.3200 c         1 RBE      0.670300
@<TRIPOS>BOND
     1    1    7 2   
     2    1   15 1   
     3    1   21 1   
     4    2    3 1   
     5    2   14 1   
     6    2   20 1   
     7    2   22 1   
     8    3    4 1   
     9    3   16 1   
    10    3   23 1   
    11    4    5 1   
    12    4   24 1   
    13    4   25 1   
    14    5    6 1   
    15    5   15 1   
    16    5   26 1   
    17    6    7 1   
    18    6   27 1   
    19    6   28 1   
    20    7   29 1   
    21    8    9 1   
    22    8   13 2   
    23    8   37 1   
    24    9   10 1   
    25    9   30 1   
    26    9   31 1   
    27   10   11 2   
    28   10   32 1   
    29   11   12 1   
    30   11   33 1   
    31   12   13 2   
    32   12   34 1   
    33   14   18 1   
    34   14   19 2   
    35   15   36 1   
    36   16   37 1   
    37   17   37 2   
    38   18   35 1   
@<TRIPOS>SUBSTRUCTURE
     1 RBE         1 TEMP              0 ****  ****    0 ROOT
