@<TRIPOS>MOLECULE
RBE
   37    38     1     0     0
SMALL
bcc


@<TRIPOS>ATOM
      1 C1         -1.3650    0.6520    0.2280 c2        1 RBE     -0.019000
      2 C2          2.2320   -0.3970    0.2650 c3        1 RBE     -0.210400
      3 C3          2.3060    0.7190    1.2980 c3        1 RBE      0.182100
      4 C4          1.3800    0.4950    2.4870 c3        1 RBE     -0.105400
      5 C5         -0.1190    0.5800    2.2000 c3        1 RBE      0.166500
      6 C6         -0.7580   -0.8230    1.9410 c3        1 RBE     -0.061200
      7 C7         -1.5210   -0.6220    0.6650 c2        1 RBE     -0.242200
      8 C9          5.7100    0.3620    2.7510 ce        1 RBE     -0.216500
      9 C10         6.5190   -0.5200    3.6730 c3        1 RBE     -0.009000
     10 C11         7.9200   -0.6600    3.1360 c2        1 RBE     -0.147200
     11 C12         8.4990    0.2280    2.2960 ce        1 RBE     -0.144000
     12 C13         7.7780    1.4940    2.0660 ce        1 RBE     -0.157100
     13 C14         6.4720    1.2990    2.1980 c1        1 RBE      0.081200
     14 C15         2.6210    0.0720   -1.1050 c         1 RBE      0.632100
     15 N1         -0.4710    1.4170    1.0280 nh        1 RBE     -0.726000
     16 O1          3.6540    0.9480    1.7430 os        1 RBE     -0.424900
     17 O2          3.7840   -1.0890    2.6920 o         1 RBE     -0.566000
     18 O3          1.8590    1.0240   -1.7230 oh        1 RBE     -0.590100
     19 O4          3.5620   -0.3290   -1.7880 o         1 RBE     -0.491000
     20 H1          1.1760   -0.7820    0.2140 hc        1 RBE      0.101700
     21 H2         -1.7900    1.1230   -0.6660 h4        1 RBE      0.161000
     22 H3          2.9000   -1.2490    0.5650 hc        1 RBE      0.101700
     23 H41         2.0840    1.7190    0.8130 h1        1 RBE      0.091700
     24 H42         1.5980   -0.5080    2.9420 hc        1 RBE      0.070200
     25 H5          1.6400    1.2730    3.2550 hc        1 RBE      0.070200
     26 H61        -0.5980    1.0110    3.1290 h1        1 RBE      0.042700
     27 H62         0.0220   -1.6160    1.8330 hc        1 RBE      0.062200
     28 H71        -1.4330   -1.1120    2.7820 hc        1 RBE      0.062200
     29 H72        -2.0850   -1.4230    0.1930 ha        1 RBE      0.155000
     30 H10         6.0140   -1.5260    3.6920 hc        1 RBE      0.088700
     31 H11         6.5640   -0.1370    4.7260 hc        1 RBE      0.088700
     32 H12         8.4640   -1.5460    3.4950 ha        1 RBE      0.142000
     33 H13         9.5010    0.1020    1.8710 ha        1 RBE      0.148000
     34 H14         8.3160    2.4360    1.9350 ha        1 RBE      0.170000
     35 HN11        1.1260    1.2860   -1.1460 ho        1 RBE      0.435000
     36 HN12       -0.8360    2.3110    1.2870 hn        1 RBE      0.385800
     37 C8          4.3460   -0.0230    2.4130 c         1 RBE      0.673300
@<TRIPOS>BOND
     1    1    7 2   
     2    1   15 1   
     3    1   21 1   
     4    2    3 1   
     5    2   14 1   
     6    2   20 1   
     7    2   22 1   
     8    3    4 1   
     9    3   16 1   
    10    3   23 1   
    11    4    5 1   
    12    4   24 1   
    13    4   25 1   
    14    5    6 1   
    15    5   15 1   
    16    5   26 1   
    17    6    7 1   
    18    6   27 1   
    19    6   28 1   
    20    7   29 1   
    21    8    9 1   
    22    8   13 2   
    23    8   37 1   
    24    9   10 1   
    25    9   30 1   
    26    9   31 1   
    27   10   11 2   
    28   10   32 1   
    29   11   12 1   
    30   11   33 1   
    31   12   13 2   
    32   12   34 1   
    33   14   18 1   
    34   14   19 2   
    35   15   36 1   
    36   16   37 1   
    37   17   37 2   
    38   18   35 1   
@<TRIPOS>SUBSTRUCTURE
     1 RBE         1 TEMP              0 ****  ****    0 ROOT
