@<TRIPOS>MOLECULE
RBE
   37    38     1     0     0
SMALL
bcc


@<TRIPOS>ATOM
      1 C1         -1.1650   -0.9130    0.5100 c2        1 RBE     -0.027000
      2 C2          2.3100    0.7760   -0.6410 c3        1 RBE     -0.171400
      3 C3          2.3070    0.3830    0.8330 c3        1 RBE      0.168100
      4 C4          1.3750    1.1910    1.7270 c3        1 RBE     -0.097400
      5 C5         -0.0320    0.6140    1.8640 c3        1 RBE      0.158500
      6 C6         -0.0290   -0.7860    2.5540 c3        1 RBE     -0.071200
      7 C7         -0.7700   -1.6500    1.5760 c2        1 RBE     -0.227200
      8 C9          5.5110    0.0660    2.6680 ce        1 RBE     -0.220500
      9 C10         6.0640   -0.5340    3.9400 c3        1 RBE     -0.008000
     10 C11         7.4490   -1.0720    3.6830 c2        1 RBE     -0.147200
     11 C12         8.2490   -0.6490    2.6780 ce        1 RBE     -0.146000
     12 C13         7.8050    0.5410    1.9290 ce        1 RBE     -0.160100
     13 C14         6.4800    0.6080    1.9380 c1        1 RBE      0.092200
     14 C15         2.3450    2.2530   -0.8920 c         1 RBE      0.632100
     15 N1         -0.7200    0.4420    0.5600 nh        1 RBE     -0.721000
     16 O1          3.6680    0.5870    1.2760 os        1 RBE     -0.421900
     17 O2          3.3500   -1.0030    2.8240 o         1 RBE     -0.569000
     18 O3          1.1660    2.9450   -0.9780 oh        1 RBE     -0.596100
     19 O4          3.3350    2.9580   -1.0810 o         1 RBE     -0.483000
     20 H1          1.3980    0.3350   -1.1230 hc        1 RBE      0.091200
     21 H2         -1.7230   -1.2360   -0.3750 h4        1 RBE      0.157000
     22 H3          3.2210    0.3270   -1.1250 hc        1 RBE      0.091200
     23 H41         2.0580   -0.7150    0.9070 h1        1 RBE      0.085700
     24 H42         1.3150    2.2490    1.3600 hc        1 RBE      0.065200
     25 H5          1.8210    1.2170    2.7590 hc        1 RBE      0.065200
     26 H61        -0.6130    1.3350    2.5100 h1        1 RBE      0.044700
     27 H62        -0.5540   -0.7450    3.5390 hc        1 RBE      0.074200
     28 H71         1.0140   -1.1530    2.7280 hc        1 RBE      0.074200
     29 H72        -0.9190   -2.7150    1.7410 ha        1 RBE      0.152000
     30 H10         5.3760   -1.3730    4.2350 hc        1 RBE      0.089200
     31 H11         6.1060    0.1960    4.7910 hc        1 RBE      0.089200
     32 H12         7.7850   -1.8390    4.3970 ha        1 RBE      0.141000
     33 H13         9.2390   -1.0700    2.4680 ha        1 RBE      0.148000
     34 H14         8.5200    1.2790    1.5600 ha        1 RBE      0.172000
     35 HN11        0.4210    2.3460   -0.8260 ho        1 RBE      0.432000
     36 HN12       -1.4740    1.0910    0.4460 hn        1 RBE      0.373800
     37 C8          4.1270   -0.1930    2.3020 c         1 RBE      0.670300
@<TRIPOS>BOND
     1    1    7 2   
     2    1   15 1   
     3    1   21 1   
     4    2    3 1   
     5    2   14 1   
     6    2   20 1   
     7    2   22 1   
     8    3    4 1   
     9    3   16 1   
    10    3   23 1   
    11    4    5 1   
    12    4   24 1   
    13    4   25 1   
    14    5    6 1   
    15    5   15 1   
    16    5   26 1   
    17    6    7 1   
    18    6   27 1   
    19    6   28 1   
    20    7   29 1   
    21    8    9 1   
    22    8   13 2   
    23    8   37 1   
    24    9   10 1   
    25    9   30 1   
    26    9   31 1   
    27   10   11 2   
    28   10   32 1   
    29   11   12 1   
    30   11   33 1   
    31   12   13 2   
    32   12   34 1   
    33   14   18 1   
    34   14   19 2   
    35   15   36 1   
    36   16   37 1   
    37   17   37 2   
    38   18   35 1   
@<TRIPOS>SUBSTRUCTURE
     1 RBE         1 TEMP              0 ****  ****    0 ROOT
