@<TRIPOS>MOLECULE
RBE
   37    39     1     0     0
SMALL
bcc


@<TRIPOS>ATOM
      1 C1          3.2280    0.1770    0.7370 c3        1 RBE      0.152500
      2 C2          1.7130    0.2580    1.0240 c3        1 RBE     -0.149700
      3 C3          0.9390   -0.8000    0.2120 c3        1 RBE      0.152100
      4 C4          1.5210   -1.1700   -1.1570 c3        1 RBE     -0.090400
      5 C5          3.0510   -1.0740   -1.1690 c3        1 RBE      0.145500
      6 C6          3.6340   -2.0640   -0.1210 c3        1 RBE     -0.117400
      7 C7          3.7440   -1.2290    1.1570 c3        1 RBE     -0.113400
      8 C9         -2.7390   -0.3400   -0.0550 ca        1 RBE     -0.143600
      9 C10        -3.9320   -1.0760   -0.0170 ca        1 RBE     -0.068500
     10 C11        -5.1500   -0.4230   -0.1920 ca        1 RBE     -0.147500
     11 C12        -5.1810    0.9570   -0.4020 ca        1 RBE     -0.093000
     12 C13        -3.9940    1.6880   -0.4380 ca        1 RBE     -0.147500
     13 C14        -2.7690    1.0440   -0.2660 ca        1 RBE     -0.068500
     14 C15         1.2430    1.6770    0.8130 c         1 RBE      0.655100
     15 N1          3.4270    0.2830   -0.7210 n3        1 RBE     -0.785200
     16 O1         -0.3690   -0.2420   -0.0080 os        1 RBE     -0.458900
     17 O2         -1.2830   -2.2440    0.3960 o         1 RBE     -0.543000
     18 O3          0.7840    2.1070   -0.3920 oh        1 RBE     -0.570100
     19 O4          1.2350    2.5470    1.6880 o         1 RBE     -0.515000
     20 H1          3.7580    1.0000    1.2840 h1        1 RBE      0.088700
     21 H2          1.5530    0.0350    2.1180 hc        1 RBE      0.093700
     22 H3          0.8630   -1.7330    0.8400 h1        1 RBE      0.086700
     23 H41         1.0940   -0.4960   -1.9460 hc        1 RBE      0.063200
     24 H42         1.2120   -2.2180   -1.4070 hc        1 RBE      0.063200
     25 H5          3.4400   -1.2810   -2.1990 h1        1 RBE      0.073700
     26 H61         4.6350   -2.4330   -0.4500 hc        1 RBE      0.056200
     27 H62         2.9650   -2.9450    0.0160 hc        1 RBE      0.056200
     28 H71         4.8020   -1.1600    1.5080 hc        1 RBE      0.056700
     29 H72         3.1310   -1.6560    1.9850 hc        1 RBE      0.056700
     30 H10        -3.8930   -2.1640    0.1530 ha        1 RBE      0.161000
     31 H11        -6.0870   -0.9980   -0.1620 ha        1 RBE      0.142000
     32 H12        -6.1460    1.4690   -0.5380 ha        1 RBE      0.137000
     33 H13        -4.0190    2.7760   -0.6010 ha        1 RBE      0.142000
     34 H14        -1.8250    1.6170   -0.2900 ha        1 RBE      0.161000
     35 HN11        0.8550    1.3960   -1.0460 ho        1 RBE      0.443000
     36 HN12        4.3910    0.4660   -0.9270 hn        1 RBE      0.363800
     37 C8         -1.4690   -1.0520    0.1370 c         1 RBE      0.661700
@<TRIPOS>BOND
     1    1    2 1   
     2    1    7 1   
     3    1   15 1   
     4    1   20 1   
     5    2    3 1   
     6    2   14 1   
     7    2   21 1   
     8    3    4 1   
     9    3   16 1   
    10    3   22 1   
    11    4    5 1   
    12    4   23 1   
    13    4   24 1   
    14    5    6 1   
    15    5   15 1   
    16    5   25 1   
    17    6    7 1   
    18    6   26 1   
    19    6   27 1   
    20    7   28 1   
    21    7   29 1   
    22    8    9 ar  
    23    8   13 ar  
    24    8   37 1   
    25    9   10 ar  
    26    9   30 1   
    27   10   11 ar  
    28   10   31 1   
    29   11   12 ar  
    30   11   32 1   
    31   12   13 ar  
    32   12   33 1   
    33   13   34 1   
    34   14   18 1   
    35   14   19 2   
    36   15   36 1   
    37   16   37 1   
    38   17   37 2   
    39   18   35 1   
@<TRIPOS>SUBSTRUCTURE
     1 RBE         1 TEMP              0 ****  ****    0 ROOT
