@<TRIPOS>MOLECULE
RBE
   37    36     1     0     0
SMALL
bcc


@<TRIPOS>ATOM
      1 C1         -2.5280   -0.8330   -1.4130 c3        1 RBE     -0.045000
      2 C2         -1.0080   -0.8080   -1.3850 c3        1 RBE     -0.139000
      3 C3         -0.3840   -0.8010    0.0380 c3        1 RBE      0.041000
      4 C4         -1.4110   -0.8220    1.2010 c3        1 RBE     -0.169000
      5 C5         -2.8530   -0.8470    0.7680 c3        1 RBE     -0.052000
      6 C6         -3.1710   -2.3000    0.4220 c3        1 RBE     -0.196000
      7 C7         -2.9380   -2.3050   -1.1620 c3        1 RBE     -0.192000
      8 C8          1.5860    0.1450    0.9010 c1        1 RBE      0.362000
      9 C9          2.7340    1.1220    0.7690 c1        1 RBE     -0.123000
     10 C10         3.9070    0.7310    0.1410 c2        1 RBE     -0.072000
     11 C11         4.9850    1.5990    0.0850 c1        1 RBE     -0.149000
     12 C12         4.8920    2.8580    0.6570 c1        1 RBE     -0.119500
     13 C13         3.7200    3.2490    1.2850 c1        1 RBE     -0.119500
     14 C14         2.6410    2.3810    1.3410 c1        1 RBE     -0.065000
     15 C15        -0.5360    0.4390   -2.1230 c2        1 RBE      0.326000
     16 N1         -3.1210   -0.2670   -0.4140 n4        1 RBE     -0.264000
     17 O1          0.4050    0.3470    0.1680 os        1 RBE     -0.297000
     18 O2          1.6980   -0.8300    1.6170 o         1 RBE     -0.354000
     19 O3         -1.0530    1.5570   -1.8640 o         1 RBE     -0.302500
     20 O4          0.3640    0.3490   -2.9990 o         1 RBE     -0.302500
     21 H1         -2.8780   -0.5100   -2.2670 hx        1 RBE      0.128000
     22 H2         -0.6790   -1.5930   -1.8620 hc        1 RBE      0.133000
     23 H3          0.1940   -1.5850    0.1240 h1        1 RBE      0.126000
     24 H41        -1.2400   -1.6140    1.7490 hc        1 RBE      0.102500
     25 H42        -1.2690   -0.0270    1.7520 hc        1 RBE      0.102500
     26 H5         -3.4440   -0.5140    1.4710 hx        1 RBE      0.113000
     27 H61        -4.1000   -2.5160    0.6400 hc        1 RBE      0.095500
     28 H62        -2.5520   -2.9110    0.8690 hc        1 RBE      0.095500
     29 H71        -3.7650   -2.5240   -1.6370 hc        1 RBE      0.096000
     30 H72        -2.2160   -2.9160   -1.4080 hc        1 RBE      0.096000
     31 H10         3.9720   -0.1560   -0.2620 ha        1 RBE      0.155000
     32 H11         5.8110    1.3240   -0.3570 ha        1 RBE      0.140000
     33 H12         5.6520    3.4700    0.6170 ha        1 RBE      0.140500
     34 H13         3.6540    4.1360    1.6870 ha        1 RBE      0.140500
     35 H14         1.8160    2.6560    1.7830 ha        1 RBE      0.167000
     36 HN11       -4.0270   -0.2970   -0.5560 hn        1 RBE      0.200500
     37 HN12       -2.8580    0.6110   -0.3760 hn        1 RBE      0.200500
@<TRIPOS>BOND
     1    1    2 1   
     2    1    7 1   
     3    1   16 1   
     4    1   21 1   
     5    2    3 1   
     6    2   15 1   
     7    2   22 1   
     8    3    4 1   
     9    3   17 1   
    10    3   23 1   
    11    4    5 1   
    12    4   24 1   
    13    4   25 1   
    14    5    6 1   
    15    5   16 1   
    16    5   26 1   
    17    6    7 1   
    18    6   27 1   
    19    6   28 1   
    20    7   29 1   
    21    7   30 1   
    22    8   17 1   
    23    8   18 1   
    24    9   10 1   
    25    9   14 1   
    26   10   11 1   
    27   10   31 1   
    28   11   32 1   
    29   12   13 1   
    30   12   33 1   
    31   13   34 1   
    32   14   35 1   
    33   15   19 1   
    34   15   20 1   
    35   16   36 1   
    36   16   37 1   
@<TRIPOS>SUBSTRUCTURE
     1 RBE         1 TEMP              0 ****  ****    0 ROOT
