@<TRIPOS>MOLECULE
RBF
   47    49     1     0     0
SMALL
bcc


@<TRIPOS>ATOM
      1 N1         -2.4620   -0.5170    0.5060 nc        1 RBF     -0.424400
      2 C2         -3.7090   -0.2940    1.1370 c         1 RBF      0.852900
      3 O2         -4.7820   -0.4650    0.5300 o         1 RBF     -0.587500
      4 N3         -3.7710    0.1330    2.4880 n         1 RBF     -0.614500
      5 C4         -2.6480    0.3650    3.2720 c         1 RBF      0.611000
      6 O4         -2.7760    0.7290    4.4500 o         1 RBF     -0.571500
      7 C4A        -1.3080    0.1470    2.6130 cd        1 RBF      0.304800
      8 N5         -0.2130    0.3820    3.2820 nc        1 RBF     -0.516000
      9 C5A         1.0070    0.1850    2.6380 ca        1 RBF      0.289600
     10 C6          2.2040    0.4630    3.3450 ca        1 RBF     -0.100300
     11 C7          3.4420    0.3050    2.7450 ca        1 RBF     -0.110300
     12 C7M         4.6820    0.5960    3.5010 c3        1 RBF     -0.051800
     13 C8          3.5150   -0.1300    1.4010 ca        1 RBF     -0.007300
     14 C8M         4.8380   -0.2820    0.7500 c3        1 RBF     -0.065800
     15 C9          2.3590   -0.4110    0.6870 ca        1 RBF     -0.183000
     16 C9A         1.0810   -0.2790    1.2840 ca        1 RBF     -0.001600
     17 N10        -0.0980   -0.6070    0.5990 na        1 RBF     -0.096100
     18 C10        -1.3430   -0.3300    1.1890 cd        1 RBF      0.094400
     19 C1'        -0.0370   -1.0780   -0.7720 c3        1 RBF     -0.009700
     20 C2'         0.1230    0.0350   -1.8300 c3        1 RBF      0.102100
     21 O2'        -0.9100    0.9880   -1.7590 oh        1 RBF     -0.580800
     22 C3'         0.2200   -0.6360   -3.2180 c3        1 RBF      0.081100
     23 O3'         1.5480   -1.0630   -3.4410 oh        1 RBF     -0.600800
     24 C4'        -0.2970    0.3130   -4.3160 c3        1 RBF      0.102100
     25 O4'        -1.7070    0.2380   -4.3980 oh        1 RBF     -0.579800
     26 C5'         0.3400    0.0030   -5.6740 c3        1 RBF      0.095400
     27 O5'         1.6240    0.6070   -5.6670 oh        1 RBF     -0.609800
     28 HN3        -4.6720    0.2770    2.8920 hn        1 RBF      0.348500
     29 HC6         2.1350    0.8120    4.3900 ha        1 RBF      0.163000
     30 HC71        5.3190   -0.3230    3.5670 hc        1 RBF      0.049700
     31 HC72        5.2740    1.3930    2.9820 hc        1 RBF      0.049700
     32 HC73        4.4550    0.9430    4.5380 hc        1 RBF      0.049700
     33 HC81        5.3730    0.7020    0.7350 hc        1 RBF      0.055033
     34 HC82        5.4670   -1.0090    1.3240 hc        1 RBF      0.055033
     35 HC83        4.7420   -0.6490   -0.3010 hc        1 RBF      0.055033
     36 HC9         2.4570   -0.7310   -0.3630 ha        1 RBF      0.152000
     37 HC11        0.8330   -1.7890   -0.8740 h1        1 RBF      0.087200
     38 HC12       -0.9730   -1.6640   -1.0010 h1        1 RBF      0.087200
     39 HC2'        1.0620    0.6290   -1.6340 h1        1 RBF      0.082700
     40 HO2'       -1.7350    0.5610   -2.0360 ho        1 RBF      0.430000
     41 HC3'       -0.3870   -1.5870   -3.2320 h1        1 RBF      0.072700
     42 HO3'        2.0620   -0.2950   -3.7320 ho        1 RBF      0.426000
     43 HC4'       -0.0910    1.3850   -4.0290 h1        1 RBF      0.117700
     44 HO4'       -1.9380   -0.6440   -4.7170 ho        1 RBF      0.400000
     45 HC51        0.4360   -1.1050   -5.8220 h1        1 RBF      0.042200
     46 HC52       -0.2900    0.4420   -6.4930 h1        1 RBF      0.042200
     47 HO5'        2.0390    0.3860   -6.5080 ho        1 RBF      0.413000
@<TRIPOS>BOND
     1    1    2 1   
     2    1   18 2   
     3    2    3 2   
     4    2    4 1   
     5    4    5 1   
     6    4   28 1   
     7    5    6 2   
     8    5    7 1   
     9    7    8 2   
    10    7   18 1   
    11    8    9 1   
    12    9   10 ar  
    13    9   16 ar  
    14   10   11 ar  
    15   10   29 1   
    16   11   12 1   
    17   11   13 ar  
    18   12   30 1   
    19   12   31 1   
    20   12   32 1   
    21   13   14 1   
    22   13   15 ar  
    23   14   33 1   
    24   14   34 1   
    25   14   35 1   
    26   15   16 ar  
    27   15   36 1   
    28   16   17 1   
    29   17   18 1   
    30   17   19 1   
    31   19   20 1   
    32   19   37 1   
    33   19   38 1   
    34   20   21 1   
    35   20   22 1   
    36   20   39 1   
    37   21   40 1   
    38   22   23 1   
    39   22   24 1   
    40   22   41 1   
    41   23   42 1   
    42   24   25 1   
    43   24   26 1   
    44   24   43 1   
    45   25   44 1   
    46   26   27 1   
    47   26   45 1   
    48   26   46 1   
    49   27   47 1   
@<TRIPOS>SUBSTRUCTURE
     1 RBF         1 TEMP              0 ****  ****    0 ROOT
