@<TRIPOS>MOLECULE
RBF
   47    49     1     0     0
SMALL
bcc


@<TRIPOS>ATOM
      1 N1          0.4280    0.4590    0.0620 nc        1 RBF     -0.405400
      2 C2          1.8280    0.6120    0.2050 c         1 RBF      0.851900
      3 O2          2.5590    0.8640   -0.7690 o         1 RBF     -0.585500
      4 N3          2.4460    0.4750    1.4760 n         1 RBF     -0.616500
      5 C4          1.7420    0.2270    2.6470 c         1 RBF      0.610000
      6 O4          2.3470    0.0830    3.7200 o         1 RBF     -0.575500
      7 C4A         0.2400    0.1530    2.5270 cd        1 RBF      0.302800
      8 N5         -0.4870    0.0290    3.6030 nc        1 RBF     -0.519000
      9 C5A        -1.8710   -0.0430    3.4580 ca        1 RBF      0.286600
     10 C6         -2.6770   -0.1330    4.6200 ca        1 RBF     -0.103300
     11 C7         -4.0560   -0.2160    4.5290 ca        1 RBF     -0.112300
     12 C7M        -4.8830   -0.3070    5.7550 c3        1 RBF     -0.050800
     13 C8         -4.6730   -0.2140    3.2560 ca        1 RBF     -0.010300
     14 C8M        -6.1490   -0.3030    3.1550 c3        1 RBF     -0.064800
     15 C9         -3.9080   -0.1300    2.1020 ca        1 RBF     -0.184000
     16 C9A        -2.4950   -0.0370    2.1670 ca        1 RBF     -0.005600
     17 N10        -1.7080    0.0760    1.0130 na        1 RBF     -0.102100
     18 C10        -0.3160    0.2300    1.1310 cd        1 RBF      0.092400
     19 C1'        -2.3380   -0.0410   -0.2910 c3        1 RBF      0.020300
     20 C2'        -2.8420   -1.4690   -0.6110 c3        1 RBF      0.146100
     21 O2'        -1.7150   -2.1650   -1.1050 oh        1 RBF     -0.590800
     22 C3'        -3.9370   -1.4170   -1.6980 c3        1 RBF      0.105100
     23 O3'        -4.8310   -0.3680   -1.3480 oh        1 RBF     -0.603800
     24 C4'        -4.7410   -2.7300   -1.7780 c3        1 RBF      0.110100
     25 O4'        -3.8770   -3.8070   -1.4610 oh        1 RBF     -0.614800
     26 C5'        -5.3240   -2.9090   -3.1850 c3        1 RBF      0.088400
     27 O5'        -6.0880   -4.1030   -3.1420 oh        1 RBF     -0.608800
     28 HN3         3.4400    0.5480    1.5240 hn        1 RBF      0.347500
     29 HC6        -2.1860   -0.1350    5.6080 ha        1 RBF      0.162000
     30 HC71       -5.5920    0.5570    5.8080 hc        1 RBF      0.048367
     31 HC72       -5.4850   -1.2510    5.7460 hc        1 RBF      0.048367
     32 HC73       -4.2490   -0.3010    6.6750 hc        1 RBF      0.048367
     33 HC81       -6.6220    0.5570    3.6950 hc        1 RBF      0.053700
     34 HC82       -6.4920   -0.2860    2.0920 hc        1 RBF      0.053700
     35 HC83       -6.5100   -1.2510    3.6310 hc        1 RBF      0.053700
     36 HC9        -4.4230   -0.1360    1.1240 ha        1 RBF      0.165000
     37 HC11       -1.6110    0.2500   -1.1040 h1        1 RBF      0.104200
     38 HC12       -3.2030    0.6820   -0.3250 h1        1 RBF      0.104200
     39 HC2'       -3.2610   -1.9800    0.2990 h1        1 RBF      0.059700
     40 HO2'       -1.9360   -3.1060   -1.1360 ho        1 RBF      0.428000
     41 HC3'       -3.4510   -1.2020   -2.6900 h1        1 RBF      0.063700
     42 HO3'       -5.4510   -0.2710   -2.0800 ho        1 RBF      0.409000
     43 HC4'       -5.5820   -2.7000   -1.0270 h1        1 RBF      0.063700
     44 HO4'       -4.3680   -4.6210   -1.6400 ho        1 RBF      0.435000
     45 HC51       -5.9810   -2.0380   -3.4460 h1        1 RBF      0.037200
     46 HC52       -4.4990   -2.9990   -3.9410 h1        1 RBF      0.037200
     47 HO5'       -6.3680   -4.2900   -4.0450 ho        1 RBF      0.415000
@<TRIPOS>BOND
     1    1    2 1   
     2    1   18 2   
     3    2    3 2   
     4    2    4 1   
     5    4    5 1   
     6    4   28 1   
     7    5    6 2   
     8    5    7 1   
     9    7    8 2   
    10    7   18 1   
    11    8    9 1   
    12    9   10 ar  
    13    9   16 ar  
    14   10   11 ar  
    15   10   29 1   
    16   11   12 1   
    17   11   13 ar  
    18   12   30 1   
    19   12   31 1   
    20   12   32 1   
    21   13   14 1   
    22   13   15 ar  
    23   14   33 1   
    24   14   34 1   
    25   14   35 1   
    26   15   16 ar  
    27   15   36 1   
    28   16   17 1   
    29   17   18 1   
    30   17   19 1   
    31   19   20 1   
    32   19   37 1   
    33   19   38 1   
    34   20   21 1   
    35   20   22 1   
    36   20   39 1   
    37   21   40 1   
    38   22   23 1   
    39   22   24 1   
    40   22   41 1   
    41   23   42 1   
    42   24   25 1   
    43   24   26 1   
    44   24   43 1   
    45   25   44 1   
    46   26   27 1   
    47   26   45 1   
    48   26   46 1   
    49   27   47 1   
@<TRIPOS>SUBSTRUCTURE
     1 RBF         1 TEMP              0 ****  ****    0 ROOT
