@<TRIPOS>MOLECULE
RBF
   47    49     1     0     0
SMALL
bcc


@<TRIPOS>ATOM
      1 N1          0.4280    0.4720    0.0770 nc        1 RBF     -0.405400
      2 C2          1.8260    0.6280    0.2240 c         1 RBF      0.851900
      3 O2          2.5600    0.8870   -0.7470 o         1 RBF     -0.585500
      4 N3          2.4410    0.4870    1.4960 n         1 RBF     -0.616500
      5 C4          1.7350    0.2310    2.6630 c         1 RBF      0.610000
      6 O4          2.3380    0.0840    3.7370 o         1 RBF     -0.575500
      7 C4A         0.2330    0.1550    2.5400 cd        1 RBF      0.302800
      8 N5         -0.4960    0.0240    3.6130 nc        1 RBF     -0.519000
      9 C5A        -1.8790   -0.0510    3.4640 ca        1 RBF      0.286600
     10 C6         -2.6880   -0.1490    4.6230 ca        1 RBF     -0.103300
     11 C7         -4.0660   -0.2350    4.5290 ca        1 RBF     -0.112300
     12 C7M        -4.8960   -0.3340    5.7520 c3        1 RBF     -0.050800
     13 C8         -4.6800   -0.2290    3.2540 ca        1 RBF     -0.010300
     14 C8M        -6.1560   -0.3210    3.1500 c3        1 RBF     -0.064800
     15 C9         -3.9120   -0.1380    2.1020 ca        1 RBF     -0.184000
     16 C9A        -2.4990   -0.0410    2.1720 ca        1 RBF     -0.005600
     17 N10        -1.7100    0.0800    1.0200 na        1 RBF     -0.102100
     18 C10        -0.3190    0.2360    1.1430 cd        1 RBF      0.092400
     19 C1'        -2.3360   -0.0330   -0.2860 c3        1 RBF      0.020300
     20 C2'        -2.8360   -1.4610   -0.6140 c3        1 RBF      0.146100
     21 O2'        -1.7060   -2.1520   -1.1070 oh        1 RBF     -0.590800
     22 C3'        -3.9280   -1.4070   -1.7040 c3        1 RBF      0.105100
     23 O3'        -4.8250   -0.3620   -1.3510 oh        1 RBF     -0.603800
     24 C4'        -4.7290   -2.7220   -1.7910 c3        1 RBF      0.110100
     25 O4'        -3.8620   -3.7980   -1.4780 oh        1 RBF     -0.614800
     26 C5'        -5.3070   -2.8950   -3.2010 c3        1 RBF      0.088400
     27 O5'        -6.0690   -4.0910   -3.1650 oh        1 RBF     -0.608800
     28 HN3         3.4350    0.5620    1.5460 hn        1 RBF      0.347500
     29 HC6        -2.1990   -0.1550    5.6130 ha        1 RBF      0.162000
     30 HC71       -5.4970   -1.2780    5.7370 hc        1 RBF      0.048367
     31 HC72       -4.2640   -0.3330    6.6740 hc        1 RBF      0.048367
     32 HC73       -5.6060    0.5290    5.8090 hc        1 RBF      0.048367
     33 HC81       -6.6320    0.5340    3.6930 hc        1 RBF      0.053700
     34 HC82       -6.5140   -1.2730    3.6180 hc        1 RBF      0.053700
     35 HC83       -6.4960   -0.2980    2.0860 hc        1 RBF      0.053700
     36 HC9        -4.4250   -0.1400    1.1240 ha        1 RBF      0.165000
     37 HC11       -3.2030    0.6870   -0.3180 h1        1 RBF      0.104200
     38 HC12       -1.6080    0.2630   -1.0950 h1        1 RBF      0.104200
     39 HC2'       -3.2560   -1.9770    0.2930 h1        1 RBF      0.059700
     40 HO2'       -1.9240   -3.0930   -1.1440 ho        1 RBF      0.428000
     41 HC3'       -3.4400   -1.1860   -2.6930 h1        1 RBF      0.063700
     42 HO3'       -5.4440   -0.2630   -2.0840 ho        1 RBF      0.409000
     43 HC4'       -5.5710   -2.6980   -1.0420 h1        1 RBF      0.063700
     44 HO4'       -4.3510   -4.6120   -1.6620 ho        1 RBF      0.435000
     45 HC51       -4.4810   -2.9800   -3.9550 h1        1 RBF      0.037200
     46 HC52       -5.9660   -2.0250   -3.4590 h1        1 RBF      0.037200
     47 HO5'       -6.3470   -4.2750   -4.0690 ho        1 RBF      0.415000
@<TRIPOS>BOND
     1    1    2 1   
     2    1   18 2   
     3    2    3 2   
     4    2    4 1   
     5    4    5 1   
     6    4   28 1   
     7    5    6 2   
     8    5    7 1   
     9    7    8 2   
    10    7   18 1   
    11    8    9 1   
    12    9   10 ar  
    13    9   16 ar  
    14   10   11 ar  
    15   10   29 1   
    16   11   12 1   
    17   11   13 ar  
    18   12   30 1   
    19   12   31 1   
    20   12   32 1   
    21   13   14 1   
    22   13   15 ar  
    23   14   33 1   
    24   14   34 1   
    25   14   35 1   
    26   15   16 ar  
    27   15   36 1   
    28   16   17 1   
    29   17   18 1   
    30   17   19 1   
    31   19   20 1   
    32   19   37 1   
    33   19   38 1   
    34   20   21 1   
    35   20   22 1   
    36   20   39 1   
    37   21   40 1   
    38   22   23 1   
    39   22   24 1   
    40   22   41 1   
    41   23   42 1   
    42   24   25 1   
    43   24   26 1   
    44   24   43 1   
    45   25   44 1   
    46   26   27 1   
    47   26   45 1   
    48   26   46 1   
    49   27   47 1   
@<TRIPOS>SUBSTRUCTURE
     1 RBF         1 TEMP              0 ****  ****    0 ROOT
