@<TRIPOS>MOLECULE
RBF
   47    49     1     0     0
SMALL
bcc


@<TRIPOS>ATOM
      1 N1          0.4320    0.4540    0.0700 nc        1 RBF     -0.405400
      2 C2          1.8310    0.6050    0.2160 c         1 RBF      0.851900
      3 O2          2.5660    0.8550   -0.7560 o         1 RBF     -0.585500
      4 N3          2.4460    0.4690    1.4890 ns        1 RBF     -0.616500
      5 C4          1.7380    0.2230    2.6580 c         1 RBF      0.610000
      6 O4          2.3400    0.0800    3.7330 o         1 RBF     -0.575500
      7 C4A         0.2360    0.1510    2.5350 cd        1 RBF      0.302800
      8 N5         -0.4930    0.0290    3.6090 nc        1 RBF     -0.519000
      9 C5A        -1.8770   -0.0410    3.4600 ca        1 RBF      0.286600
     10 C6         -2.6860   -0.1290    4.6200 ca        1 RBF     -0.103300
     11 C7         -4.0650   -0.2110    4.5250 ca        1 RBF     -0.112300
     12 C7M        -4.8950   -0.2990    5.7490 c3        1 RBF     -0.050800
     13 C8         -4.6790   -0.2090    3.2500 ca        1 RBF     -0.010300
     14 C8M        -6.1550   -0.2960    3.1470 c3        1 RBF     -0.064800
     15 C9         -3.9100   -0.1280    2.0980 ca        1 RBF     -0.184000
     16 C9A        -2.4970   -0.0360    2.1680 ca        1 RBF     -0.005600
     17 N10        -1.7070    0.0750    1.0150 na        1 RBF     -0.102100
     18 C10        -0.3150    0.2270    1.1370 cd        1 RBF      0.092400
     19 C1'        -2.3340   -0.0430   -0.2900 c3        1 RBF      0.020300
     20 C2'        -2.8390   -1.4710   -0.6100 c3        1 RBF      0.146100
     21 O2'        -1.7100   -2.1700   -1.0980 oh        1 RBF     -0.590800
     22 C3'        -3.9290   -1.4180   -1.7010 c3        1 RBF      0.105100
     23 O3'        -4.8230   -0.3680   -1.3550 oh        1 RBF     -0.603800
     24 C4'        -4.7350   -2.7310   -1.7820 c3        1 RBF      0.110100
     25 O4'        -3.8730   -3.8090   -1.4610 oh        1 RBF     -0.614800
     26 C5'        -5.3130   -2.9100   -3.1910 c3        1 RBF      0.088400
     27 O5'        -6.0790   -4.1030   -3.1490 oh        1 RBF     -0.608800
     28 HN3         3.4400    0.5400    1.5400 hn        1 RBF      0.347500
     29 HC6        -2.1980   -0.1310    5.6100 ha        1 RBF      0.162000
     30 HC71       -5.6020    0.5670    5.8010 hc        1 RBF      0.048367
     31 HC72       -5.5000   -1.2410    5.7390 hc        1 RBF      0.048367
     32 HC73       -4.2640   -0.2950    6.6710 hc        1 RBF      0.048367
     33 HC81       -6.5170   -1.2440    3.6200 hc        1 RBF      0.053700
     34 HC82       -6.6280    0.5640    3.6850 hc        1 RBF      0.053700
     35 HC83       -6.4950   -0.2780    2.0820 hc        1 RBF      0.053700
     36 HC9        -4.4230   -0.1330    1.1200 ha        1 RBF      0.164000
     37 HC11       -3.1980    0.6800   -0.3270 h1        1 RBF      0.104200
     38 HC12       -1.6040    0.2460   -1.1010 h1        1 RBF      0.104200
     39 HC2'       -3.2620   -1.9800    0.2990 h1        1 RBF      0.059700
     40 HO2'       -1.9330   -3.1100   -1.1290 ho        1 RBF      0.428000
     41 HC3'       -3.4390   -1.2060   -2.6920 h1        1 RBF      0.063700
     42 HO3'       -5.4400   -0.2710   -2.0900 ho        1 RBF      0.409000
     43 HC4'       -5.5780   -2.6990   -1.0340 h1        1 RBF      0.063700
     44 HO4'       -4.3650   -4.6220   -1.6410 ho        1 RBF      0.435000
     45 HC51       -4.4860   -3.0030   -3.9440 h1        1 RBF      0.037200
     46 HC52       -5.9680   -2.0390   -3.4550 h1        1 RBF      0.037200
     47 HO5'       -6.3570   -4.2910   -4.0530 ho        1 RBF      0.415000
@<TRIPOS>BOND
     1    1    2 1   
     2    1   18 2   
     3    2    3 2   
     4    2    4 1   
     5    4    5 1   
     6    4   28 1   
     7    5    6 2   
     8    5    7 1   
     9    7    8 2   
    10    7   18 1   
    11    8    9 1   
    12    9   10 ar  
    13    9   16 ar  
    14   10   11 ar  
    15   10   29 1   
    16   11   12 1   
    17   11   13 ar  
    18   12   30 1   
    19   12   31 1   
    20   12   32 1   
    21   13   14 1   
    22   13   15 ar  
    23   14   33 1   
    24   14   34 1   
    25   14   35 1   
    26   15   16 ar  
    27   15   36 1   
    28   16   17 1   
    29   17   18 1   
    30   17   19 1   
    31   19   20 1   
    32   19   37 1   
    33   19   38 1   
    34   20   21 1   
    35   20   22 1   
    36   20   39 1   
    37   21   40 1   
    38   22   23 1   
    39   22   24 1   
    40   22   41 1   
    41   23   42 1   
    42   24   25 1   
    43   24   26 1   
    44   24   43 1   
    45   25   44 1   
    46   26   27 1   
    47   26   45 1   
    48   26   46 1   
    49   27   47 1   
@<TRIPOS>SUBSTRUCTURE
     1 RBF         1 TEMP              0 ****  ****    0 ROOT
