@<TRIPOS>MOLECULE
RBL
   20    19     1     0     0
SMALL
bcc


@<TRIPOS>ATOM
      1 C2         -2.3070    0.5180   -1.1230 c3        1 RBL      0.038400
      2 C3         -0.7940    0.4670   -1.0890 c         1 RBL      0.519100
      3 C5         -0.0680    0.4720    0.2340 c3        1 RBL      0.047100
      4 O13         0.3560    1.7970    0.5390 oh        1 RBL     -0.585800
      5 C6          1.1040   -0.4160    0.1520 c3        1 RBL      0.119100
      6 O14         0.6960   -1.7170   -0.4060 oh        1 RBL     -0.612800
      7 C7          1.6720   -0.6160    1.5180 c3        1 RBL      0.095400
      8 O8          2.8310   -1.3810    1.4330 oh        1 RBL     -0.615800
      9 O4         -0.1880    0.4510   -2.0900 o         1 RBL     -0.534100
     10 O1         -2.7330    0.6890   -2.4230 oh        1 RBL     -0.587800
     11 H2         -2.6470    1.3290   -0.5310 h1        1 RBL      0.085700
     12 H2A        -2.6600   -0.2960   -0.7780 h1        1 RBL      0.085700
     13 H5         -0.6270    0.1750    0.8890 h1        1 RBL      0.101700
     14 HO13       -0.2930    2.2180    1.0750 ho        1 RBL      0.423000
     15 H6          1.7750   -0.0130   -0.4230 h1        1 RBL      0.059700
     16 HO14        1.4320   -2.1170   -0.8460 ho        1 RBL      0.433000
     17 H7          1.8780    0.2320    1.9050 h1        1 RBL      0.048200
     18 H7A         0.9870   -1.1000    2.1030 h1        1 RBL      0.048200
     19 HO8         3.2180   -1.4660    2.2980 ho        1 RBL      0.414000
     20 HO1        -3.6330    0.7740   -2.4370 ho        1 RBL      0.417000
@<TRIPOS>BOND
     1    1    2 1   
     2    1   10 1   
     3    1   11 1   
     4    1   12 1   
     5    2    3 1   
     6    2    9 2   
     7    3    4 1   
     8    3    5 1   
     9    3   13 1   
    10    4   14 1   
    11    5    6 1   
    12    5    7 1   
    13    5   15 1   
    14    6   16 1   
    15    7    8 1   
    16    7   17 1   
    17    7   18 1   
    18    8   19 1   
    19   10   20 1   
@<TRIPOS>SUBSTRUCTURE
     1 RBL         1 TEMP              0 ****  ****    0 ROOT
