@<TRIPOS>MOLECULE
RBL
   20    19     1     0     0
SMALL
bcc


@<TRIPOS>ATOM
      1 C2          2.0820    0.8310    0.7110 c3        1 RBL      0.038400
      2 C3          1.3670   -0.2650   -0.0290 c         1 RBL      0.519100
      3 C5         -0.0070   -0.6510    0.4870 c3        1 RBL      0.047100
      4 O13        -0.3030   -2.0030    0.1990 oh        1 RBL     -0.585800
      5 C6         -1.0840    0.2610   -0.1360 c3        1 RBL      0.119100
      6 O14        -0.7650    1.5950    0.2260 oh        1 RBL     -0.612800
      7 C7         -2.4650   -0.1350    0.3940 c3        1 RBL      0.095400
      8 O8         -3.3910    0.7310   -0.2440 oh        1 RBL     -0.615800
      9 O4          1.8490   -0.8220   -1.0210 o         1 RBL     -0.534100
     10 O1          3.4400    0.9470    0.3450 oh        1 RBL     -0.587800
     11 H2          1.5390    1.8000    0.5170 h1        1 RBL      0.085700
     12 H2A         2.0910    0.6220    1.8150 h1        1 RBL      0.085700
     13 H5         -0.0410   -0.5750    1.6100 h1        1 RBL      0.101700
     14 HO13       -0.0230   -2.1790   -0.7120 ho        1 RBL      0.423000
     15 H6         -1.0690    0.1630   -1.2570 h1        1 RBL      0.059700
     16 HO14       -1.5240    2.1380   -0.0280 ho        1 RBL      0.433000
     17 H7         -2.6760   -1.2060    0.1390 h1        1 RBL      0.048200
     18 H7A        -2.5110    0.0070    1.5060 h1        1 RBL      0.048200
     19 HO8        -4.2690    0.4690    0.0550 ho        1 RBL      0.414000
     20 HO1         3.4990    0.8310   -0.6130 ho        1 RBL      0.417000
@<TRIPOS>BOND
     1    1    2 1   
     2    1   10 1   
     3    1   11 1   
     4    1   12 1   
     5    2    3 1   
     6    2    9 2   
     7    3    4 1   
     8    3    5 1   
     9    3   13 1   
    10    4   14 1   
    11    5    6 1   
    12    5    7 1   
    13    5   15 1   
    14    6   16 1   
    15    7    8 1   
    16    7   17 1   
    17    7   18 1   
    18    8   19 1   
    19   10   20 1   
@<TRIPOS>SUBSTRUCTURE
     1 RBL         1 TEMP              0 ****  ****    0 ROOT
