@<TRIPOS>MOLECULE
RBP
   47    50     1     0     0
SMALL
bcc


@<TRIPOS>ATOM
      1 N13         0.6110    0.8000   -0.2520 n3        1 RBP     -0.818200
      2 C12         2.0110    0.6810    0.1070 c3        1 RBP      0.159800
      3 C11         2.2100    0.2850    1.5670 c3        1 RBP     -0.073400
      4 C3          1.4890    1.2420    2.5090 c3        1 RBP     -0.023400
      5 C4          1.6420    0.7900    3.9270 ca        1 RBP     -0.053300
      6 C10         2.2760    1.6200    4.8590 ca        1 RBP     -0.125000
      7 C9          2.4380    1.2100    6.1810 ca        1 RBP     -0.102000
      8 C7          1.9650   -0.0410    6.5870 ca        1 RBP     -0.028900
      9 BR          2.1830   -0.5980    8.3620 br        1 RBP     -0.092100
     10 C6          1.3280   -0.8750    5.6640 ca        1 RBP     -0.102000
     11 C5          1.1690   -0.4600    4.3440 ca        1 RBP     -0.125000
     12 C2          0.0100    1.3520    2.1040 c3        1 RBP      0.150100
     13 O1         -0.5460    2.4370    2.8530 os        1 RBP     -0.420600
     14 C15        -1.9420    2.2760    3.1050 c3        1 RBP      0.176700
     15 C16        -2.4630    3.5020    3.7770 ca        1 RBP     -0.090300
     16 C17        -3.8720    3.6010    3.9490 ca        1 RBP     -0.126000
     17 C18        -4.4220    4.6940    4.5690 ca        1 RBP     -0.117000
     18 C19        -3.5950    5.7470    5.0480 ca        1 RBP     -0.037000
     19 C20        -4.1390    6.8910    5.6930 ca        1 RBP     -0.118000
     20 C21        -3.3150    7.8930    6.1460 ca        1 RBP     -0.127000
     21 C22        -1.9130    7.7970    5.9760 ca        1 RBP     -0.129000
     22 C24        -1.3620    6.7020    5.3560 ca        1 RBP     -0.114000
     23 C23        -2.1910    5.6510    4.8780 ca        1 RBP     -0.038000
     24 C25        -1.6430    4.5070    4.2340 ca        1 RBP     -0.088000
     25 C14        -0.1280    1.7000    0.6070 c3        1 RBP      0.133800
     26 H13         0.5250    1.0950   -1.2070 hn        1 RBP      0.366800
     27 H121        2.4590   -0.1150   -0.5510 h1        1 RBP      0.031700
     28 H122        2.5800    1.6400   -0.0810 h1        1 RBP      0.031700
     29 H111        1.8370   -0.7600    1.7300 hc        1 RBP      0.054700
     30 H112        3.3070    0.2960    1.7940 hc        1 RBP      0.054700
     31 H3          1.9420    2.2680    2.3990 hc        1 RBP      0.068700
     32 H10         2.6460    2.6100    4.5510 ha        1 RBP      0.137500
     33 H9          2.9370    1.8780    6.9000 ha        1 RBP      0.145500
     34 H6          0.9490   -1.8620    5.9720 ha        1 RBP      0.145500
     35 H5          0.6660   -1.1250    3.6250 ha        1 RBP      0.137500
     36 H2         -0.5240    0.3910    2.3350 h1        1 RBP      0.056700
     37 H151       -2.0950    1.3800    3.7690 h1        1 RBP      0.039200
     38 H152       -2.4840    2.1070    2.1340 h1        1 RBP      0.039200
     39 H17        -4.5110    2.7860    3.5780 ha        1 RBP      0.130000
     40 H18        -5.5110    4.7750    4.7050 ha        1 RBP      0.133000
     41 H20        -5.2300    6.9560    5.8210 ha        1 RBP      0.132000
     42 H21        -3.7330    8.7790    6.6450 ha        1 RBP      0.131000
     43 H22        -1.2740    8.6120    6.3480 ha        1 RBP      0.131000
     44 H24        -0.2730    6.6180    5.2200 ha        1 RBP      0.133000
     45 H25        -0.5510    4.4380    4.1050 ha        1 RBP      0.151000
     46 H141       -1.2150    1.6250    0.3220 h1        1 RBP      0.039700
     47 H142        0.1840    2.7780    0.4810 h1        1 RBP      0.039700
@<TRIPOS>BOND
     1    1    2 1   
     2    1   25 1   
     3    1   26 1   
     4    2    3 1   
     5    2   27 1   
     6    2   28 1   
     7    3    4 1   
     8    3   29 1   
     9    3   30 1   
    10    4    5 1   
    11    4   12 1   
    12    4   31 1   
    13    5    6 ar  
    14    5   11 ar  
    15    6    7 ar  
    16    6   32 1   
    17    7    8 ar  
    18    7   33 1   
    19    8    9 1   
    20    8   10 ar  
    21   10   11 ar  
    22   10   34 1   
    23   11   35 1   
    24   12   13 1   
    25   12   25 1   
    26   12   36 1   
    27   13   14 1   
    28   14   15 1   
    29   14   37 1   
    30   14   38 1   
    31   15   16 ar  
    32   15   24 ar  
    33   16   17 ar  
    34   16   39 1   
    35   17   18 ar  
    36   17   40 1   
    37   18   19 ar  
    38   18   23 ar  
    39   19   20 ar  
    40   19   41 1   
    41   20   21 ar  
    42   20   42 1   
    43   21   22 ar  
    44   21   43 1   
    45   22   23 ar  
    46   22   44 1   
    47   23   24 ar  
    48   24   45 1   
    49   25   46 1   
    50   25   47 1   
@<TRIPOS>SUBSTRUCTURE
     1 RBP         1 TEMP              0 ****  ****    0 ROOT
