@<TRIPOS>MOLECULE
RBP
   47    50     1     0     0
SMALL
bcc


@<TRIPOS>ATOM
      1 N13        -1.1510    5.1010   -0.4550 n3        1 RBP     -0.818200
      2 C12        -2.2970    4.5920   -1.1820 c3        1 RBP      0.159800
      3 C11        -2.8040    3.2650   -0.6240 c3        1 RBP     -0.073400
      4 C3         -1.6930    2.2230   -0.5660 c3        1 RBP     -0.023400
      5 C4         -2.1990    0.9570    0.0500 ca        1 RBP     -0.053300
      6 C10        -2.1810   -0.2340   -0.6870 ca        1 RBP     -0.125000
      7 C9         -2.6590   -1.4190   -0.1320 ca        1 RBP     -0.102000
      8 C7         -3.1620   -1.4280    1.1720 ca        1 RBP     -0.028900
      9 BR         -3.8080   -3.0180    1.9210 br        1 RBP     -0.092100
     10 C6         -3.1800   -0.2440    1.9160 ca        1 RBP     -0.102000
     11 C5         -2.7010    0.9380    1.3560 ca        1 RBP     -0.125000
     12 C2         -0.4890    2.7890    0.2040 c3        1 RBP      0.150100
     13 O1          0.5960    1.8770    0.0080 os        1 RBP     -0.420600
     14 C15         1.5130    1.8670    1.1030 c3        1 RBP      0.176700
     15 C16         2.6730    0.9920    0.7630 ca        1 RBP     -0.090300
     16 C17         3.7660    0.9780    1.6730 ca        1 RBP     -0.126000
     17 C18         4.8620    0.1900    1.4310 ca        1 RBP     -0.117000
     18 C19         4.9260   -0.6250    0.2680 ca        1 RBP     -0.037000
     19 C20         6.0500   -1.4500   -0.0070 ca        1 RBP     -0.118000
     20 C21         6.0830   -2.2270   -1.1390 ca        1 RBP     -0.127000
     21 C22         4.9970   -2.2160   -2.0470 ca        1 RBP     -0.129000
     22 C24         3.8980   -1.4280   -1.8050 ca        1 RBP     -0.115000
     23 C23         3.8370   -0.6130   -0.6410 ca        1 RBP     -0.038000
     24 C25         2.7100    0.2100   -0.3680 ca        1 RBP     -0.088000
     25 C14        -0.0590    4.1550   -0.3700 c3        1 RBP      0.133800
     26 H13        -0.8290    5.9530   -0.8750 hn        1 RBP      0.366800
     27 H121       -2.0750    4.4510   -2.2820 h1        1 RBP      0.031700
     28 H122       -3.1170    5.3600   -1.0960 h1        1 RBP      0.031700
     29 H111       -3.6300    2.8910   -1.2820 hc        1 RBP      0.054700
     30 H112       -3.2280    3.4230    0.4020 hc        1 RBP      0.054700
     31 H3         -1.3450    2.0070   -1.6170 hc        1 RBP      0.068700
     32 H10        -1.7810   -0.2390   -1.7120 ha        1 RBP      0.137500
     33 H9         -2.6340   -2.3450   -0.7270 ha        1 RBP      0.145500
     34 H6         -3.5720   -0.2380    2.9450 ha        1 RBP      0.145500
     35 H5         -2.7200    1.8640    1.9510 ha        1 RBP      0.137500
     36 H2         -0.7420    2.8830    1.2950 h1        1 RBP      0.056700
     37 H151        1.8680    2.9150    1.3080 h1        1 RBP      0.039200
     38 H152        0.9900    1.4730    2.0180 h1        1 RBP      0.039200
     39 H17         3.7160    1.6090    2.5730 ha        1 RBP      0.130000
     40 H18         5.7100    0.1750    2.1330 ha        1 RBP      0.133000
     41 H20         6.8890   -1.4520    0.7040 ha        1 RBP      0.132000
     42 H21         6.9520   -2.8670   -1.3550 ha        1 RBP      0.131000
     43 H22         5.0460   -2.8480   -2.9460 ha        1 RBP      0.131000
     44 H24         3.0480   -1.4130   -2.5030 ha        1 RBP      0.133000
     45 H25         1.8670    0.2140   -1.0780 ha        1 RBP      0.151000
     46 H141        0.4310    3.9610   -1.3700 h1        1 RBP      0.040200
     47 H142        0.7220    4.5980    0.3100 h1        1 RBP      0.040200
@<TRIPOS>BOND
     1    1    2 1   
     2    1   25 1   
     3    1   26 1   
     4    2    3 1   
     5    2   27 1   
     6    2   28 1   
     7    3    4 1   
     8    3   29 1   
     9    3   30 1   
    10    4    5 1   
    11    4   12 1   
    12    4   31 1   
    13    5    6 ar  
    14    5   11 ar  
    15    6    7 ar  
    16    6   32 1   
    17    7    8 ar  
    18    7   33 1   
    19    8    9 1   
    20    8   10 ar  
    21   10   11 ar  
    22   10   34 1   
    23   11   35 1   
    24   12   13 1   
    25   12   25 1   
    26   12   36 1   
    27   13   14 1   
    28   14   15 1   
    29   14   37 1   
    30   14   38 1   
    31   15   16 ar  
    32   15   24 ar  
    33   16   17 ar  
    34   16   39 1   
    35   17   18 ar  
    36   17   40 1   
    37   18   19 ar  
    38   18   23 ar  
    39   19   20 ar  
    40   19   41 1   
    41   20   21 ar  
    42   20   42 1   
    43   21   22 ar  
    44   21   43 1   
    45   22   23 ar  
    46   22   44 1   
    47   23   24 ar  
    48   24   45 1   
    49   25   46 1   
    50   25   47 1   
@<TRIPOS>SUBSTRUCTURE
     1 RBP         1 TEMP              0 ****  ****    0 ROOT
