@<TRIPOS>MOLECULE
RBP
   47    50     1     0     0
SMALL
bcc


@<TRIPOS>ATOM
      1 N13         0.5780    0.8080   -0.2630 n7        1 RBP     -0.818200
      2 C12         1.9860    0.7170    0.0700 c3        1 RBP      0.159800
      3 C11         2.2200    0.3280    1.5270 c3        1 RBP     -0.073400
      4 C3          1.4980    1.2740    2.4800 c3        1 RBP     -0.023400
      5 C4          1.6860    0.8300    3.8960 ca        1 RBP     -0.053300
      6 C10         2.3200    1.6740    4.8150 ca        1 RBP     -0.125000
      7 C9          2.5120    1.2710    6.1350 ca        1 RBP     -0.102000
      8 C7          2.0720    0.0120    6.5520 ca        1 RBP     -0.028900
      9 Br          2.3310   -0.5350    8.3240 br        1 RBP     -0.092100
     10 C6          1.4350   -0.8370    5.6420 ca        1 RBP     -0.102000
     11 C5          1.2450   -0.4280    4.3240 ca        1 RBP     -0.125000
     12 C2          0.0110    1.3560    2.1020 c3        1 RBP      0.150100
     13 O1         -0.5510    2.4330    2.8580 os        1 RBP     -0.420600
     14 C15        -1.9390    2.2460    3.1380 c3        1 RBP      0.176700
     15 C16        -2.4710    3.4650    3.8160 ca        1 RBP     -0.090300
     16 C17        -3.8760    3.5290    4.0290 ca        1 RBP     -0.126000
     17 C18        -4.4350    4.6140    4.6550 ca        1 RBP     -0.117000
     18 C19        -3.6210    5.6920    5.1000 ca        1 RBP     -0.037000
     19 C20        -4.1750    6.8290    5.7500 ca        1 RBP     -0.118000
     20 C21        -3.3640    7.8550    6.1700 ca        1 RBP     -0.127000
     21 C22        -1.9660    7.7930    5.9590 ca        1 RBP     -0.129000
     22 C24        -1.4050    6.7070    5.3330 ca        1 RBP     -0.115000
     23 C23        -2.2210    5.6300    4.8890 ca        1 RBP     -0.038000
     24 C25        -1.6630    4.4950    4.2390 ca        1 RBP     -0.088000
     25 C14        -0.1620    1.6970    0.6070 c3        1 RBP      0.133800
     26 H13         0.4690    1.0990   -1.2170 hn        1 RBP      0.366800
     27 H121        2.4370   -0.0730   -0.5950 h1        1 RBP      0.031700
     28 H122        2.5340    1.6850   -0.1310 h1        1 RBP      0.031700
     29 H111        1.8690   -0.7230    1.6990 hc        1 RBP      0.054700
     30 H112        3.3200    0.3600    1.7340 hc        1 RBP      0.054700
     31 H3          1.9300    2.3080    2.3590 hc        1 RBP      0.068700
     32 H10         2.6650    2.6700    4.4970 ha        1 RBP      0.137500
     33 H9          3.0110    1.9510    6.8430 ha        1 RBP      0.145500
     34 H6          1.0810   -1.8300    5.9590 ha        1 RBP      0.145500
     35 H5          0.7420   -1.1050    3.6160 ha        1 RBP      0.137500
     36 H2         -0.5010    0.3860    2.3450 h1        1 RBP      0.056700
     37 H151       -2.0620    1.3500    3.8080 h1        1 RBP      0.039200
     38 H152       -2.4970    2.0640    2.1790 h1        1 RBP      0.039200
     39 H17        -4.5040    2.6950    3.6840 ha        1 RBP      0.130000
     40 H18        -5.5210    4.6680    4.8230 ha        1 RBP      0.133000
     41 H20        -5.2630    6.8670    5.9100 ha        1 RBP      0.132000
     42 H21        -3.7900    8.7350    6.6740 ha        1 RBP      0.131000
     43 H22        -1.3370    8.6270    6.3040 ha        1 RBP      0.131000
     44 H24        -0.3190    6.6490    5.1650 ha        1 RBP      0.133000
     45 H25        -0.5740    4.4520    4.0790 ha        1 RBP      0.151000
     46 H141        0.1280    2.7810    0.4720 h1        1 RBP      0.039700
     47 H142       -1.2520    1.6020    0.3420 h1        1 RBP      0.039700
@<TRIPOS>BOND
     1    1    2 1   
     2    1   25 1   
     3    1   26 1   
     4    2    3 1   
     5    2   27 1   
     6    2   28 1   
     7    3    4 1   
     8    3   29 1   
     9    3   30 1   
    10    4    5 1   
    11    4   12 1   
    12    4   31 1   
    13    5    6 ar  
    14    5   11 ar  
    15    6    7 ar  
    16    6   32 1   
    17    7    8 ar  
    18    7   33 1   
    19    8    9 1   
    20    8   10 ar  
    21   10   11 ar  
    22   10   34 1   
    23   11   35 1   
    24   12   13 1   
    25   12   25 1   
    26   12   36 1   
    27   13   14 1   
    28   14   15 1   
    29   14   37 1   
    30   14   38 1   
    31   15   16 ar  
    32   15   24 ar  
    33   16   17 ar  
    34   16   39 1   
    35   17   18 ar  
    36   17   40 1   
    37   18   19 ar  
    38   18   23 ar  
    39   19   20 ar  
    40   19   41 1   
    41   20   21 ar  
    42   20   42 1   
    43   21   22 ar  
    44   21   43 1   
    45   22   23 ar  
    46   22   44 1   
    47   23   24 ar  
    48   24   45 1   
    49   25   46 1   
    50   25   47 1   
@<TRIPOS>SUBSTRUCTURE
     1 RBP         1 TEMP              0 ****  ****    0 ROOT
