@<TRIPOS>MOLECULE
RBP
   47    50     1     0     0
SMALL
bcc


@<TRIPOS>ATOM
      1 N13         0.5430    0.7970   -0.2640 n3        1 RBP     -0.818200
      2 C12         1.9550    0.7140    0.0550 c3        1 RBP      0.159800
      3 C11         2.2060    0.3320    1.5110 c3        1 RBP     -0.073400
      4 C3          1.4900    1.2760    2.4680 c3        1 RBP     -0.023400
      5 C4          1.6950    0.8380    3.8840 ca        1 RBP     -0.053300
      6 C10         2.3330    1.6890    4.7930 ca        1 RBP     -0.125000
      7 C9          2.5420    1.2910    6.1120 ca        1 RBP     -0.102000
      8 C7          2.1120    0.0310    6.5380 ca        1 RBP     -0.028900
      9 BR          2.3930   -0.5090    8.3090 br        1 RBP     -0.092100
     10 C6          1.4710   -0.8240    5.6380 ca        1 RBP     -0.102000
     11 C5          1.2650   -0.4210    4.3210 ca        1 RBP     -0.125000
     12 C2         -0.0020    1.3500    2.1060 c3        1 RBP      0.150100
     13 O1         -0.5610    2.4270    2.8630 os        1 RBP     -0.420600
     14 C15        -1.9450    2.2330    3.1600 c3        1 RBP      0.176700
     15 C16        -2.4760    3.4520    3.8380 ca        1 RBP     -0.090300
     16 C17        -3.8780    3.5050    4.0750 ca        1 RBP     -0.126000
     17 C18        -4.4360    4.5890    4.7020 ca        1 RBP     -0.117000
     18 C19        -3.6260    5.6780    5.1250 ca        1 RBP     -0.037000
     19 C20        -4.1790    6.8140    5.7760 ca        1 RBP     -0.118000
     20 C21        -3.3710    7.8510    6.1740 ca        1 RBP     -0.127000
     21 C22        -1.9760    7.8010    5.9400 ca        1 RBP     -0.129000
     22 C24        -1.4160    6.7150    5.3130 ca        1 RBP     -0.115000
     23 C23        -2.2280    5.6280    4.8900 ca        1 RBP     -0.038000
     24 C25        -1.6710    4.4920    4.2400 ca        1 RBP     -0.088000
     25 C14        -0.1920    1.6840    0.6110 c3        1 RBP      0.133800
     26 H13         0.4220    1.0830   -1.2170 hn        1 RBP      0.366800
     27 H121        2.4960    1.6840   -0.1550 h1        1 RBP      0.031700
     28 H122        2.4040   -0.0760   -0.6120 h1        1 RBP      0.031700
     29 H111        3.3090    0.3700    1.7060 hc        1 RBP      0.054700
     30 H112        1.8630   -0.7210    1.6900 hc        1 RBP      0.054700
     31 H3          1.9150    2.3130    2.3390 hc        1 RBP      0.068700
     32 H10         2.6700    2.6860    4.4690 ha        1 RBP      0.137500
     33 H9          3.0440    1.9760    6.8130 ha        1 RBP      0.145500
     34 H6          1.1250   -1.8180    5.9620 ha        1 RBP      0.145500
     35 H5          0.7580   -1.1020    3.6190 ha        1 RBP      0.137500
     36 H2         -0.5060    0.3780    2.3580 h1        1 RBP      0.056700
     37 H151       -2.5120    2.0430    2.2080 h1        1 RBP      0.039200
     38 H152       -2.0550    1.3390    3.8360 h1        1 RBP      0.039200
     39 H17        -4.5040    2.6620    3.7470 ha        1 RBP      0.130000
     40 H18        -5.5200    4.6350    4.8880 ha        1 RBP      0.133000
     41 H20        -5.2640    6.8440    5.9540 ha        1 RBP      0.132000
     42 H21        -3.7960    8.7310    6.6780 ha        1 RBP      0.131000
     43 H22        -1.3490    8.6430    6.2680 ha        1 RBP      0.131000
     44 H24        -0.3320    6.6660    5.1270 ha        1 RBP      0.133000
     45 H25        -0.5850    4.4580    4.0610 ha        1 RBP      0.151000
     46 H141       -1.2840    1.5830    0.3590 h1        1 RBP      0.040200
     47 H142        0.0910    2.7690    0.4700 h1        1 RBP      0.040200
@<TRIPOS>BOND
     1    1    2 1   
     2    1   25 1   
     3    1   26 1   
     4    2    3 1   
     5    2   27 1   
     6    2   28 1   
     7    3    4 1   
     8    3   29 1   
     9    3   30 1   
    10    4    5 1   
    11    4   12 1   
    12    4   31 1   
    13    5    6 ar  
    14    5   11 ar  
    15    6    7 ar  
    16    6   32 1   
    17    7    8 ar  
    18    7   33 1   
    19    8    9 1   
    20    8   10 ar  
    21   10   11 ar  
    22   10   34 1   
    23   11   35 1   
    24   12   13 1   
    25   12   25 1   
    26   12   36 1   
    27   13   14 1   
    28   14   15 1   
    29   14   37 1   
    30   14   38 1   
    31   15   16 ar  
    32   15   24 ar  
    33   16   17 ar  
    34   16   39 1   
    35   17   18 ar  
    36   17   40 1   
    37   18   19 ar  
    38   18   23 ar  
    39   19   20 ar  
    40   19   41 1   
    41   20   21 ar  
    42   20   42 1   
    43   21   22 ar  
    44   21   43 1   
    45   22   23 ar  
    46   22   44 1   
    47   23   24 ar  
    48   24   45 1   
    49   25   46 1   
    50   25   47 1   
@<TRIPOS>SUBSTRUCTURE
     1 RBP         1 TEMP              0 ****  ****    0 ROOT
