@<TRIPOS>MOLECULE
RBP
   47    45     1     0     0
SMALL
bcc


@<TRIPOS>ATOM
      1 N13        -0.0580    3.2460   -2.7930 n3        1 RBP     -0.279000
      2 C12         1.1490    3.4890   -3.1690 c3        1 RBP     -0.084000
      3 C11         2.1670    2.6820   -2.3400 c3        1 RBP     -0.182000
      4 C3          1.5730    2.1660   -0.9830 c3        1 RBP     -0.074000
      5 C4          2.5150    1.4060   -0.2530 c2        1 RBP     -0.057000
      6 C10         2.8020    1.7500    1.0610 c2        1 RBP     -0.123000
      7 C9          3.8720    1.1650    1.7130 c1        1 RBP     -0.102000
      8 C7          4.6540    0.2440    1.0650 c1        1 RBP     -0.169000
      9 BR          6.0470   -0.6030    1.9840 br        1 RBP      0.052000
     10 C6          4.3730   -0.1020   -0.2450 c1        1 RBP     -0.102000
     11 C5          3.2940    0.4860   -0.9030 c1        1 RBP     -0.132000
     12 C2          0.4570    1.2760   -1.6030 c3        1 RBP      0.032000
     13 O1         -0.2280    0.6320   -0.5630 os        1 RBP     -0.270000
     14 C15        -0.9850   -0.4800   -0.9740 c3        1 RBP      0.017000
     15 C16        -1.7180   -1.0880    0.2520 c2        1 RBP     -0.074000
     16 C17        -2.7050   -0.2860    0.8570 c2        1 RBP     -0.101000
     17 C18        -3.5280   -0.8230    1.8310 c1        1 RBP     -0.124000
     18 C19        -3.3810   -2.1490    2.2090 c1        1 RBP     -0.034000
     19 C20        -4.1870   -2.6810    3.2320 c2        1 RBP     -0.118000
     20 C21        -4.0100   -4.0030    3.6470 c1        1 RBP     -0.128000
     21 C22        -3.0190   -4.8080    3.0390 c1        1 RBP     -0.123000
     22 C24        -2.2230   -4.2820    2.0290 c1        1 RBP     -0.123000
     23 C23        -2.4050   -2.9390    1.6090 c1        1 RBP     -0.038000
     24 C25        -1.5740   -2.3980    0.6260 c2        1 RBP     -0.115000
     25 C14        -0.5560    2.0920   -2.4420 c3        1 RBP     -0.098000
     26 H13        -0.6290    3.6590   -3.3480 hn        1 RBP      0.147000
     27 H121        1.3230    4.4010   -3.0610 h1        1 RBP      0.096500
     28 H122        1.2450    3.2500   -4.1320 h1        1 RBP      0.096500
     29 H111        2.9670    3.2700   -2.1410 hc        1 RBP      0.088000
     30 H112        2.4550    1.9390   -2.8500 hc        1 RBP      0.088000
     31 H3          1.2010    2.8870   -0.4570 hc        1 RBP      0.123000
     32 H10         2.2530    2.3990    1.5220 ha        1 RBP      0.142000
     33 H9          4.0670    1.4020    2.6140 ha        1 RBP      0.148000
     34 H6          4.9330   -0.7630   -0.7110 ha        1 RBP      0.146000
     35 H5          3.0940    0.2410   -1.8290 ha        1 RBP      0.136000
     36 H2          0.8750    0.5920   -2.1850 h1        1 RBP      0.089000
     37 H151       -0.3640   -1.1860   -1.3860 h1        1 RBP      0.076500
     38 H152       -1.6160   -0.2100   -1.6080 h1        1 RBP      0.076500
     39 H17        -2.8930    0.6160    0.5010 ha        1 RBP      0.154000
     40 H18        -4.2200   -0.2630    2.2550 ha        1 RBP      0.133000
     41 H20        -4.8970   -2.1040    3.6700 ha        1 RBP      0.132000
     42 H21        -4.5530   -4.3600    4.3360 ha        1 RBP      0.131000
     43 H22        -2.8900   -5.7740    3.3400 ha        1 RBP      0.131000
     44 H24        -1.5440   -4.8320    1.6130 ha        1 RBP      0.131000
     45 H25        -0.9460   -2.9610    0.1700 ha        1 RBP      0.131000
     46 H141       -1.3830    2.2440   -1.9040 h1        1 RBP      0.075500
     47 H142       -0.8030    1.5560   -3.2960 h1        1 RBP      0.075500
@<TRIPOS>BOND
     1    1    2 1   
     2    1   25 1   
     3    1   26 1   
     4    2    3 1   
     5    2   27 1   
     6    2   28 1   
     7    3    4 1   
     8    3   29 1   
     9    3   30 1   
    10    4    5 1   
    11    4   12 1   
    12    4   31 1   
    13    5    6 1   
    14    5   11 1   
    15    6    7 1   
    16    6   32 1   
    17    7   33 1   
    18    8    9 1   
    19    8   10 1   
    20   10   34 1   
    21   11   35 1   
    22   12   13 1   
    23   12   25 1   
    24   12   36 1   
    25   13   14 1   
    26   14   15 1   
    27   14   37 1   
    28   14   38 1   
    29   15   16 1   
    30   15   24 1   
    31   16   17 1   
    32   16   39 1   
    33   17   40 1   
    34   18   19 1   
    35   18   23 1   
    36   19   20 1   
    37   19   41 1   
    38   20   42 1   
    39   21   22 1   
    40   21   43 1   
    41   22   44 1   
    42   23   24 1   
    43   24   45 1   
    44   25   46 1   
    45   25   47 1   
@<TRIPOS>SUBSTRUCTURE
     1 RBP         1 TEMP              0 ****  ****    0 ROOT
