@<TRIPOS>MOLECULE
RBQ
   52    54     1     0     0
SMALL
bcc


@<TRIPOS>ATOM
      1 C1          0.2920    0.0210   -0.2040 cc        1 RBQ      0.711800
      2 N2          1.5640    0.3650    0.0680 nd        1 RBQ     -0.704300
      3 N3         -0.5320   -0.6650    0.7100 n         1 RBQ     -0.403300
      4 C4          2.0790    0.0820    1.3380 cd        1 RBQ      0.386600
      5 N5         -0.2220    0.3900   -1.4880 nh        1 RBQ     -0.716600
      6 C6         -0.0440   -0.9660    2.0140 c         1 RBQ      0.713700
      7 C7          1.3200   -0.5710    2.2990 cc        1 RBQ     -0.355200
      8 C8         -1.6500    0.3700   -1.7270 c3        1 RBQ      0.186500
      9 C9         -2.1250    1.7720   -2.3200 c3        1 RBQ      0.611900
     10 N10         3.3870    0.5390    1.6800 nh        1 RBQ     -0.600400
     11 C11        -1.8970   -0.9870    0.3580 c3        1 RBQ      0.080000
     12 C12        -2.5270    0.0930   -0.5060 c3        1 RBQ     -0.113400
     13 O13        -0.8020   -1.5500    2.8110 o         1 RBQ     -0.635500
     14 F14        -1.5590    2.0970   -3.5240 f         1 RBQ     -0.235300
     15 F15        -3.4760    1.7870   -2.5630 f         1 RBQ     -0.235300
     16 F16        -1.9000    2.8530   -1.5130 f         1 RBQ     -0.235300
     17 O17         5.7600   -0.1330    0.1570 os        1 RBQ     -0.414600
     18 C18         0.6120    0.0670   -2.6310 c3        1 RBQ      0.199800
     19 C19         4.3080   -0.5150    2.0940 c3        1 RBQ      0.143300
     20 C20         4.0440    1.4880    0.7910 c3        1 RBQ      0.143300
     21 C21         0.8380   -1.4250   -2.9060 c3        1 RBQ      0.095400
     22 O22        -0.4160   -1.9770   -3.2900 os        1 RBQ     -0.442600
     23 C23         4.8510    0.8450   -0.3420 c3        1 RBQ      0.096400
     24 C24         5.1200   -1.1290    0.9460 c3        1 RBQ      0.096400
     25 C25        -0.3490   -3.3730   -3.6180 c3        1 RBQ      0.140100
     26 C26        -1.7640   -3.9010   -3.4600 c3        1 RBQ     -0.109100
     27 C27         0.1580   -3.5610   -5.0350 c3        1 RBQ     -0.109100
     28 H111       -1.9030   -1.9690   -0.1980 h1        1 RBQ      0.081700
     29 H112       -2.4960   -1.1180    1.3060 h1        1 RBQ      0.081700
     30 H7          1.6830   -0.7930    3.3100 ha        1 RBQ      0.175000
     31 H8         -1.8890   -0.3860   -2.5390 h1        1 RBQ      0.108700
     32 H181        1.6220    0.5460   -2.4820 h1        1 RBQ      0.089200
     33 H182        0.1310    0.5320   -3.5400 h1        1 RBQ      0.089200
     34 H121       -3.5360   -0.2460   -0.8560 hc        1 RBQ      0.083200
     35 H122       -2.6690    1.0360    0.0860 hc        1 RBQ      0.083200
     36 H191        3.7500   -1.3340    2.6250 h1        1 RBQ      0.073200
     37 H192        5.0190   -0.0350    2.8260 h1        1 RBQ      0.073200
     38 H201        3.2990    2.2080    0.3570 h1        1 RBQ      0.073200
     39 H202        4.7510    2.0710    1.4490 h1        1 RBQ      0.073200
     40 H231        5.5110    1.6080   -0.8330 h1        1 RBQ      0.056450
     41 H232        4.1740    0.3750   -1.1030 h1        1 RBQ      0.056450
     42 H241        4.4660   -1.7620    0.2900 h1        1 RBQ      0.056450
     43 H242        5.9640   -1.7440    1.3540 h1        1 RBQ      0.056450
     44 H211        1.2270   -1.9570   -1.9980 h1        1 RBQ      0.041700
     45 H212        1.5790   -1.5320   -3.7430 h1        1 RBQ      0.041700
     46 H25         0.3380   -3.8940   -2.8920 h1        1 RBQ      0.039700
     47 H261       -2.1240   -3.7270   -2.4180 hc        1 RBQ      0.045533
     48 H262       -1.7770   -4.9950   -3.6760 hc        1 RBQ      0.045533
     49 H263       -2.4530   -3.3800   -4.1660 hc        1 RBQ      0.045533
     50 H271        1.2170   -3.2210   -5.1220 hc        1 RBQ      0.045533
     51 H272        0.1020   -4.6390   -5.3150 hc        1 RBQ      0.045533
     52 H273       -0.4640   -2.9690   -5.7490 hc        1 RBQ      0.045533
@<TRIPOS>BOND
     1    1    2 2   
     2    1    3 1   
     3    1    5 1   
     4    2    4 1   
     5    3    6 1   
     6    3   11 1   
     7    4    7 2   
     8    4   10 1   
     9    5    8 1   
    10    5   18 1   
    11    6    7 1   
    12    6   13 2   
    13    7   30 1   
    14    8    9 1   
    15    8   12 1   
    16    8   31 1   
    17    9   14 1   
    18    9   15 1   
    19    9   16 1   
    20   10   19 1   
    21   10   20 1   
    22   11   12 1   
    23   11   28 1   
    24   11   29 1   
    25   12   34 1   
    26   12   35 1   
    27   17   23 1   
    28   17   24 1   
    29   18   21 1   
    30   18   32 1   
    31   18   33 1   
    32   19   24 1   
    33   19   36 1   
    34   19   37 1   
    35   20   23 1   
    36   20   38 1   
    37   20   39 1   
    38   21   22 1   
    39   21   44 1   
    40   21   45 1   
    41   22   25 1   
    42   23   40 1   
    43   23   41 1   
    44   24   42 1   
    45   24   43 1   
    46   25   26 1   
    47   25   27 1   
    48   25   46 1   
    49   26   47 1   
    50   26   48 1   
    51   26   49 1   
    52   27   50 1   
    53   27   51 1   
    54   27   52 1   
@<TRIPOS>SUBSTRUCTURE
     1 RBQ         1 TEMP              0 ****  ****    0 ROOT
