@<TRIPOS>MOLECULE
RBQ
   52    54     1     0     0
SMALL
bcc


@<TRIPOS>ATOM
      1 C1          0.2940    0.0220   -0.2040 cc        1 RBQ      0.711800
      2 N2          1.5670    0.3690    0.0610 nd        1 RBQ     -0.704300
      3 N3         -0.5240   -0.6650    0.7150 n         1 RBQ     -0.403300
      4 C4          2.0880    0.0890    1.3290 cd        1 RBQ      0.386600
      5 N5         -0.2270    0.3880   -1.4860 nh        1 RBQ     -0.716600
      6 C6         -0.0290   -0.9630    2.0170 c         1 RBQ      0.713700
      7 C7          1.3360   -0.5640    2.2950 cc        1 RBQ     -0.354200
      8 C8         -1.6550    0.3640   -1.7180 c3        1 RBQ      0.186500
      9 C9         -2.1370    1.7640   -2.3100 c3        1 RBQ      0.611900
     10 N10         3.3980    0.5490    1.6630 nh        1 RBQ     -0.600400
     11 C11        -1.8900   -0.9890    0.3700 c3        1 RBQ      0.080000
     12 C12        -2.5260    0.0880   -0.4920 c3        1 RBQ     -0.113400
     13 O13        -0.7820   -1.5470    2.8190 o         1 RBQ     -0.635500
     14 F14        -1.5780    2.0880   -3.5180 f         1 RBQ     -0.235300
     15 F15        -3.4890    1.7760   -2.5470 f         1 RBQ     -0.235300
     16 F16        -1.9100    2.8470   -1.5060 f         1 RBQ     -0.235300
     17 O17         5.7640   -0.1200    0.1290 os        1 RBQ     -0.414600
     18 C18         0.6030    0.0650   -2.6320 c3        1 RBQ      0.199800
     19 C19         4.3230   -0.5030    2.0740 c3        1 RBQ      0.143300
     20 C20         4.0480    1.4980    0.7700 c3        1 RBQ      0.143300
     21 C21         0.8310   -1.4280   -2.9050 c3        1 RBQ      0.096400
     22 O22        -0.4240   -1.9840   -3.2800 os        1 RBQ     -0.442600
     23 C23         4.8510    0.8560   -0.3660 c3        1 RBQ      0.096400
     24 C24         5.1300   -1.1170    0.9220 c3        1 RBQ      0.096400
     25 C25        -0.3560   -3.3800   -3.6050 c3        1 RBQ      0.140100
     26 C26        -1.7680   -3.9120   -3.4360 c3        1 RBQ     -0.109100
     27 C27         0.1420   -3.5710   -5.0240 c3        1 RBQ     -0.109100
     28 H111       -1.8970   -1.9730   -0.1830 h1        1 RBQ      0.081700
     29 H112       -2.4830   -1.1200    1.3220 h1        1 RBQ      0.081700
     30 H7          1.7050   -0.7840    3.3040 ha        1 RBQ      0.175000
     31 H8         -1.8970   -0.3940   -2.5270 h1        1 RBQ      0.108700
     32 H181        0.1160    0.5260   -3.5400 h1        1 RBQ      0.089200
     33 H182        1.6120    0.5460   -2.4890 h1        1 RBQ      0.089200
     34 H121       -2.6670    1.0320    0.1000 hc        1 RBQ      0.083200
     35 H122       -3.5370   -0.2540   -0.8360 hc        1 RBQ      0.083200
     36 H191        3.7690   -1.3220    2.6090 h1        1 RBQ      0.073200
     37 H192        5.0370   -0.0210    2.8010 h1        1 RBQ      0.073200
     38 H201        3.2990    2.2160    0.3400 h1        1 RBQ      0.073200
     39 H202        4.7580    2.0840    1.4240 h1        1 RBQ      0.073200
     40 H231        4.1710    0.3840   -1.1230 h1        1 RBQ      0.056450
     41 H232        5.5060    1.6190   -0.8610 h1        1 RBQ      0.056450
     42 H241        4.4740   -1.7520    0.2700 h1        1 RBQ      0.056450
     43 H242        5.9780   -1.7300    1.3260 h1        1 RBQ      0.056450
     44 H211        1.2270   -1.9570   -1.9980 h1        1 RBQ      0.041700
     45 H212        1.5660   -1.5340   -3.7460 h1        1 RBQ      0.041700
     46 H25         0.3370   -3.8980   -2.8820 h1        1 RBQ      0.039700
     47 H261       -2.4640   -3.3950   -4.1400 hc        1 RBQ      0.045367
     48 H262       -2.1230   -3.7350   -2.3930 hc        1 RBQ      0.045367
     49 H263       -1.7800   -5.0060   -3.6490 hc        1 RBQ      0.045367
     50 H271        1.2000   -3.2280   -5.1200 hc        1 RBQ      0.045367
     51 H272       -0.4850   -2.9830   -5.7360 hc        1 RBQ      0.045367
     52 H273        0.0880   -4.6510   -5.3010 hc        1 RBQ      0.045367
@<TRIPOS>BOND
     1    1    2 2   
     2    1    3 1   
     3    1    5 1   
     4    2    4 1   
     5    3    6 1   
     6    3   11 1   
     7    4    7 2   
     8    4   10 1   
     9    5    8 1   
    10    5   18 1   
    11    6    7 1   
    12    6   13 2   
    13    7   30 1   
    14    8    9 1   
    15    8   12 1   
    16    8   31 1   
    17    9   14 1   
    18    9   15 1   
    19    9   16 1   
    20   10   19 1   
    21   10   20 1   
    22   11   12 1   
    23   11   28 1   
    24   11   29 1   
    25   12   34 1   
    26   12   35 1   
    27   17   23 1   
    28   17   24 1   
    29   18   21 1   
    30   18   32 1   
    31   18   33 1   
    32   19   24 1   
    33   19   36 1   
    34   19   37 1   
    35   20   23 1   
    36   20   38 1   
    37   20   39 1   
    38   21   22 1   
    39   21   44 1   
    40   21   45 1   
    41   22   25 1   
    42   23   40 1   
    43   23   41 1   
    44   24   42 1   
    45   24   43 1   
    46   25   26 1   
    47   25   27 1   
    48   25   46 1   
    49   26   47 1   
    50   26   48 1   
    51   26   49 1   
    52   27   50 1   
    53   27   51 1   
    54   27   52 1   
@<TRIPOS>SUBSTRUCTURE
     1 RBQ         1 TEMP              0 ****  ****    0 ROOT
