@<TRIPOS>MOLECULE
RBS
   36    38     1     0     0
SMALL
bcc


@<TRIPOS>ATOM
      1 O61         0.1040   -1.0390   -0.1070 o         1 RBS     -0.590100
      2 C10         1.2440   -0.5620    0.0490 c         1 RBS      0.669300
      3 C11         1.8680   -0.4600    1.3980 ce        1 RBS     -0.247200
      4 C51         1.2560   -0.9620    2.4700 c2        1 RBS     -0.120000
      5 N11         2.0110   -0.0910   -1.0120 n         1 RBS     -0.471100
      6 C9          1.6720   -0.0900   -2.3750 ca        1 RBS      0.071600
      7 C8          2.6780    0.1370   -3.3200 ca        1 RBS     -0.167000
      8 C13         0.3310   -0.2840   -2.8290 ca        1 RBS     -0.120000
      9 C17         0.0310   -0.2350   -4.1640 ca        1 RBS     -0.157300
     10 C18         1.0410    0.0060   -5.1450 ca        1 RBS      0.408600
     11 C7          2.3870    0.1770   -4.6980 ca        1 RBS     -0.254600
     12 C6          3.3950    0.4010   -5.7420 ca        1 RBS      0.682200
     13 N3          3.0410    0.4650   -7.0430 nb        1 RBS     -0.758000
     14 C19         1.7030    0.3060   -7.3290 ca        1 RBS      0.657900
     15 N2          0.7010    0.0740   -6.4850 nb        1 RBS     -0.703000
     16 N1          4.7290    0.5910   -5.3490 nh        1 RBS     -0.721300
     17 C5          5.7850    0.7550   -6.2770 ca        1 RBS      0.130600
     18 C4          5.7450    1.7640   -7.2620 ca        1 RBS     -0.140000
     19 C20         6.9460   -0.0430   -6.1630 ca        1 RBS     -0.140000
     20 C21         8.0290    0.1710   -7.0110 ca        1 RBS     -0.114500
     21 C22         7.9790    1.1660   -7.9850 ca        1 RBS     -0.142000
     22 C3          6.8360    1.9550   -8.1060 ca        1 RBS     -0.114500
     23 H111        2.8420    0.0480    1.4740 ha        1 RBS      0.132000
     24 H511        0.2800   -1.4680    2.4040 ha        1 RBS      0.133000
     25 H512        1.6940   -0.8970    3.4760 ha        1 RBS      0.133000
     26 HN11        2.9340    0.2190   -0.8020 hn        1 RBS      0.316500
     27 H8          3.7090    0.3100   -2.9740 ha        1 RBS      0.128000
     28 H13        -0.4740   -0.4760   -2.0980 ha        1 RBS      0.180000
     29 H17        -1.0100   -0.3800   -4.5010 ha        1 RBS      0.159000
     30 H19         1.4540    0.3710   -8.4090 h5        1 RBS      0.053100
     31 HN1         4.9840    0.0630   -4.5400 hn        1 RBS      0.423800
     32 H4          4.8550    2.4020   -7.3740 ha        1 RBS      0.140000
     33 H20         7.0060   -0.8380   -5.4050 ha        1 RBS      0.140000
     34 H21         8.9270   -0.4560   -6.9100 ha        1 RBS      0.133500
     35 H22         8.8350    1.3260   -8.6560 ha        1 RBS      0.134000
     36 H3          6.7910    2.7410   -8.8740 ha        1 RBS      0.133500
@<TRIPOS>BOND
     1    1    2 2   
     2    2    3 1   
     3    2    5 1   
     4    3    4 2   
     5    3   23 1   
     6    4   24 1   
     7    4   25 1   
     8    5    6 1   
     9    5   26 1   
    10    6    7 ar  
    11    6    8 ar  
    12    7   11 ar  
    13    7   27 1   
    14    8    9 ar  
    15    8   28 1   
    16    9   10 ar  
    17    9   29 1   
    18   10   11 ar  
    19   10   15 ar  
    20   11   12 ar  
    21   12   13 ar  
    22   12   16 1   
    23   13   14 ar  
    24   14   15 ar  
    25   14   30 1   
    26   16   17 1   
    27   16   31 1   
    28   17   18 ar  
    29   17   19 ar  
    30   18   22 ar  
    31   18   32 1   
    32   19   20 ar  
    33   19   33 1   
    34   20   21 ar  
    35   20   34 1   
    36   21   22 ar  
    37   21   35 1   
    38   22   36 1   
@<TRIPOS>SUBSTRUCTURE
     1 RBS         1 TEMP              0 ****  ****    0 ROOT
