@<TRIPOS>MOLECULE
RBS
   38    40     1     0     0
SMALL
bcc


@<TRIPOS>ATOM
      1 O61         3.7380   -0.1610   -0.9160 o         1 RBS     -0.458100
      2 C10         2.6640    0.3340   -0.5960 c         1 RBS      0.585300
      3 C11         1.8350    0.1160    0.5760 ce        1 RBS     -0.313200
      4 C51         2.2670   -0.6620    1.5850 c2        1 RBS      0.019000
      5 N11         2.1310    1.3730   -1.5990 n4        1 RBS     -0.560200
      6 C9          1.7650    0.7750   -2.8860 ca        1 RBS     -0.010400
      7 C8          2.7290    0.1690   -3.6800 ca        1 RBS     -0.068000
      8 C13         0.4050    0.8460   -3.3090 ca        1 RBS     -0.102000
      9 C17         0.0340    0.3220   -4.5200 ca        1 RBS     -0.103300
     10 C18         0.9990   -0.3120   -5.3690 ca        1 RBS      0.457600
     11 C7          2.3630   -0.3980   -4.9210 ca        1 RBS     -0.254600
     12 C6          3.2600   -1.0840   -5.8310 ca        1 RBS      0.559200
     13 N3          2.8660   -1.5700   -7.0070 nb        1 RBS     -0.653000
     14 C19         1.5280   -1.4070   -7.3370 ca        1 RBS      0.702900
     15 N2          0.5980   -0.8210   -6.5880 nb        1 RBS     -0.608000
     16 N1          4.6880   -1.2960   -5.4730 n4        1 RBS     -0.626100
     17 C5          5.5440   -0.1540   -5.8310 ca        1 RBS     -0.075400
     18 C4          6.2210    0.5420   -4.8120 ca        1 RBS     -0.103000
     19 C20         5.7230    0.1850   -7.1830 ca        1 RBS     -0.103000
     20 C21         6.5860    1.2320   -7.5060 ca        1 RBS     -0.097500
     21 C22         7.2630    1.9280   -6.5040 ca        1 RBS     -0.056000
     22 C3          7.0800    1.5790   -5.1620 ca        1 RBS     -0.097500
     23 H111        0.8440    0.6000    0.6170 ha        1 RBS      0.176000
     24 H511        3.2510   -1.1630    1.5840 ha        1 RBS      0.174000
     25 H512        1.6410   -0.8340    2.4790 ha        1 RBS      0.174000
     26 HN11        2.8680    2.0740   -1.7620 hn        1 RBS      0.472300
     27 H8          3.7810    0.1360   -3.3430 ha        1 RBS      0.160000
     28 H13        -0.3610    1.3270   -2.6720 ha        1 RBS      0.181000
     29 H17        -1.0200    0.3830   -4.8610 ha        1 RBS      0.215000
     30 H19         1.2280   -1.8230   -8.3320 h5        1 RBS      0.122100
     31 HN1         4.7470   -1.4750   -4.4620 hn        1 RBS      0.478800
     32 H4          6.1100    0.2670   -3.7510 ha        1 RBS      0.159000
     33 H20         5.2080   -0.3630   -7.9900 ha        1 RBS      0.159000
     34 H21         6.7370    1.5010   -8.5670 ha        1 RBS      0.181000
     35 H22         7.9520    2.7490   -6.7700 ha        1 RBS      0.185000
     36 H3          7.6300    2.1210   -4.3730 ha        1 RBS      0.181000
     37 H112        1.3110    1.8480   -1.2000 hn        1 RBS      0.472300
     38 H12         5.0490   -2.1280   -5.9770 hn        1 RBS      0.478800
@<TRIPOS>BOND
     1    1    2 2   
     2    2    3 1   
     3    2    5 1   
     4    3    4 2   
     5    3   23 1   
     6    4   24 1   
     7    4   25 1   
     8    5    6 1   
     9    5   26 1   
    10    5   37 1   
    11    6    7 ar  
    12    6    8 ar  
    13    7   11 ar  
    14    7   27 1   
    15    8    9 ar  
    16    8   28 1   
    17    9   10 ar  
    18    9   29 1   
    19   10   11 ar  
    20   10   15 ar  
    21   11   12 ar  
    22   12   13 ar  
    23   12   16 1   
    24   13   14 ar  
    25   14   15 ar  
    26   14   30 1   
    27   16   17 1   
    28   16   31 1   
    29   16   38 1   
    30   17   18 ar  
    31   17   19 ar  
    32   18   22 ar  
    33   18   32 1   
    34   19   20 ar  
    35   19   33 1   
    36   20   21 ar  
    37   20   34 1   
    38   21   22 ar  
    39   21   35 1   
    40   22   36 1   
@<TRIPOS>SUBSTRUCTURE
     1 RBS         1 TEMP              0 ****  ****    0 ROOT
