@<TRIPOS>MOLECULE
RBS
   36    38     1     0     0
SMALL
bcc


@<TRIPOS>ATOM
      1 O61        -0.9610   -1.4470   -3.9100 o         1 RBS     -0.590100
      2 C10        -0.3110   -2.2270   -3.1870 c         1 RBS      0.669300
      3 C11        -0.1390   -3.6620   -3.5470 ce        1 RBS     -0.247200
      4 C51        -0.6070   -4.1340   -4.7030 c2        1 RBS     -0.120000
      5 N11         0.2930   -1.8220   -2.0000 n         1 RBS     -0.471100
      6 C9          0.3020   -0.5330   -1.4440 ca        1 RBS      0.071600
      7 C8          1.2030   -0.2490   -0.4130 ca        1 RBS     -0.167000
      8 C13        -0.5960    0.4920   -1.8760 ca        1 RBS     -0.120000
      9 C17        -0.5870    1.7260   -1.2810 ca        1 RBS     -0.157300
     10 C18         0.3180    2.0320   -0.2190 ca        1 RBS      0.408600
     11 C7          1.2340    1.0190    0.1990 ca        1 RBS     -0.254600
     12 C6          2.1600    1.3860    1.2790 ca        1 RBS      0.682200
     13 N3          2.1100    2.6090    1.8470 nb        1 RBS     -0.758000
     14 C19         1.1600    3.4790    1.3600 ca        1 RBS      0.657900
     15 N2          0.2860    3.2810    0.3770 nb        1 RBS     -0.703000
     16 N1          3.0670    0.4170    1.7340 nh        1 RBS     -0.721300
     17 C5          4.0390    0.6840    2.7280 ca        1 RBS      0.130600
     18 C4          3.6740    1.1940    3.9910 ca        1 RBS     -0.140000
     19 C20         5.3920    0.3520    2.4900 ca        1 RBS     -0.140000
     20 C21         6.3420    0.5240    3.4920 ca        1 RBS     -0.114500
     21 C22         5.9740    1.0340    4.7360 ca        1 RBS     -0.142000
     22 C3          4.6430    1.3680    4.9770 ca        1 RBS     -0.114500
     23 H111        0.3800   -4.3130   -2.8260 ha        1 RBS      0.132000
     24 H511       -0.4950   -5.1890   -4.9900 ha        1 RBS      0.133000
     25 H512       -1.1310   -3.4920   -5.4280 ha        1 RBS      0.133000
     26 HN11        0.8390   -2.5000   -1.5160 hn        1 RBS      0.316500
     27 H8          1.8810   -1.0430   -0.0620 ha        1 RBS      0.128000
     28 H13        -1.3070    0.2890   -2.6960 ha        1 RBS      0.180000
     29 H17        -1.2900    2.5050   -1.6190 ha        1 RBS      0.159000
     30 H19         1.1490    4.4720    1.8580 h5        1 RBS      0.053100
     31 HN1         3.3880   -0.1980    1.0140 hn        1 RBS      0.423800
     32 H4          2.6290    1.4620    4.2070 ha        1 RBS      0.140000
     33 H20         5.7060   -0.0460    1.5140 ha        1 RBS      0.140000
     34 H21         7.3910    0.2600    3.2940 ha        1 RBS      0.133500
     35 H22         6.7310    1.1740    5.5210 ha        1 RBS      0.134000
     36 H3          4.3470    1.7720    5.9570 ha        1 RBS      0.133500
@<TRIPOS>BOND
     1    1    2 2   
     2    2    3 1   
     3    2    5 1   
     4    3    4 2   
     5    3   23 1   
     6    4   24 1   
     7    4   25 1   
     8    5    6 1   
     9    5   26 1   
    10    6    7 ar  
    11    6    8 ar  
    12    7   11 ar  
    13    7   27 1   
    14    8    9 ar  
    15    8   28 1   
    16    9   10 ar  
    17    9   29 1   
    18   10   11 ar  
    19   10   15 ar  
    20   11   12 ar  
    21   12   13 ar  
    22   12   16 1   
    23   13   14 ar  
    24   14   15 ar  
    25   14   30 1   
    26   16   17 1   
    27   16   31 1   
    28   17   18 ar  
    29   17   19 ar  
    30   18   22 ar  
    31   18   32 1   
    32   19   20 ar  
    33   19   33 1   
    34   20   21 ar  
    35   20   34 1   
    36   21   22 ar  
    37   21   35 1   
    38   22   36 1   
@<TRIPOS>SUBSTRUCTURE
     1 RBS         1 TEMP              0 ****  ****    0 ROOT
