@<TRIPOS>MOLECULE
RBV
   30    31     1     0     0
SMALL
bcc


@<TRIPOS>ATOM
      1 N1         -0.2270    0.2720   -0.2030 na        1 RBV     -0.025400
      2 N2          1.0690    0.3990   -0.4200 nc        1 RBV     -0.359800
      3 C3          1.6650   -0.0640    0.7400 cd        1 RBV      0.373500
      4 N3          3.5280   -0.8120    2.2120 n4        1 RBV     -0.748400
      5 O3          4.0080    0.3270    0.2470 o         1 RBV     -0.392100
      6 N4          0.7160   -0.5070    1.6970 nd        1 RBV     -0.680000
      7 C5         -0.4600   -0.2960    1.0840 cc        1 RBV      0.465400
      8 C6          3.1030   -0.1060    0.9390 c         1 RBV      0.517600
      9 C1'        -1.2910    0.4850   -1.2140 c3        1 RBV      0.214800
     10 C2'        -0.9870    1.6280   -2.2350 c3        1 RBV      0.096100
     11 O2'        -2.1100    2.4620   -2.3430 oh        1 RBV     -0.569800
     12 C3'        -0.6630    0.8840   -3.5570 c3        1 RBV      0.090100
     13 O3'        -1.6220    1.2130   -4.5420 oh        1 RBV     -0.584800
     14 C4'        -0.8360   -0.6140   -3.2430 c3        1 RBV      0.085100
     15 O4'        -1.4830   -0.7060   -1.9580 os        1 RBV     -0.392600
     16 C5'         0.4900   -1.3800   -3.2010 c3        1 RBV      0.112400
     17 O5'         0.6010   -2.1490   -2.0210 oh        1 RBV     -0.603800
     18 HN3         4.5510   -0.8220    2.2850 hn        1 RBV      0.474800
     19 HN3A        3.1280   -0.3290    3.0250 hn        1 RBV      0.474800
     20 H5         -1.4640   -0.5040    1.4810 h5        1 RBV      0.108100
     21 H1'        -2.2440    0.6640   -0.6340 h2        1 RBV      0.130700
     22 H2'        -0.1530    2.3070   -1.9130 h1        1 RBV      0.117700
     23 HO2'       -2.7920    1.9980   -2.8560 ho        1 RBV      0.434000
     24 H3'         0.3730    1.1240   -3.9100 h1        1 RBV      0.081700
     25 HO3'       -1.4220    2.1080   -4.8510 ho        1 RBV      0.432000
     26 H4'        -1.5640   -1.0950   -3.9550 h1        1 RBV      0.122700
     27 H5'         1.3740   -0.6880   -3.1690 h1        1 RBV      0.066700
     28 H5'A        0.5670   -2.0380   -4.1080 h1        1 RBV      0.066700
     29 HO5'       -0.1580   -2.7460   -1.9940 ho        1 RBV      0.417000
     30 H33         3.1740   -1.7760    2.2030 hn        1 RBV      0.474800
@<TRIPOS>BOND
     1    1    2 1   
     2    1    7 1   
     3    1    9 1   
     4    2    3 2   
     5    3    6 1   
     6    3    8 1   
     7    4    8 1   
     8    4   18 1   
     9    4   19 1   
    10    4   30 1   
    11    5    8 2   
    12    6    7 2   
    13    7   20 1   
    14    9   10 1   
    15    9   15 1   
    16    9   21 1   
    17   10   11 1   
    18   10   12 1   
    19   10   22 1   
    20   11   23 1   
    21   12   13 1   
    22   12   14 1   
    23   12   24 1   
    24   13   25 1   
    25   14   15 1   
    26   14   16 1   
    27   14   26 1   
    28   16   17 1   
    29   16   27 1   
    30   16   28 1   
    31   17   29 1   
@<TRIPOS>SUBSTRUCTURE
     1 RBV         1 TEMP              0 ****  ****    0 ROOT
