@<TRIPOS>MOLECULE
RBV
   29    30     1     0     0
SMALL
bcc


@<TRIPOS>ATOM
      1 N1          0.4490   -0.6540   -0.6570 na        1 RBV     -0.078400
      2 N2          1.0040    0.0470    0.3400 nc        1 RBV     -0.457800
      3 C3          2.2740    0.3260   -0.0920 cd        1 RBV      0.468500
      4 N3          4.5850    1.0100    0.3420 n         1 RBV     -0.657000
      5 O3          2.9210    1.7820    1.6940 o         1 RBV     -0.589100
      6 N4          2.5260   -0.1870   -1.3890 nd        1 RBV     -0.677000
      7 C5          1.3690   -0.7820   -1.7270 cc        1 RBV      0.427400
      8 C6          3.2700    1.0980    0.7130 c         1 RBV      0.607600
      9 C1'        -0.9480   -1.0840   -0.7080 c3        1 RBV      0.262800
     10 C2'        -1.4880   -1.6310    0.6460 c3        1 RBV      0.085100
     11 O2'        -2.0890   -2.8770    0.3390 oh        1 RBV     -0.599800
     12 C3'        -2.5470   -0.6020    1.1080 c3        1 RBV      0.091100
     13 O3'        -3.7870   -1.2310    1.3370 oh        1 RBV     -0.585800
     14 C4'        -2.6140    0.4510   -0.0100 c3        1 RBV      0.062100
     15 O4'        -1.7930   -0.0020   -1.1010 os        1 RBV     -0.416600
     16 C5'        -2.1440    1.8300    0.4510 c3        1 RBV      0.115400
     17 O5'        -2.2830    2.7760   -0.5870 oh        1 RBV     -0.589800
     18 HN3         4.8640    0.5310   -0.4760 hn        1 RBV      0.322500
     19 HN3A        5.2530    1.5520    0.8310 hn        1 RBV      0.322500
     20 H5          1.1410   -1.3040   -2.6630 h5        1 RBV      0.079100
     21 H1'        -1.0270   -1.8540   -1.5320 h2        1 RBV      0.116700
     22 H2'        -0.6900   -1.7720    1.4210 h1        1 RBV      0.091700
     23 HO2'       -2.4990   -3.1950    1.1560 ho        1 RBV      0.430000
     24 H3'        -2.2710   -0.1440    2.0960 h1        1 RBV      0.110700
     25 HO3'       -4.0880   -1.6050    0.4960 ho        1 RBV      0.416000
     26 H4'        -3.6490    0.5280   -0.4460 h1        1 RBV      0.094700
     27 H5'        -2.8120    2.2010    1.2740 h1        1 RBV      0.067700
     28 H5'A       -1.0810    1.7890    0.8080 h1        1 RBV      0.067700
     29 HO5'       -1.7200    2.4830   -1.3150 ho        1 RBV      0.411000
@<TRIPOS>BOND
     1    1    2 1   
     2    1    7 1   
     3    1    9 1   
     4    2    3 2   
     5    3    6 1   
     6    3    8 1   
     7    4    8 1   
     8    4   18 1   
     9    4   19 1   
    10    5    8 2   
    11    6    7 2   
    12    7   20 1   
    13    9   10 1   
    14    9   15 1   
    15    9   21 1   
    16   10   11 1   
    17   10   12 1   
    18   10   22 1   
    19   11   23 1   
    20   12   13 1   
    21   12   14 1   
    22   12   24 1   
    23   13   25 1   
    24   14   15 1   
    25   14   16 1   
    26   14   26 1   
    27   16   17 1   
    28   16   27 1   
    29   16   28 1   
    30   17   29 1   
@<TRIPOS>SUBSTRUCTURE
     1 RBV         1 TEMP              0 ****  ****    0 ROOT
