@<TRIPOS>MOLECULE
RBV
   30    31     1     0     0
SMALL
bcc


@<TRIPOS>ATOM
      1 N1         -0.2430    0.2460   -0.2040 na        1 RBV     -0.025400
      2 N2          1.0540    0.3930   -0.4000 nc        1 RBV     -0.359800
      3 C3          1.6400   -0.0860    0.7580 cd        1 RBV      0.373500
      4 N3          3.4910   -0.8410    2.2420 n4        1 RBV     -0.748400
      5 O3          3.9840    0.3440    0.3070 o         1 RBV     -0.392100
      6 N4          0.6820   -0.5590    1.6930 nd        1 RBV     -0.680000
      7 C5         -0.4870   -0.3500    1.0690 cc        1 RBV      0.465400
      8 C6          3.0750   -0.1140    0.9770 c         1 RBV      0.517600
      9 C1'        -1.2960    0.4660   -1.2240 c3        1 RBV      0.214800
     10 C2'        -0.9930    1.6330   -2.2190 c3        1 RBV      0.096100
     11 O2'        -2.1240    2.4540   -2.3270 oh        1 RBV     -0.569800
     12 C3'        -0.6410    0.9190   -3.5500 c3        1 RBV      0.090100
     13 O3'        -1.5900    1.2560   -4.5420 oh        1 RBV     -0.584800
     14 C4'        -0.7990   -0.5880   -3.2680 c3        1 RBV      0.085100
     15 O4'        -1.4630   -0.7120   -1.9940 os        1 RBV     -0.392600
     16 C5'         0.5350   -1.3380   -3.2230 c3        1 RBV      0.112400
     17 O5'         0.6400   -2.1290   -2.0570 oh        1 RBV     -0.603800
     18 HN3         3.0740   -0.3790    3.0580 hn        1 RBV      0.474800
     19 HN3A        4.5130   -0.8390    2.3290 hn        1 RBV      0.474800
     20 H5         -1.4940   -0.5790    1.4470 h5        1 RBV      0.108100
     21 H1'        -2.2590    0.6220   -0.6550 h2        1 RBV      0.130700
     22 H2'        -0.1720    2.3150   -1.8720 h1        1 RBV      0.117700
     23 HO2'       -2.7930    1.9920   -2.8580 ho        1 RBV      0.434000
     24 H3'         0.3970    1.1780   -3.8840 h1        1 RBV      0.081700
     25 HO3'       -1.3970    2.1580   -4.8320 ho        1 RBV      0.432000
     26 H4'        -1.5120   -1.0620   -4.0000 h1        1 RBV      0.122700
     27 H5'         1.4100   -0.6360   -3.1650 h1        1 RBV      0.066700
     28 H5'A        0.6330   -1.9770   -4.1410 h1        1 RBV      0.066700
     29 HO5'       -0.1130   -2.7360   -2.0520 ho        1 RBV      0.417000
     30 H33         3.1490   -1.8080    2.2080 hn        1 RBV      0.474800
@<TRIPOS>BOND
     1    1    2 1   
     2    1    7 1   
     3    1    9 1   
     4    2    3 2   
     5    3    6 1   
     6    3    8 1   
     7    4    8 1   
     8    4   18 1   
     9    4   19 1   
    10    4   30 1   
    11    5    8 2   
    12    6    7 2   
    13    7   20 1   
    14    9   10 1   
    15    9   15 1   
    16    9   21 1   
    17   10   11 1   
    18   10   12 1   
    19   10   22 1   
    20   11   23 1   
    21   12   13 1   
    22   12   14 1   
    23   12   24 1   
    24   13   25 1   
    25   14   15 1   
    26   14   16 1   
    27   14   26 1   
    28   16   17 1   
    29   16   27 1   
    30   16   28 1   
    31   17   29 1   
@<TRIPOS>SUBSTRUCTURE
     1 RBV         1 TEMP              0 ****  ****    0 ROOT
