@<TRIPOS>MOLECULE
RBV
   30    31     1     0     0
SMALL
bcc


@<TRIPOS>ATOM
      1 N1         -0.2370    0.2690   -0.2080 na        1 RBV     -0.025400
      2 N2          1.0610    0.3930   -0.4100 nc        1 RBV     -0.359800
      3 C3          1.6430   -0.0760    0.7550 cd        1 RBV      0.373500
      4 N3          3.4870   -0.8360    2.2450 nz        1 RBV     -0.748400
      5 O3          3.9930    0.3110    0.2900 o         1 RBV     -0.392100
      6 N4          0.6810   -0.5210    1.6990 nd        1 RBV     -0.680000
      7 C5         -0.4860   -0.3040    1.0740 cc        1 RBV      0.465400
      8 C6          3.0780   -0.1230    0.9700 c         1 RBV      0.517600
      9 C1'        -1.2890    0.4890   -1.2290 c3        1 RBV      0.214800
     10 C2'        -0.9720    1.6360   -2.2420 c3        1 RBV      0.096100
     11 O2'        -2.0910    2.4730   -2.3590 oh        1 RBV     -0.569800
     12 C3'        -0.6340    0.8970   -3.5630 c3        1 RBV      0.090100
     13 O3'        -1.5810    1.2330   -4.5580 oh        1 RBV     -0.584800
     14 C4'        -0.8140   -0.6020   -3.2580 c3        1 RBV      0.085100
     15 O4'        -1.4760   -0.6980   -1.9810 os        1 RBV     -0.392600
     16 C5'         0.5090   -1.3720   -3.2050 c3        1 RBV      0.112400
     17 O5'         0.6050   -2.1460   -2.0270 oh        1 RBV     -0.603800
     18 HN3         3.1300   -1.7980    2.2270 hn        1 RBV      0.474800
     19 HN3A        3.0800   -0.3550    3.0550 hn        1 RBV      0.474800
     20 H5         -1.4950   -0.5110    1.4590 h5        1 RBV      0.108100
     21 H1'        -2.2490    0.6680   -0.6600 h2        1 RBV      0.130700
     22 H2'        -0.1400    2.3110   -1.9070 h1        1 RBV      0.117700
     23 HO2'       -2.7680    2.0130   -2.8810 ho        1 RBV      0.434000
     24 H3'         0.4070    1.1360   -3.9030 h1        1 RBV      0.081700
     25 HO3'       -1.3750    2.1280   -4.8610 ho        1 RBV      0.432000
     26 H4'        -1.5350   -1.0770   -3.9810 h1        1 RBV      0.122700
     27 H5'         0.5950   -2.0260   -4.1130 h1        1 RBV      0.066700
     28 H5'A        1.3950   -0.6820   -3.1600 h1        1 RBV      0.066700
     29 HO5'       -0.1560   -2.7420   -2.0110 ho        1 RBV      0.417000
     30 H33         4.5090   -0.8480    2.3290 hn        1 RBV      0.474800
@<TRIPOS>BOND
     1    1    2 1   
     2    1    7 1   
     3    1    9 1   
     4    2    3 2   
     5    3    6 1   
     6    3    8 1   
     7    4    8 1   
     8    4   18 1   
     9    4   19 1   
    10    4   30 1   
    11    5    8 2   
    12    6    7 2   
    13    7   20 1   
    14    9   10 1   
    15    9   15 1   
    16    9   21 1   
    17   10   11 1   
    18   10   12 1   
    19   10   22 1   
    20   11   23 1   
    21   12   13 1   
    22   12   14 1   
    23   12   24 1   
    24   13   25 1   
    25   14   15 1   
    26   14   16 1   
    27   14   26 1   
    28   16   17 1   
    29   16   27 1   
    30   16   28 1   
    31   17   29 1   
@<TRIPOS>SUBSTRUCTURE
     1 RBV         1 TEMP              0 ****  ****    0 ROOT
