@<TRIPOS>MOLECULE
RBZ
   41    43     1     0     0
SMALL
bcc


@<TRIPOS>ATOM
      1 N3          2.5170    0.5530   -2.1430 nc        1 RBZ     -0.624100
      2 N1          1.6180   -0.3470   -0.2200 na        1 RBZ     -0.155300
      3 C2          1.4070    0.0760   -1.5450 cd        1 RBZ      0.458700
      4 C7A         2.9660   -0.0970    0.0580 ca        1 RBZ     -0.064200
      5 C3A         3.5280    0.4620   -1.1670 ca        1 RBZ      0.068400
      6 C4          4.8830    0.8020   -1.2020 ca        1 RBZ     -0.085000
      7 C5          5.6650    0.6020   -0.0680 ca        1 RBZ     -0.123300
      8 C6          5.1100    0.0610    1.1180 ca        1 RBZ     -0.094300
      9 C7          3.7650   -0.2910    1.1880 ca        1 RBZ     -0.117000
     10 C8          7.1030    0.9620   -0.0990 c3        1 RBZ     -0.032800
     11 C9          5.9750   -0.1320    2.3060 c3        1 RBZ     -0.036800
     12 P          -4.8940   -0.6180    0.0150 p5        1 RBZ      1.331900
     13 O1P        -4.7380   -1.5600    1.1770 o         1 RBZ     -0.927500
     14 O2P        -6.2080    0.0680   -0.1800 o         1 RBZ     -0.927500
     15 O3P        -4.1580   -1.1010   -1.2210 o         1 RBZ     -0.927500
     16 O5'        -3.8180    0.6790    0.4640 os        1 RBZ     -0.562200
     17 C5'        -2.7210    0.3320    1.2020 c3        1 RBZ      0.224400
     18 C4'        -1.4890    0.1040    0.2880 c3        1 RBZ      0.054100
     19 O4'        -0.2850    0.1640    1.0950 os        1 RBZ     -0.428600
     20 C3'        -1.5340   -1.2840   -0.3820 c3        1 RBZ      0.088100
     21 O3'        -1.4670   -1.1620   -1.7880 oh        1 RBZ     -0.698800
     22 C2'        -0.2740   -2.0140    0.1190 c3        1 RBZ      0.111100
     23 O2'         0.3830   -2.8170   -0.8270 oh        1 RBZ     -0.609800
     24 C1'         0.6170   -0.8610    0.7030 c3        1 RBZ      0.211800
     25 H2          0.3990   -0.0080   -1.9990 h5        1 RBZ      0.117800
     26 H4          5.3200    1.2230   -2.1190 ha        1 RBZ      0.127000
     27 H7          3.3390   -0.7060    2.1120 ha        1 RBZ      0.132000
     28 H81         7.3290    1.7310    0.6820 hc        1 RBZ      0.025700
     29 H82         7.7350    0.0620    0.1090 hc        1 RBZ      0.025700
     30 H83         7.3970    1.3750   -1.0950 hc        1 RBZ      0.025700
     31 H91         6.8220   -0.8220    2.0630 hc        1 RBZ      0.028700
     32 H92         6.4100    0.8460    2.6340 hc        1 RBZ      0.028700
     33 H93         5.4020   -0.5660    3.1610 hc        1 RBZ      0.028700
     34 H5'1       -2.9100   -0.6020    1.8040 h1        1 RBZ      0.009700
     35 H5'2       -2.4550    1.1790    1.9000 h1        1 RBZ      0.009700
     36 H4'        -1.4170    0.9160   -0.4820 h1        1 RBZ      0.056700
     37 H3'        -2.5060   -1.8050   -0.0970 h1        1 RBZ      0.171700
     38 HO'3       -2.4080   -1.1040   -2.0810 ho        1 RBZ      0.509000
     39 H2'        -0.5320   -2.6970    0.9740 h1        1 RBZ      0.077700
     40 HO'2        0.1480   -2.4860   -1.7080 ho        1 RBZ      0.427000
     41 H1'         1.1610   -1.1780    1.6380 h2        1 RBZ      0.065700
@<TRIPOS>BOND
     1    1    3 2   
     2    1    5 1   
     3    2    3 1   
     4    2    4 1   
     5    2   24 1   
     6    3   25 1   
     7    4    5 ar  
     8    4    9 ar  
     9    5    6 ar  
    10    6    7 ar  
    11    6   26 1   
    12    7    8 ar  
    13    7   10 1   
    14    8    9 ar  
    15    8   11 1   
    16    9   27 1   
    17   10   28 1   
    18   10   29 1   
    19   10   30 1   
    20   11   31 1   
    21   11   32 1   
    22   11   33 1   
    23   12   13 1   
    24   12   14 1   
    25   12   15 1   
    26   12   16 1   
    27   16   17 1   
    28   17   18 1   
    29   17   34 1   
    30   17   35 1   
    31   18   19 1   
    32   18   20 1   
    33   18   36 1   
    34   19   24 1   
    35   20   21 1   
    36   20   22 1   
    37   20   37 1   
    38   21   38 1   
    39   22   23 1   
    40   22   24 1   
    41   22   39 1   
    42   23   40 1   
    43   24   41 1   
@<TRIPOS>SUBSTRUCTURE
     1 RBZ         1 TEMP              0 ****  ****    0 ROOT
