@<TRIPOS>MOLECULE
RBZ
   41    43     1     0     0
SMALL
bcc


@<TRIPOS>ATOM
      1 N3          0.1820    0.8470    0.1270 nc        1 RBZ     -0.624100
      2 N1          1.9240    0.4940    1.5960 na        1 RBZ     -0.155300
      3 C2          1.5200    0.7930    0.2810 cd        1 RBZ      0.458700
      4 C7A         0.7490    0.3180    2.3340 ca        1 RBZ     -0.064200
      5 C3A        -0.3470    0.5530    1.3990 ca        1 RBZ      0.068400
      6 C4         -1.6640    0.4650    1.8570 ca        1 RBZ     -0.085000
      7 C5         -1.9010    0.1510    3.1930 ca        1 RBZ     -0.123300
      8 C6         -0.8310   -0.0780    4.0910 ca        1 RBZ     -0.094300
      9 C7          0.4940    0.0040    3.6710 ca        1 RBZ     -0.117000
     10 C8         -3.2960    0.0540    3.6840 c3        1 RBZ     -0.032800
     11 C9         -1.1250   -0.4140    5.5050 c3        1 RBZ     -0.036800
     12 P           7.8090   -0.2680   -1.1110 p5        1 RBZ      1.331900
     13 O1P         8.3850   -0.0510    0.2600 o         1 RBZ     -0.927500
     14 O2P         8.6610   -0.9220   -2.1510 o         1 RBZ     -0.927500
     15 O3P         6.9150    0.8780   -1.5480 o         1 RBZ     -0.927500
     16 O5'         6.5700   -1.4530   -0.7920 os        1 RBZ     -0.562200
     17 C5'         5.9740   -1.3950    0.4370 c3        1 RBZ      0.224400
     18 C4'         4.6660   -0.5650    0.3780 c3        1 RBZ      0.054100
     19 O4'         3.8600   -0.8730    1.5450 os        1 RBZ     -0.428600
     20 C3'         4.9570    0.9490    0.3970 c3        1 RBZ      0.088100
     21 O3'         4.3850    1.5820   -0.7290 oh        1 RBZ     -0.698800
     22 C2'         4.2710    1.4760    1.6710 c3        1 RBZ      0.111100
     23 O2'         3.6530    2.7310    1.5570 oh        1 RBZ     -0.609800
     24 C1'         3.2890    0.3180    2.0710 c3        1 RBZ      0.211800
     25 H2          2.2800    0.9640   -0.5060 h5        1 RBZ      0.117800
     26 H4         -2.4990    0.6400    1.1650 ha        1 RBZ      0.127000
     27 H7          1.3200   -0.1800    4.3720 ha        1 RBZ      0.132000
     28 H81        -3.4960   -0.9690    4.0900 hc        1 RBZ      0.025700
     29 H82        -4.0300    0.2570    2.8660 hc        1 RBZ      0.025700
     30 H83        -3.4730    0.7920    4.5060 hc        1 RBZ      0.025700
     31 H91        -1.7140    0.4060    5.9860 hc        1 RBZ      0.028700
     32 H92        -0.1860   -0.5640    6.0930 hc        1 RBZ      0.028700
     33 H93        -1.7300   -1.3540    5.5640 hc        1 RBZ      0.028700
     34 H5'1        6.6630   -0.9410    1.2050 h1        1 RBZ      0.009700
     35 H5'2        5.6850   -2.4360    0.7630 h1        1 RBZ      0.009700
     36 H4'         4.0650   -0.8440   -0.5270 h1        1 RBZ      0.056700
     37 H3'         6.0850    1.1120    0.3870 h1        1 RBZ      0.171700
     38 HO'3        5.0930    1.5590   -1.4170 ho        1 RBZ      0.509000
     39 H2'         5.0180    1.5770    2.5050 h1        1 RBZ      0.077700
     40 HO'2        3.4500    2.8760    0.6210 ho        1 RBZ      0.427000
     41 H1'         3.2340    0.1740    3.1870 h2        1 RBZ      0.065700
@<TRIPOS>BOND
     1    1    3 2   
     2    1    5 1   
     3    2    3 1   
     4    2    4 1   
     5    2   24 1   
     6    3   25 1   
     7    4    5 ar  
     8    4    9 ar  
     9    5    6 ar  
    10    6    7 ar  
    11    6   26 1   
    12    7    8 ar  
    13    7   10 1   
    14    8    9 ar  
    15    8   11 1   
    16    9   27 1   
    17   10   28 1   
    18   10   29 1   
    19   10   30 1   
    20   11   31 1   
    21   11   32 1   
    22   11   33 1   
    23   12   13 1   
    24   12   14 1   
    25   12   15 1   
    26   12   16 1   
    27   16   17 1   
    28   17   18 1   
    29   17   34 1   
    30   17   35 1   
    31   18   19 1   
    32   18   20 1   
    33   18   36 1   
    34   19   24 1   
    35   20   21 1   
    36   20   22 1   
    37   20   37 1   
    38   21   38 1   
    39   22   23 1   
    40   22   24 1   
    41   22   39 1   
    42   23   40 1   
    43   24   41 1   
@<TRIPOS>SUBSTRUCTURE
     1 RBZ         1 TEMP              0 ****  ****    0 ROOT
