@<TRIPOS>MOLECULE
RC1
   35    35     1     0     0
SMALL
bcc


@<TRIPOS>ATOM
      1 C1         -1.4250   -2.3770   -1.1260 ce        1 RC1     -0.176400
      2 C2         -2.3670   -1.4660   -0.8340 c2        1 RC1     -0.182200
      3 C3         -2.0650   -0.0130   -0.5950 c3        1 RC1      0.221300
      4 C4         -0.6670    0.1760    0.0990 c3        1 RC1      0.119100
      5 C5          0.3920   -0.9610   -0.0400 c3        1 RC1      0.144100
      6 C6          0.0160   -1.9960   -1.1130 c3        1 RC1     -0.029200
      7 C7         -1.8040   -3.7750   -1.5510 c         1 RC1      0.918800
      8 O1         -3.0620    0.6100    0.1570 os        1 RC1     -0.610200
      9 O2         -0.8340    0.3660    1.5060 oh        1 RC1     -0.644800
     10 O3          1.6830   -0.4320   -0.4160 os        1 RC1     -0.382600
     11 O4         -2.3630   -4.5910   -0.7420 o         1 RC1     -0.921300
     12 O5         -1.6080   -4.1620   -2.7540 o         1 RC1     -0.921300
     13 P1         -4.2970    1.5850   -0.5210 p5        1 RC1      1.345900
     14 O6         -3.8820    1.9740   -1.9190 o         1 RC1     -0.961167
     15 O7         -5.5560    0.7420   -0.4750 o         1 RC1     -0.961167
     16 O8         -4.3770    2.7500    0.4470 o         1 RC1     -0.961167
     17 C8          2.7200   -0.4200    0.5500 c3        1 RC1     -0.062400
     18 C9          2.4700    0.6350    1.6000 c3        1 RC1     -0.099100
     19 C10         2.9800   -1.7760    1.2290 c         1 RC1      0.934600
     20 O9          2.9530   -2.8800    0.5910 o         1 RC1     -0.938300
     21 O10         3.2520   -1.8320    2.4850 o         1 RC1     -0.938300
     22 P2          4.1280    0.5990   -0.4270 p5        1 RC1      1.221700
     23 O11         5.2730    0.7380    0.5660 o         1 RC1     -0.960167
     24 O12         3.5540    1.9680   -0.7290 o         1 RC1     -0.960167
     25 O13         4.5940   -0.1160   -1.6750 o         1 RC1     -0.960167
     26 H2         -3.4320   -1.7400   -0.7970 ha        1 RC1      0.104000
     27 H3         -2.0190    0.4960   -1.6060 h1        1 RC1      0.037700
     28 H4         -0.2140    1.1220   -0.3140 h1        1 RC1      0.034700
     29 H5          0.4730   -1.4760    0.9560 h1        1 RC1      0.054700
     30 H61         0.2880   -1.5780   -2.1200 hc        1 RC1      0.046700
     31 H62         0.6640   -2.8960   -0.9440 hc        1 RC1      0.046700
     32 HO2        -1.6960    0.7800    1.6360 ho        1 RC1      0.402000
     33 H91         1.6440    0.3520    2.2980 hc        1 RC1      0.011700
     34 H92         3.4170    0.7680    2.1780 hc        1 RC1      0.011700
     35 H93         2.2050    1.5980    1.0950 hc        1 RC1      0.011700
@<TRIPOS>BOND
     1    1    2 2   
     2    1    6 1   
     3    1    7 1   
     4    2    3 1   
     5    2   26 1   
     6    3    4 1   
     7    3    8 1   
     8    3   27 1   
     9    4    5 1   
    10    4    9 1   
    11    4   28 1   
    12    5    6 1   
    13    5   10 1   
    14    5   29 1   
    15    6   30 1   
    16    6   31 1   
    17    7   11 1   
    18    7   12 1   
    19    8   13 1   
    20    9   32 1   
    21   10   17 1   
    22   13   14 1   
    23   13   15 1   
    24   13   16 1   
    25   17   18 1   
    26   17   19 1   
    27   17   22 1   
    28   18   33 1   
    29   18   34 1   
    30   18   35 1   
    31   19   20 1   
    32   19   21 1   
    33   22   23 1   
    34   22   24 1   
    35   22   25 1   
@<TRIPOS>SUBSTRUCTURE
     1 RC1         1 TEMP              0 ****  ****    0 ROOT
