@<TRIPOS>MOLECULE
RC1
   35    35     1     0     0
SMALL
bcc


@<TRIPOS>ATOM
      1 C1          0.0050   -0.8990    0.4280 ce        1 RC1     -0.176400
      2 C2          1.2850   -0.5870    0.1660 c2        1 RC1     -0.182200
      3 C3          2.2020    0.0520    1.1710 c3        1 RC1      0.221300
      4 C4          1.4190    1.0340    2.1180 c3        1 RC1      0.119100
      5 C5         -0.1190    0.8360    2.2880 c3        1 RC1      0.144100
      6 C6         -0.6100   -0.5090    1.7280 c3        1 RC1     -0.029200
      7 C7         -0.8090   -1.7170   -0.5450 c         1 RC1      0.918800
      8 O1          3.2620    0.7200    0.5580 os        1 RC1     -0.610200
      9 O2          1.5790    2.3830    1.6740 oh        1 RC1     -0.644800
     10 O3         -0.4990    0.8630    3.6820 os        1 RC1     -0.382600
     11 O4         -1.1400   -1.2570   -1.6910 o         1 RC1     -0.921300
     12 O5         -1.1520   -2.9150   -0.2570 o         1 RC1     -0.921300
     13 P1          4.8400    0.0680    0.4110 p5        1 RC1      1.345900
     14 O6          4.9700   -1.0830    1.3790 o         1 RC1     -0.961167
     15 O7          4.9800   -0.3430   -1.0410 o         1 RC1     -0.961167
     16 O8          5.7270    1.2540    0.7380 o         1 RC1     -0.961167
     17 C8         -1.2090    1.9890    4.1710 c3        1 RC1     -0.062400
     18 C9         -0.3050    3.1930    4.2800 c3        1 RC1     -0.099100
     19 C10        -2.4660    2.3550    3.3630 c         1 RC1      0.934600
     20 O9         -3.2600    1.4760    2.8910 o         1 RC1     -0.938300
     21 O10        -2.7630    3.5880    3.1490 o         1 RC1     -0.938300
     22 P2         -1.2440    1.5880    6.1230 p5        1 RC1      1.221700
     23 O11        -1.9260    2.7910    6.7590 o         1 RC1     -0.960167
     24 O12         0.1960    1.5200    6.5880 o         1 RC1     -0.960167
     25 O13        -2.0090    0.3200    6.4370 o         1 RC1     -0.960167
     26 H2          1.7420   -0.8290   -0.8040 ha        1 RC1      0.104000
     27 H3          2.6330   -0.7760    1.8140 h1        1 RC1      0.037700
     28 H4          1.8920    0.9610    3.1390 h1        1 RC1      0.034700
     29 H5         -0.6330    1.6730    1.7420 h1        1 RC1      0.054700
     30 H61        -0.3930   -1.3100    2.4860 hc        1 RC1      0.046700
     31 H62        -1.7260   -0.4380    1.6350 hc        1 RC1      0.046700
     32 HO2         2.4350    2.4360    1.2300 ho        1 RC1      0.402000
     33 H91        -0.8380    3.9610    4.8910 hc        1 RC1      0.011700
     34 H92        -0.0490    3.6230    3.2810 hc        1 RC1      0.011700
     35 H93         0.6400    2.8950    4.8000 hc        1 RC1      0.011700
@<TRIPOS>BOND
     1    1    2 2   
     2    1    6 1   
     3    1    7 1   
     4    2    3 1   
     5    2   26 1   
     6    3    4 1   
     7    3    8 1   
     8    3   27 1   
     9    4    5 1   
    10    4    9 1   
    11    4   28 1   
    12    5    6 1   
    13    5   10 1   
    14    5   29 1   
    15    6   30 1   
    16    6   31 1   
    17    7   11 1   
    18    7   12 1   
    19    8   13 1   
    20    9   32 1   
    21   10   17 1   
    22   13   14 1   
    23   13   15 1   
    24   13   16 1   
    25   17   18 1   
    26   17   19 1   
    27   17   22 1   
    28   18   33 1   
    29   18   34 1   
    30   18   35 1   
    31   19   20 1   
    32   19   21 1   
    33   22   23 1   
    34   22   24 1   
    35   22   25 1   
@<TRIPOS>SUBSTRUCTURE
     1 RC1         1 TEMP              0 ****  ****    0 ROOT
