@<TRIPOS>MOLECULE
RC1
   35    35     1     0     0
SMALL
bcc


@<TRIPOS>ATOM
      1 C1          0.0490   -0.7470    0.3610 ce        1 RC1     -0.181400
      2 C2          1.3150   -0.3980    0.0800 c2        1 RC1     -0.186200
      3 C3          2.3290    0.1490    1.0560 c3        1 RC1      0.265300
      4 C4          1.6320    0.5780    2.3930 c3        1 RC1      0.137100
      5 C5          0.0850    0.7500    2.3840 c3        1 RC1      0.104100
      6 C6         -0.5720   -0.4420    1.6820 c3        1 RC1     -0.038200
      7 C7         -0.7730   -1.5270   -0.6390 c         1 RC1      0.919800
      8 O1          3.1600    1.0980    0.4800 os        1 RC1     -0.570200
      9 O2          2.2340    1.7560    2.9010 oh        1 RC1     -0.615800
     10 O3         -0.3400    0.8070    3.7650 os        1 RC1     -0.390600
     11 O4         -1.3050   -0.9680   -1.6560 o         1 RC1     -0.922300
     12 O5         -0.9240   -2.7910   -0.5000 o         1 RC1     -0.922300
     13 P1          4.7510    0.6800   -0.0130 p5        1 RC1      1.340900
     14 O6          5.1940   -0.5200    0.7970 o         1 RC1     -0.964167
     15 O7          4.6440    0.3780   -1.4960 o         1 RC1     -0.964167
     16 O8          5.5910    1.9190    0.2310 o         1 RC1     -0.964167
     17 C8         -1.2800    1.7820    4.1710 c3        1 RC1     -0.066400
     18 C9         -0.7970    3.1910    3.9350 c3        1 RC1     -0.095100
     19 C10        -2.6920    1.6140    3.5870 c         1 RC1      0.936600
     20 O9         -3.2640    0.4810    3.4740 o         1 RC1     -0.938800
     21 O10        -3.3640    2.6510    3.2260 o         1 RC1     -0.938800
     22 P2         -0.8370    1.7920    6.1500 p5        1 RC1      1.219700
     23 O11        -1.6870    2.9050    6.7400 o         1 RC1     -0.954167
     24 O12         0.6280    2.1610    6.2070 o         1 RC1     -0.954167
     25 O13        -1.1470    0.4770    6.8270 o         1 RC1     -0.954167
     26 H2          1.7200   -0.5680   -0.9300 ha        1 RC1      0.104000
     27 H3          2.9840   -0.7430    1.3410 h1        1 RC1      0.019700
     28 H4          1.8410   -0.2600    3.1270 h1        1 RC1     -0.009300
     29 H5         -0.1790    1.7010    1.8550 h1        1 RC1      0.038700
     30 H61        -1.6670   -0.2230    1.5740 hc        1 RC1      0.048700
     31 H62        -0.4870   -1.3440    2.3460 hc        1 RC1      0.048700
     32 HO2         1.7520    1.9490    3.7240 ho        1 RC1      0.420000
     33 H91        -0.9040    3.5190    2.8710 hc        1 RC1      0.008700
     34 H92         0.2760    3.2780    4.2390 hc        1 RC1      0.008700
     35 H93        -1.4160    3.8640    4.5780 hc        1 RC1      0.008700
@<TRIPOS>BOND
     1    1    2 2   
     2    1    6 1   
     3    1    7 1   
     4    2    3 1   
     5    2   26 1   
     6    3    4 1   
     7    3    8 1   
     8    3   27 1   
     9    4    5 1   
    10    4    9 1   
    11    4   28 1   
    12    5    6 1   
    13    5   10 1   
    14    5   29 1   
    15    6   30 1   
    16    6   31 1   
    17    7   11 1   
    18    7   12 1   
    19    8   13 1   
    20    9   32 1   
    21   10   17 1   
    22   13   14 1   
    23   13   15 1   
    24   13   16 1   
    25   17   18 1   
    26   17   19 1   
    27   17   22 1   
    28   18   33 1   
    29   18   34 1   
    30   18   35 1   
    31   19   20 1   
    32   19   21 1   
    33   22   23 1   
    34   22   24 1   
    35   22   25 1   
@<TRIPOS>SUBSTRUCTURE
     1 RC1         1 TEMP              0 ****  ****    0 ROOT
