@<TRIPOS>MOLECULE
RC2
   46    47     1     0     0
SMALL
bcc


@<TRIPOS>ATOM
      1 C           0.9150   -1.4700    0.0900 c2        1 RC2      0.248000
      2 N           1.3880   -0.8410   -2.2980 n3        1 RC2     -0.318000
      3 O           1.9300   -0.8580    0.4650 o         1 RC2     -0.339000
      4 S           4.1890   -2.4530    3.0370 ss        1 RC2      0.435000
      5 C01         7.0370   -6.6120    2.5140 c3        1 RC2     -0.114000
      6 N01         0.0840   -2.1430    0.9790 n         1 RC2     -0.325000
      7 C02         8.4060   -4.8860    1.5580 c3        1 RC2     -0.114000
      8 N02         7.8560   -6.2160    1.3850 n3        1 RC2     -0.270000
      9 C03         5.3920   -2.8870    4.2750 c2        1 RC2     -0.052000
     10 N03         8.3450   -5.1030    4.0950 n3        1 RC2     -0.181000
     11 C04         5.6950   -2.3210    6.7410 c2        1 RC2      0.259000
     12 N04         4.9490   -2.3140    5.5290 n         1 RC2     -0.278000
     13 C05         9.0790   -4.6380    2.9230 c3        1 RC2     -0.105000
     14 N05         6.3830   -3.6250    3.9020 n2        1 RC2     -0.202000
     15 C06         0.5400    0.9880    4.1200 c1        1 RC2     -0.159000
     16 N06         3.7640   -1.6590    5.4680 n2        1 RC2      0.018000
     17 C07         7.8090   -3.6510    5.8980 c1        1 RC2      0.143000
     18 C08         3.2490   -1.6440    4.2480 c2        1 RC2     -0.242000
     19 C09         7.6900   -6.3910    3.8940 c3        1 RC2     -0.105000
     20 C10         1.9790   -0.9980    3.9010 c2        1 RC2      0.056000
     21 C11         1.7500    0.3410    4.5330 c3        1 RC2     -0.011000
     22 C12         0.5150   -1.5320   -1.3960 c3        1 RC2     -0.094000
     23 C13        -0.4620    1.5540    3.7960 c1        1 RC2     -0.211000
     24 C14         0.2280   -2.1880    2.3630 c2        1 RC2      0.055000
     25 C15         1.1310   -1.5850    3.0990 c1        1 RC2     -0.201000
     26 C16         7.4690   -4.0960    4.6650 c2        1 RC2     -0.183000
     27 HN          1.4370    0.1350   -2.0750 hn        1 RC2      0.160000
     28 HNA         2.3140   -1.2220   -2.2650 hn        1 RC2      0.160000
     29 H01         6.0790   -6.0220    2.4580 h1        1 RC2      0.102750
     30 H01A        6.7830   -7.7020    2.4140 h1        1 RC2      0.102750
     31 HN01       -0.7080   -2.6140    0.6060 hn        1 RC2      0.234000
     32 H02         9.2910   -3.5390    3.0230 h1        1 RC2      0.098500
     33 H02A        7.5630   -4.1520    1.4220 h1        1 RC2      0.102750
     34 HN02        9.1660   -4.7000    0.7510 h1        1 RC2      0.102750
     35 H05         8.6040   -6.8780    1.2640 hn        1 RC2      0.141000
     36 H05A       10.0630   -5.1900    2.9550 h1        1 RC2      0.098500
     37 H06         2.6280    1.0060    4.2850 hc        1 RC2      0.123500
     38 H07         6.7570   -2.7410    6.6570 h5        1 RC2      0.198000
     39 H09         6.9100   -6.5460    4.6880 h1        1 RC2      0.098500
     40 H09A        8.5010   -7.1600    4.0450 h1        1 RC2      0.098500
     41 H11         1.7340    0.2110    5.6560 hc        1 RC2      0.123500
     42 H12         0.4730   -2.6160   -1.7030 h1        1 RC2      0.113000
     43 H12A       -0.5180   -1.0920   -1.4970 h1        1 RC2      0.113000
     44 H13        -1.3480    2.0600    3.5100 ha        1 RC2      0.221000
     45 H15        -0.5370   -2.8260    2.8600 h4        1 RC2      0.156000
     46 O01         5.2510   -1.9150    7.8120 o         1 RC2     -0.257000
@<TRIPOS>BOND
     1    1    3 1   
     2    1    6 1   
     3    1   22 1   
     4    2   22 1   
     5    2   27 1   
     6    2   28 1   
     7    4    9 1   
     8    4   18 1   
     9    5    8 1   
    10    5   19 1   
    11    5   29 1   
    12    5   30 1   
    13    6   24 1   
    14    6   31 1   
    15    7    8 1   
    16    7   13 1   
    17    7   33 1   
    18    7   34 1   
    19    8   35 1   
    20    9   12 1   
    21    9   14 1   
    22   10   13 1   
    23   10   19 1   
    24   10   26 1   
    25   11   12 1   
    26   11   38 1   
    27   11   46 1   
    28   12   16 1   
    29   13   32 1   
    30   13   36 1   
    31   14   26 1   
    32   15   21 1   
    33   15   23 1   
    34   16   18 1   
    35   17   26 1   
    36   18   20 1   
    37   19   39 1   
    38   19   40 1   
    39   20   21 1   
    40   20   25 1   
    41   21   37 1   
    42   21   41 1   
    43   22   42 1   
    44   22   43 1   
    45   23   44 1   
    46   24   25 1   
    47   24   45 1   
@<TRIPOS>SUBSTRUCTURE
     1 RC2         1 TEMP              0 ****  ****    0 ROOT
