@<TRIPOS>MOLECULE
RC2
   46    44     1     0     0
SMALL
bcc


@<TRIPOS>ATOM
      1 C          -0.2710    6.9410   -2.0190 c1        1 RC2      0.306000
      2 N           0.3150    9.2830   -1.9770 n3        1 RC2     -0.362000
      3 O          -1.4230    7.1350   -1.6960 o         1 RC2     -0.356000
      4 S          -0.3200   -0.3100   -1.0490 ss        1 RC2      0.438000
      5 C01         1.2940   -7.2850    0.6340 c3        1 RC2     -0.092000
      6 N01         0.2690    5.6460   -1.9480 n2        1 RC2     -0.311000
      7 O01         1.3710   -0.8190    3.4850 o         1 RC2     -0.307000
      8 C02        -1.0260   -6.9880    1.0570 c3        1 RC2     -0.092000
      9 N02         0.1070   -7.8560    1.1740 n3        1 RC2     -0.275000
     10 C03         0.1990   -1.4350    0.0830 c2        1 RC2     -0.076000
     11 N03         0.4340   -5.0340    1.0630 n3        1 RC2     -0.233000
     12 C04         1.1980   -1.3830    2.4100 c1        1 RC2      0.388000
     13 N04         0.7100   -0.6630    1.3200 n2        1 RC2     -0.227000
     14 C05        -0.7510   -5.6050    1.6050 c3        1 RC2     -0.073500
     15 N05         0.1020   -2.8200   -0.0150 n1        1 RC2     -0.213000
     16 C06        -2.5150    3.7730   -0.4090 c1        1 RC2     -0.122000
     17 N06         0.5650    0.8640    0.8860 n2        1 RC2      0.046000
     18 C07         1.2100   -2.9220    2.3420 c2        1 RC2     -0.388000
     19 C08         0.0450    1.0250   -0.3750 c2        1 RC2     -0.243000
     20 C09         1.5680   -5.9020    1.1800 c3        1 RC2     -0.073500
     21 C10        -0.6660    2.2860   -0.7460 c2        1 RC2     -0.006000
     22 C11        -1.9400    2.5180   -0.2710 c1        1 RC2     -0.146000
     23 C12         0.5300    8.0550   -2.6800 c3        1 RC2     -0.102000
     24 C13        -1.8130    4.7890   -1.0200 c1        1 RC2     -0.122000
     25 C14        -0.5320    4.5560   -1.4970 c1        1 RC2      0.076000
     26 C15         0.0370    3.3060   -1.3590 c2        1 RC2     -0.139000
     27 C16         0.6120   -3.6330    1.0760 c1        1 RC2      0.200000
     28 HN         -0.0070    9.9220   -2.5640 hn        1 RC2      0.161000
     29 HNA         1.1140    9.5740   -1.6140 hn        1 RC2      0.161000
     30 H01         2.0500   -7.8630    0.8500 h1        1 RC2      0.104750
     31 H01A        1.2040   -7.2300   -0.3550 h1        1 RC2      0.104750
     32 HN01        1.1240    5.4960   -2.2240 hn        1 RC2      0.252000
     33 H02        -1.2710   -6.9110    0.1070 h1        1 RC2      0.104750
     34 H02A       -1.7860   -7.3840    1.5530 h1        1 RC2      0.104750
     35 HN02        0.2420   -8.0620    2.0500 hn        1 RC2      0.150000
     36 H05        -1.5190   -5.0170    1.3890 h1        1 RC2      0.093750
     37 H05A       -0.6570   -5.6630    2.5890 h1        1 RC2      0.093750
     38 H06        -3.4210    3.9370   -0.0720 ha        1 RC2      0.159500
     39 H07         1.4470   -3.4470    3.1340 ha        1 RC2      0.171000
     40 H09         1.8130   -5.9770    2.1220 h1        1 RC2      0.093750
     41 H09A        2.3250   -5.5070    0.6820 h1        1 RC2      0.093750
     42 H11        -2.4310    1.8070    0.1570 ha        1 RC2      0.136000
     43 H12         1.5020    7.8240   -2.6570 h1        1 RC2      0.103500
     44 H12A        0.2390    8.1570   -3.6140 h1        1 RC2      0.103500
     45 H13        -2.2150    5.6680   -1.1170 ha        1 RC2      0.159500
     46 H15         0.9370    3.1510   -1.6690 ha        1 RC2      0.157000
@<TRIPOS>BOND
     1    1    3 1   
     2    1   23 1   
     3    2   23 1   
     4    2   28 1   
     5    2   29 1   
     6    4   10 1   
     7    4   19 1   
     8    5    9 1   
     9    5   20 1   
    10    5   30 1   
    11    5   31 1   
    12    6   25 1   
    13    6   32 1   
    14    7   12 1   
    15    8    9 1   
    16    8   14 1   
    17    8   33 1   
    18    8   34 1   
    19    9   35 1   
    20   10   13 1   
    21   10   15 1   
    22   11   14 1   
    23   11   20 1   
    24   11   27 1   
    25   12   18 1   
    26   13   17 1   
    27   14   36 1   
    28   14   37 1   
    29   16   24 1   
    30   16   38 1   
    31   17   19 1   
    32   18   27 1   
    33   18   39 1   
    34   19   21 1   
    35   20   40 1   
    36   20   41 1   
    37   21   22 1   
    38   21   26 1   
    39   22   42 1   
    40   23   43 1   
    41   23   44 1   
    42   24   45 1   
    43   25   26 1   
    44   26   46 1   
@<TRIPOS>SUBSTRUCTURE
     1 RC2         1 TEMP              0 ****  ****    0 ROOT
