@<TRIPOS>MOLECULE
RC2
   47    47     1     0     0
SMALL
bcc


@<TRIPOS>ATOM
      1 C          -0.7180   -0.6980    0.4250 c2        1 RC2      0.290000
      2 N          -2.8120   -1.9650   -0.0470 nz        1 RC2     -0.057000
      3 O          -0.7150   -0.4650   -0.8020 o         1 RC2     -0.356000
      4 S           6.2140   -0.8460    2.6650 ss        1 RC2      0.406000
      5 C01         8.4990   -7.2620    3.7630 c3        1 RC2     -0.143000
      6 N01         0.2750   -0.3620    1.2950 ns        1 RC2     -0.271000
      7 C02        10.4350   -6.9420    5.0950 c2        1 RC2     -0.100000
      8 N02         9.2040   -7.2650    5.0090 n2        1 RC2     -0.195000
      9 C03         6.3170   -2.6290    2.6650 c2        1 RC2     -0.034000
     10 N03         6.8600   -5.3280    4.0370 n3        1 RC2     -0.229000
     11 C04         4.7200   -4.4900    2.0310 c2        1 RC2      0.318000
     12 N04         4.9810   -3.1330    2.3880 n         1 RC2     -0.273000
     13 C05         6.9100   -4.8590    5.4080 c3        1 RC2     -0.120000
     14 N05         7.4440   -3.1810    2.9450 n2        1 RC2     -0.139000
     15 C06         3.3980    2.6130    2.8970 c1        1 RC2     -0.192000
     16 N06         4.0220   -2.1940    2.3090 n2        1 RC2      0.027000
     17 C07         8.7740   -5.1080    2.4960 c1        1 RC2      0.152000
     18 C08         4.5020   -0.9610    2.4230 c2        1 RC2     -0.288000
     19 C09         7.0460   -6.7600    3.8810 c3        1 RC2     -0.077000
     20 C10         3.6500    0.2300    2.3500 c2        1 RC2      0.087000
     21 C11         4.1090    1.4000    3.1630 c3        1 RC2     -0.017000
     22 C12        -1.9680   -1.3830    1.0320 c3        1 RC2     -0.183000
     23 C13         2.8320    3.6480    2.6980 c1        1 RC2     -0.170000
     24 C14         1.5170    0.1390    0.8370 c2        1 RC2      0.020000
     25 C15         2.5670    0.2170    1.6150 c1        1 RC2     -0.181000
     26 C16         7.6980   -4.5620    3.1290 c2        1 RC2     -0.233000
     27 HN         -2.7510   -1.3550   -0.8840 hn        1 RC2      0.270333
     28 HNA        -3.7850   -2.0400    0.2590 hn        1 RC2      0.270333
     29 H01         9.0450   -6.6520    2.9220 h1        1 RC2      0.120500
     30 H01A        8.4660   -8.3220    3.3760 h1        1 RC2      0.120500
     31 HN01        0.2050   -0.6230    2.2550 hn        1 RC2      0.251000
     32 H02         7.9300   -4.9350    5.8700 h1        1 RC2      0.087667
     33 H02A       11.0910   -6.6040    4.2690 h4        1 RC2      0.125500
     34 HN02       10.9090   -7.0010    6.0930 h4        1 RC2      0.125500
     35 H05         6.1940   -5.4720    6.0170 h1        1 RC2      0.087667
     36 H05A        6.5820   -3.7880    5.4420 h1        1 RC2      0.087667
     37 H06         5.2120    1.5660    2.9670 hc        1 RC2      0.129000
     38 H07         5.6510   -5.0770    1.8700 h5        1 RC2      0.177000
     39 H09         6.5260   -7.0510    2.9230 h1        1 RC2      0.112500
     40 H09A        6.5330   -7.2830    4.7350 h1        1 RC2      0.112500
     41 H11         4.0030    1.1330    4.2560 hc        1 RC2      0.129000
     42 H12        -2.5700   -0.6050    1.5850 hx        1 RC2      0.170500
     43 H12A       -1.6750   -2.2060    1.7450 hx        1 RC2      0.170500
     44 H13         2.3390    4.5720    2.5240 ha        1 RC2      0.231000
     45 H15         1.5220    0.4550   -0.2270 h4        1 RC2      0.199000
     46 HN3        -2.4620   -2.8930   -0.3090 hn        1 RC2      0.270333
     47 O01         3.5810   -4.9350    1.8970 o         1 RC2     -0.290000
@<TRIPOS>BOND
     1    1    3 1   
     2    1    6 1   
     3    1   22 1   
     4    2   22 1   
     5    2   27 1   
     6    2   28 1   
     7    2   46 1   
     8    4    9 1   
     9    4   18 1   
    10    5    8 1   
    11    5   19 1   
    12    5   29 1   
    13    5   30 1   
    14    6   24 1   
    15    6   31 1   
    16    7    8 1   
    17    7   33 1   
    18    7   34 1   
    19    9   12 1   
    20    9   14 1   
    21   10   13 1   
    22   10   19 1   
    23   10   26 1   
    24   11   12 1   
    25   11   38 1   
    26   11   47 1   
    27   12   16 1   
    28   13   32 1   
    29   13   35 1   
    30   13   36 1   
    31   14   26 1   
    32   15   21 1   
    33   15   23 1   
    34   16   18 1   
    35   17   26 1   
    36   18   20 1   
    37   19   39 1   
    38   19   40 1   
    39   20   21 1   
    40   20   25 1   
    41   21   37 1   
    42   21   41 1   
    43   22   42 1   
    44   22   43 1   
    45   23   44 1   
    46   24   25 1   
    47   24   45 1   
@<TRIPOS>SUBSTRUCTURE
     1 RC2         1 TEMP              0 ****  ****    0 ROOT
