@<TRIPOS>MOLECULE
RC2
   46    49     1     0     0
SMALL
bcc


@<TRIPOS>ATOM
      1 C          -5.1110    1.9280   -0.0900 c         1 RC2      0.615100
      2 N          -6.0230    4.2640    0.1200 n3        1 RC2     -0.885800
      3 O          -3.9520    2.3730    0.0040 o         1 RC2     -0.600100
      4 S          -0.1630    0.3690   -0.0140 ss        1 RC2     -0.115300
      5 C01         6.2040    0.7820   -1.2920 c3        1 RC2      0.120300
      6 N01        -5.4000    0.5810   -0.2400 n         1 RC2     -0.469100
      7 C02         5.0170    2.6230   -0.2920 c3        1 RC2      0.120300
      8 N02         6.1360    2.2190   -1.1230 n3        1 RC2     -0.795200
      9 C03         1.4120   -0.3070    0.2690 cc        1 RC2      0.157600
     10 N03         4.9260    0.3730    0.8480 nh        1 RC2     -0.608400
     11 C04         2.4930   -2.5130    0.5830 c         1 RC2      0.631500
     12 N04         1.2940   -1.7350    0.3440 n         1 RC2      0.011300
     13 C05         4.8720    1.8180    1.0180 c3        1 RC2      0.143800
     14 N05         2.5240    0.3870    0.3860 nd        1 RC2     -0.355600
     15 C06        -4.1460   -2.8660   -0.7200 ca        1 RC2     -0.106000
     16 N06         0.0550   -2.2240    0.1910 nc        1 RC2     -0.387800
     17 C07         3.7010   -1.7190    0.7200 cc        1 RC2     -0.358200
     18 C08        -0.8320   -1.2500   -0.0100 cd        1 RC2      0.434900
     19 C09         6.0470   -0.0390    0.0090 c3        1 RC2      0.143800
     20 C10        -2.2590   -1.4520   -0.2210 ca        1 RC2     -0.112500
     21 C11        -2.7730   -2.7170   -0.5200 ca        1 RC2     -0.109000
     22 C12        -6.3290    2.8750   -0.0420 c3        1 RC2      0.092800
     23 C13        -5.0030   -1.7780   -0.6310 ca        1 RC2     -0.166000
     24 C14        -4.4940   -0.4880   -0.3290 ca        1 RC2      0.071600
     25 C15        -3.1090   -0.3410   -0.1220 ca        1 RC2     -0.146000
     26 C16         3.7130   -0.3330    0.6240 cd        1 RC2      0.390600
     27 HN         -5.5330    4.4280    0.9790 hn        1 RC2      0.364800
     28 HNA        -5.4590    4.6000   -0.6370 hn        1 RC2      0.364800
     29 H01         5.3880    0.4880   -2.0100 h1        1 RC2      0.064450
     30 H01A        7.1910    0.5140   -1.7580 h1        1 RC2      0.064450
     31 HN01       -6.3610    0.3330   -0.3300 hn        1 RC2      0.318500
     32 H02         5.1310    3.7100   -0.0310 h1        1 RC2      0.064450
     33 H02A        4.0790    2.5060   -0.9030 h1        1 RC2      0.064450
     34 HN02        6.9950    2.5540   -0.7220 hn        1 RC2      0.349800
     35 H05         5.7320    2.0710    1.7040 h1        1 RC2      0.066200
     36 H05A        3.9240    2.1250    1.5350 h1        1 RC2      0.066200
     37 H06        -4.5550   -3.8610   -0.9530 ha        1 RC2      0.142000
     38 H07         4.6060   -2.3070    0.9310 ha        1 RC2      0.175000
     39 H09         5.9530   -1.1250   -0.2640 h1        1 RC2      0.066200
     40 H09A        6.9710    0.0840    0.6430 h1        1 RC2      0.066200
     41 H11        -2.1100   -3.5930   -0.5960 ha        1 RC2      0.161000
     42 H12        -6.9070    2.7480   -1.0010 h1        1 RC2      0.075200
     43 H12A       -6.9860    2.5540    0.8170 h1        1 RC2      0.075200
     44 H13        -6.0810   -1.9280   -0.7950 ha        1 RC2      0.134000
     45 H15        -2.6830    0.6490    0.1230 ha        1 RC2      0.175000
     46 O01         2.4330   -3.7460    0.6560 o         1 RC2     -0.576500
@<TRIPOS>BOND
     1    1    3 2   
     2    1    6 1   
     3    1   22 1   
     4    2   22 1   
     5    2   27 1   
     6    2   28 1   
     7    4    9 1   
     8    4   18 1   
     9    5    8 1   
    10    5   19 1   
    11    5   29 1   
    12    5   30 1   
    13    6   24 1   
    14    6   31 1   
    15    7    8 1   
    16    7   13 1   
    17    7   32 1   
    18    7   33 1   
    19    8   34 1   
    20    9   12 1   
    21    9   14 2   
    22   10   13 1   
    23   10   19 1   
    24   10   26 1   
    25   11   12 1   
    26   11   17 1   
    27   11   46 2   
    28   12   16 1   
    29   13   35 1   
    30   13   36 1   
    31   14   26 1   
    32   15   21 ar  
    33   15   23 ar  
    34   15   37 1   
    35   16   18 2   
    36   17   26 2   
    37   17   38 1   
    38   18   20 1   
    39   19   39 1   
    40   19   40 1   
    41   20   21 ar  
    42   20   25 ar  
    43   21   41 1   
    44   22   42 1   
    45   22   43 1   
    46   23   24 ar  
    47   23   44 1   
    48   24   25 ar  
    49   25   45 1   
@<TRIPOS>SUBSTRUCTURE
     1 RC2         1 TEMP              0 ****  ****    0 ROOT
