@<TRIPOS>MOLECULE
RC2
   47    48     1     0     0
SMALL
bcc


@<TRIPOS>ATOM
      1 C           0.6740   -0.9780    0.0030 c         1 RC2      0.639100
      2 N           0.7230   -3.3920    0.4990 n4        1 RC2     -0.832600
      3 O           1.5500   -1.0730   -0.8700 o         1 RC2     -0.535100
      4 S           4.9170   -0.6430    4.4060 ss        1 RC2     -0.048300
      5 C01         7.6010   -6.7840    2.3240 c3        1 RC2      0.070800
      6 N01         0.4030    0.1810    0.7140 n         1 RC2     -0.441100
      7 C02         9.8480   -6.7690    1.5770 c2        1 RC2      0.444100
      8 N02         8.9020   -6.1840    2.2020 n2        1 RC2     -0.612900
      9 C03         5.0520   -2.3250    3.9630 cc        1 RC2      0.167600
     10 N03         6.9480   -5.3360    4.3010 nh        1 RC2     -0.607400
     11 C04         3.8370   -4.0240    2.6430 c         1 RC2      0.673500
     12 N04         3.9160   -2.6770    3.1560 n         1 RC2      0.008300
     13 C05         8.1180   -4.8250    4.9820 c3        1 RC2      0.197100
     14 N05         6.0280   -3.1280    4.3120 nd        1 RC2     -0.326600
     15 C06         1.7620    2.7110    4.4550 c1        1 RC2     -0.181100
     16 N06         3.0420   -1.6880    2.9290 nc        1 RC2     -0.455800
     17 C07         4.9100   -4.8860    3.0250 cc        1 RC2     -0.432200
     18 C08         3.4280   -0.5530    3.5200 cd        1 RC2      0.422200
     19 C09         7.0290   -6.6740    3.7550 c3        1 RC2      0.209800
     20 C10         2.6200    0.6700    3.4080 cf        1 RC2     -0.131100
     21 C11         2.4720    1.4840    4.6510 c3        1 RC2      0.050900
     22 C12        -0.1810   -2.2340    0.2950 c3        1 RC2      0.006800
     23 C13         1.1780    3.7480    4.3290 c1        1 RC2     -0.090500
     24 C14         1.5310    0.9840    1.0530 c2        1 RC2     -0.033500
     25 C15         2.0670    0.9230    2.2480 c1        1 RC2     -0.032800
     26 C16         5.9720   -4.4680    3.8560 cd        1 RC2      0.465600
     27 HN          1.4190   -3.4360   -0.2610 hn        1 RC2      0.481133
     28 HNA         0.1960   -4.2660    0.5230 hn        1 RC2      0.481133
     29 H01         6.9140   -6.2380    1.6140 h1        1 RC2      0.055700
     30 H01A        7.5720   -7.8800    2.0510 h1        1 RC2      0.055700
     31 HN01       -0.3260    0.1420    1.3960 hn        1 RC2      0.315500
     32 H02         8.6800   -4.1020    4.3330 h1        1 RC2      0.062367
     33 H02A        9.8070   -7.7620    1.0890 h4        1 RC2     -0.007200
     34 HN02       10.8160   -6.2380    1.5010 h4        1 RC2     -0.007200
     35 H05         8.8010   -5.6760    5.2440 h1        1 RC2      0.062367
     36 H05A        7.8040   -4.3090    5.9290 h1        1 RC2      0.062367
     37 H06         3.5030    1.7110    5.0560 hc        1 RC2      0.084200
     38 H07         4.8460   -5.9020    2.6160 ha        1 RC2      0.178000
     39 H09         7.6690   -7.2850    4.4560 h1        1 RC2      0.070700
     40 H09A        6.0000   -7.1340    3.7510 h1        1 RC2      0.070700
     41 H11         1.9380    0.8620    5.4290 hc        1 RC2      0.084200
     42 H12        -0.8300   -2.1210    1.2070 hx        1 RC2      0.121700
     43 H12A       -0.8390   -2.4250   -0.6030 hx        1 RC2      0.121700
     44 H13         0.6630    4.6710    4.2210 ha        1 RC2      0.178500
     45 H15         1.9200    1.6010    0.2200 h4        1 RC2      0.203000
     46 HN3         1.2560   -3.2980    1.3880 hn        1 RC2      0.481133
     47 O01         2.8660   -4.3400    1.9130 o         1 RC2     -0.748500
@<TRIPOS>BOND
     1    1    3 2   
     2    1    6 1   
     3    1   22 1   
     4    2   22 1   
     5    2   27 1   
     6    2   28 1   
     7    2   46 1   
     8    4    9 1   
     9    4   18 1   
    10    5    8 1   
    11    5   19 1   
    12    5   29 1   
    13    5   30 1   
    14    6   24 1   
    15    6   31 1   
    16    7    8 2   
    17    7   33 1   
    18    7   34 1   
    19    9   12 1   
    20    9   14 2   
    21   10   13 1   
    22   10   19 1   
    23   10   26 1   
    24   11   12 1   
    25   11   17 1   
    26   11   47 2   
    27   12   16 1   
    28   13   32 1   
    29   13   35 1   
    30   13   36 1   
    31   14   26 1   
    32   15   21 1   
    33   15   23 3   
    34   16   18 2   
    35   17   26 2   
    36   17   38 1   
    37   18   20 1   
    38   19   39 1   
    39   19   40 1   
    40   20   21 1   
    41   20   25 2   
    42   21   37 1   
    43   21   41 1   
    44   22   42 1   
    45   22   43 1   
    46   23   44 1   
    47   24   25 2   
    48   24   45 1   
@<TRIPOS>SUBSTRUCTURE
     1 RC2         1 TEMP              0 ****  ****    0 ROOT
