@<TRIPOS>MOLECULE
RC5
   42    42     1     0     0
SMALL
bcc


@<TRIPOS>ATOM
      1 O12         0.0000    0.0000    0.0000 o         1 RC5     -0.585100
      2 C4          1.2130    0.0000    0.0000 c         1 RC5      0.320100
      3 N9          1.8870    0.0000    1.1680 nx        1 RC5      0.232300
      4 O10         3.3020    0.0000    1.1680 oh        1 RC5     -0.514300
      5 C11         1.1540   -0.0020    2.4360 c3        1 RC5      0.003100
      6 C3          1.9670   -0.0040   -1.3050 c3        1 RC5     -0.100400
      7 C2          0.9760   -0.1100   -2.4660 c3        1 RC5      0.001300
      8 C1          1.7440   -0.2830   -3.7770 c3        1 RC5     -0.069600
      9 P5          2.3710   -1.9910   -3.8950 p5        1 RC5      0.517700
     10 O7          3.4240   -2.2590   -2.7080 o         1 RC5     -0.593833
     11 O6          3.0980   -2.1990   -5.3170 o         1 RC5     -0.593833
     12 O8          1.2410   -2.9400   -3.7760 o         1 RC5     -0.593833
     13 C13         0.1300    1.1630   -2.5330 c3        1 RC5     -0.053400
     14 C14        -0.9420    1.0060   -3.6130 c3        1 RC5     -0.028400
     15 C15        -1.7870    2.2800   -3.6800 c3        1 RC5      0.022900
     16 C16        -2.8440    2.1260   -4.7440 ca        1 RC5     -0.070300
     17 C17        -4.0800    1.5990   -4.4190 ca        1 RC5     -0.096000
     18 C19        -5.0490    1.4570   -5.3940 ca        1 RC5     -0.104000
     19 C21        -4.7820    1.8420   -6.6950 ca        1 RC5     -0.118000
     20 C20        -3.5460    2.3690   -7.0190 ca        1 RC5     -0.104000
     21 C18        -2.5790    2.5170   -6.0430 ca        1 RC5     -0.096000
     22 H1          3.6170   -0.7410    1.6590 ho        1 RC5      0.416000
     23 H2          1.8350    0.2250    3.2470 hx        1 RC5      0.041033
     24 H3          0.3710    0.7460    2.4020 hx        1 RC5      0.041033
     25 H4          0.7130   -0.9780    2.5970 hx        1 RC5      0.041033
     26 H5          2.5340    0.9140   -1.3970 hc        1 RC5      0.072200
     27 H6          2.6430   -0.8500   -1.3280 hc        1 RC5      0.072200
     28 H7          0.3290   -0.9660   -2.3110 hc        1 RC5      0.065700
     29 H8          1.0830   -0.0820   -4.6120 hc        1 RC5      0.022200
     30 H9          2.5760    0.4100   -3.8020 hc        1 RC5      0.022200
     31 H12        -0.3450    1.3310   -1.5740 hc        1 RC5      0.005700
     32 H13         0.7650    2.0060   -2.7740 hc        1 RC5      0.005700
     33 H14        -0.4670    0.8370   -4.5710 hc        1 RC5      0.035200
     34 H15        -1.5780    0.1630   -3.3710 hc        1 RC5      0.035200
     35 H16        -2.2620    2.4500   -2.7220 hc        1 RC5      0.009200
     36 H17        -1.1510    3.1230   -3.9230 hc        1 RC5      0.009200
     37 H18        -4.2890    1.2980   -3.4000 ha        1 RC5      0.106000
     38 H19        -6.0180    1.0450   -5.1390 ha        1 RC5      0.094500
     39 H20        -5.5510    1.7590   -7.4540 ha        1 RC5      0.093000
     40 H21        -3.3370    2.6730   -8.0380 ha        1 RC5      0.094500
     41 H22        -1.6310    2.9810   -6.2850 ha        1 RC5      0.106000
     42 H91         1.8850    1.0010    1.1690 hn        1 RC5      0.235800
@<TRIPOS>BOND
     1    1    2 2   
     2    2    3 1   
     3    2    6 1   
     4    3    4 1   
     5    3    5 1   
     6    3   42 1   
     7    4   22 1   
     8    5   23 1   
     9    5   24 1   
    10    5   25 1   
    11    6    7 1   
    12    6   26 1   
    13    6   27 1   
    14    7    8 1   
    15    7   13 1   
    16    7   28 1   
    17    8    9 1   
    18    8   29 1   
    19    8   30 1   
    20    9   10 1   
    21    9   11 1   
    22    9   12 1   
    23   13   14 1   
    24   13   31 1   
    25   13   32 1   
    26   14   15 1   
    27   14   33 1   
    28   14   34 1   
    29   15   16 1   
    30   15   35 1   
    31   15   36 1   
    32   16   17 ar  
    33   16   21 ar  
    34   17   18 ar  
    35   17   37 1   
    36   18   19 ar  
    37   18   38 1   
    38   19   20 ar  
    39   19   39 1   
    40   20   21 ar  
    41   20   40 1   
    42   21   41 1   
@<TRIPOS>SUBSTRUCTURE
     1 RC5         1 TEMP              0 ****  ****    0 ROOT
