@<TRIPOS>MOLECULE
RC7
   42    44     1     0     0
SMALL
bcc


@<TRIPOS>ATOM
      1 C1          0.5940    0.0790    1.1050 c3        1 RC7      0.229900
      2 N2         -0.6530    0.0510    0.2820 n2        1 RC7     -0.546900
      3 CA2        -0.9140    1.2720   -0.0850 ce        1 RC7      0.342300
      4 C2          0.1390    2.2690    0.4380 c         1 RC7      0.565200
      5 O2          0.0980    3.4970    0.3040 o         1 RC7     -0.613500
      6 N3          1.0320    1.5070    1.2190 n         1 RC7     -0.420800
      7 CA3         2.4320    1.8420    1.2950 c3        1 RC7     -0.050000
      8 C           3.3540    1.3390    0.1440 c         1 RC7      0.892600
      9 O           3.0860    1.6770   -1.0380 o         1 RC7     -0.835800
     10 CA1         1.6810   -0.8640    0.5820 c3        1 RC7     -0.108400
     11 CB2        -2.0210    1.7730   -0.9390 c3        1 RC7     -0.060400
     12 CG2        -3.3560    1.2220   -0.5780 ca        1 RC7     -0.099300
     13 CD1        -3.6510   -0.1290   -0.7990 ca        1 RC7     -0.081500
     14 CD2        -4.3380    2.0590   -0.0330 ca        1 RC7     -0.081500
     15 CE1        -4.9070   -0.6400   -0.4850 ca        1 RC7     -0.190000
     16 CE2        -5.6000    1.5670    0.2860 ca        1 RC7     -0.190000
     17 CZ         -5.8790    0.2120    0.0570 ca        1 RC7      0.109100
     18 OH         -7.1460   -0.2240    0.3840 oh        1 RC7     -0.509100
     19 CB1         1.2830   -2.3240    0.5820 c3        1 RC7     -0.080700
     20 CG1         2.4650   -3.1430    0.2180 cc        1 RC7      0.271600
     21 ND1         2.4680   -4.5390    0.1010 nc        1 RC7     -0.674000
     22 CD3         3.7560   -2.6350   -0.0670 cd        1 RC7     -0.219600
     23 NE1         4.5480   -3.7400   -0.3600 na        1 RC7     -0.322900
     24 CE3         3.7290   -4.8720   -0.2480 cd        1 RC7      0.341400
     25 OXT         4.3330    0.6060    0.4760 o         1 RC7     -0.835800
     26 HOH        -7.1780   -1.1770    0.2220 ho        1 RC7      0.412000
     27 HE2        -6.3730    2.2180    0.7150 ha        1 RC7      0.134500
     28 HD2        -4.1080    3.1200    0.1510 ha        1 RC7      0.145500
     29 HD1        -2.8760   -0.7940   -1.2120 ha        1 RC7      0.145500
     30 HE1        -5.1310   -1.7020   -0.6530 ha        1 RC7      0.134500
     31 HB21       -2.0270    2.8970   -0.8650 hc        1 RC7      0.076200
     32 HB22       -1.7850    1.5080   -2.0090 hc        1 RC7      0.076200
     33 H1          0.2940   -0.2480    2.1470 h2        1 RC7      0.072700
     34 HA31        2.5030    2.9650    1.3170 h1        1 RC7      0.052200
     35 HA32        2.8160    1.4250    2.2670 h1        1 RC7      0.052200
     36 HA11        1.9870   -0.5560   -0.4560 hc        1 RC7      0.095200
     37 HA12        2.5820   -0.7330    1.2470 hc        1 RC7      0.095200
     38 HB11        0.9070   -2.6280    1.5960 hc        1 RC7      0.047200
     39 HB12        0.4520   -2.5090   -0.1500 hc        1 RC7      0.047200
     40 HD3         4.1330   -1.5980   -0.0700 h4        1 RC7      0.247000
     41 HNE1        5.4990   -3.7210   -0.6070 hn        1 RC7      0.292700
     42 HE3         4.0930   -5.8860   -0.4270 h5        1 RC7      0.040100
@<TRIPOS>BOND
     1    1    2 1   
     2    1    6 1   
     3    1   10 1   
     4    1   33 1   
     5    2    3 2   
     6    3    4 1   
     7    3   11 1   
     8    4    5 2   
     9    4    6 1   
    10    6    7 1   
    11    7    8 1   
    12    7   34 1   
    13    7   35 1   
    14    8    9 1   
    15    8   25 1   
    16   10   19 1   
    17   10   36 1   
    18   10   37 1   
    19   11   12 1   
    20   11   31 1   
    21   11   32 1   
    22   12   13 ar  
    23   12   14 ar  
    24   13   15 ar  
    25   13   29 1   
    26   14   16 ar  
    27   14   28 1   
    28   15   17 ar  
    29   15   30 1   
    30   16   17 ar  
    31   16   27 1   
    32   17   18 1   
    33   18   26 1   
    34   19   20 1   
    35   19   38 1   
    36   19   39 1   
    37   20   21 1   
    38   20   22 2   
    39   21   24 2   
    40   22   23 1   
    41   22   40 1   
    42   23   24 1   
    43   23   41 1   
    44   24   42 1   
@<TRIPOS>SUBSTRUCTURE
     1 RC7         1 TEMP              0 ****  ****    0 ROOT
