@<TRIPOS>MOLECULE
RC8
   61    61     1     0     0
SMALL
bcc


@<TRIPOS>ATOM
      1 C2          0.8120    0.5650    0.3460 c2        1 RC8      0.180000
      2 C4          0.3460    0.5020    2.5920 c2        1 RC8     -0.026000
      3 C5          1.4770   -0.3500    2.8450 c2        1 RC8     -0.161000
      4 C6          2.2370   -0.7400    1.7060 c2        1 RC8      0.189000
      5 C8          0.6660   -0.0590    4.8880 c1        1 RC8     -0.078000
      6 C10        -2.3420    0.8610    5.2930 c3        1 RC8     -0.228000
      7 C12         1.0590    0.5180   -2.1110 c3        1 RC8     -0.019000
      8 C15         0.4740   -2.5610   -3.4700 c1        1 RC8     -0.026000
      9 C13         0.4700    1.0730   -3.3690 c2        1 RC8     -0.183000
     10 N2          0.5420    1.1320   -0.9060 nh        1 RC8     -0.274000
     11 N1          1.9150   -0.2620    0.4650 n2        1 RC8     -0.276000
     12 N9         -0.2810    0.7660    3.9110 n4        1 RC8     -0.035000
     13 N7          1.6210   -0.6460    4.2240 n2        1 RC8     -0.256000
     14 N3         -0.0330    0.9640    1.3930 n2        1 RC8     -0.218000
     15 N6          3.2790   -1.6590    1.8680 nh        1 RC8     -0.289000
     16 CA'         4.1680   -1.9760    0.7960 c3        1 RC8     -0.038000
     17 C1'         5.0910   -0.9320    0.2750 c2        1 RC8      0.032000
     18 C6'         5.2500    0.4020    0.8860 c3        1 RC8     -0.200000
     19 C5'         6.6330    0.8660    1.0560 c1        1 RC8     -0.061500
     20 C4'         7.6630    0.0270    0.5610 c2        1 RC8     -0.333000
     21 C3'         7.3770   -0.9890   -0.3030 c1        1 RC8     -0.061500
     22 C2'         6.0170   -1.3200   -0.7770 c3        1 RC8     -0.200000
     23 C1B         9.0510    0.3490    0.9120 c2        1 RC8      0.213000
     24 N1B         9.3100    1.4480    1.6100 n3        1 RC8     -0.226000
     25 C5B        11.9840    2.6500    0.1100 c1        1 RC8     -0.032000
     26 C4B        11.6110    1.4540   -0.0380 c1        1 RC8     -0.613000
     27 C3B        11.2910    0.1840   -0.2290 c1        1 RC8     -0.063000
     28 C2B        10.1580   -0.5160    0.3620 c3        1 RC8     -0.152000
     29 H8         -0.2080    1.7550    4.1450 hn        1 RC8      0.236000
     30 H9         -2.2500    0.8070    3.1230 hx        1 RC8      0.111000
     31 H10        -2.3220    1.9770    5.3320 hc        1 RC8      0.099000
     32 H10A       -1.8050    0.4570    6.1860 hc        1 RC8      0.099000
     33 H10B       -3.4060    0.5240    5.3260 hc        1 RC8      0.099000
     34 H12         2.1760    0.6890   -2.1340 h1        1 RC8      0.112000
     35 H14        -2.2530    2.9080   -1.3060 ha        1 RC8      0.001000
     36 H14A        0.2050    3.1240   -2.8040 ha        1 RC8      0.117500
     37 H14B       -1.9010    2.9050   -1.8850 ha        1 RC8      0.001000
     38 HO1        -0.3370   -2.6720   -5.2310 ho        1 RC8      0.157000
     39 H15         0.3580   -3.6570   -3.3050 ha        1 RC8      0.012000
     40 H15A        0.8890   -0.6040   -2.1050 h1        1 RC8      0.112000
     41 H13        -0.3010    2.6800   -4.5260 ha        1 RC8      0.117500
     42 H13A        0.3740    0.3120   -4.1640 ha        1 RC8      0.144000
     43 HN2        -0.3510    1.5750   -0.9970 hn        1 RC8      0.234000
     44 H11        -1.3670   -1.6670    4.7940 hc        1 RC8      0.099000
     45 H11A       -1.4400   -1.5740    2.9810 hc        1 RC8      0.099000
     46 H11B       -2.9620   -1.4140    3.9560 hc        1 RC8      0.099000
     47 HN6         4.7980   -2.8600    1.1300 h1        1 RC8      0.147500
     48 HA'         3.6370   -1.7270    2.7990 hn        1 RC8      0.255000
     49 HA'A        3.5500   -2.3290   -0.0920 h1        1 RC8      0.147500
     50 H6'         4.7300    1.1700    0.2280 hc        1 RC8      0.175750
     51 H5'         4.7510    0.4760    1.8960 hc        1 RC8      0.175750
     52 H3'         5.8920   -0.7040   -1.7220 hc        1 RC8      0.175750
     53 H2'         5.9260   -2.3990   -1.0770 hc        1 RC8      0.175750
     54 H5B         8.5660    2.0830    1.8310 hn        1 RC8      0.270000
     55 H4B        10.2600    1.7740    1.7040 hn        1 RC8      0.270000
     56 H3B         9.7090   -1.2140   -0.4030 hc        1 RC8      0.146500
     57 H2B        10.5740   -1.1490    1.1980 hc        1 RC8      0.146500
     58 C9         -1.7100    0.3420    4.0030 c3        1 RC8     -0.025000
     59 C14         0.1110    2.3390   -3.5660 c2        1 RC8     -0.214000
     60 O1          0.0640   -2.0590   -4.5740 oh        1 RC8     -0.139000
     61 C11        -1.8720   -1.1720    3.9280 c3        1 RC8     -0.228000
@<TRIPOS>BOND
     1    1   10 1   
     2    1   11 1   
     3    1   14 1   
     4    2    3 1   
     5    2   12 1   
     6    2   14 1   
     7    3    4 1   
     8    3   13 1   
     9    4   11 1   
    10    4   15 1   
    11    5   12 1   
    12    5   13 1   
    13    6   31 1   
    14    6   32 1   
    15    6   33 1   
    16    6   58 1   
    17    7    9 1   
    18    7   10 1   
    19    7   34 1   
    20    7   40 1   
    21    8   39 1   
    22    8   60 1   
    23    9   42 1   
    24    9   59 1   
    25   10   43 1   
    26   12   29 1   
    27   12   58 1   
    28   15   16 1   
    29   15   48 1   
    30   16   17 1   
    31   16   47 1   
    32   16   49 1   
    33   17   18 1   
    34   17   22 1   
    35   18   19 1   
    36   18   50 1   
    37   18   51 1   
    38   19   20 1   
    39   20   21 1   
    40   20   23 1   
    41   21   22 1   
    42   22   52 1   
    43   22   53 1   
    44   23   24 1   
    45   23   28 1   
    46   24   54 1   
    47   24   55 1   
    48   25   26 1   
    49   26   27 1   
    50   27   28 1   
    51   28   56 1   
    52   28   57 1   
    53   30   58 1   
    54   35   37 1   
    55   36   59 1   
    56   38   60 1   
    57   41   59 1   
    58   44   61 1   
    59   45   61 1   
    60   46   61 1   
    61   58   61 1   
@<TRIPOS>SUBSTRUCTURE
     1 RC8         1 TEMP              0 ****  ****    0 ROOT
